TITL C-2778424-3986-1226 -0.00089012420701678 125000 -784.576121849697 0 0 136 (C1) n - 1
REM
REM in /home/nfs/bkarasulu/CARBON/AIRSS/Generating-Clusters/REBO/Only-C1/SD-CG/HFTN-CG
REM
REM
REM
REM
REM
REM ./C.cell (11c1c37f851c82e70ff6c80c92926a4b)
REM
REM compiler GCC version 9.2.1 20190827 (Red Hat 9.2.1-1)
REM options -cpp -mtune=generic -march=x86-64 -g -O0 -fpre-include=/usr/include/finclude/math-vector-fortran.h
REM seed -1427129317 1253301010 -1357970256 1941461237 -1361846050 -1746313650 -1269295938 -2037448608 -1168769916 269389694 -82906953 -1206287345 1027960604 -141170942 1471259183 -1039132178 1793535350 -1843218802 173246444 1858479223 -819356531 -1468691840 -1034062144 648983989 -443669198 -919217277 -1397475166 -287174337 1930278177 1971538090 816569766 -240229838 1750974530
REM
CELL 1.54180   50.00000   50.00000   50.00000   90.00000   90.00000   90.00000
LATT -1
SFAC C  
C      1  0.4472370000000  0.5340570000000  0.5215020000000 1.0
C      1  0.4859110000000  0.3953460000000  0.5521940000000 1.0
C      1  0.5036900000000  0.4582090000000  0.4131720000000 1.0
C      1  0.5491570000000  0.5385950000000  0.4937840000000 1.0
C      1  0.5599040000000  0.4770870000000  0.5328250000000 1.0
C      1  0.5862820000000  0.5682400000000  0.5586000000000 1.0
C      1  0.5814610000000  0.5314290000000  0.4365870000000 1.0
C      1  0.4485690000000  0.4543330000000  0.4734670000000 1.0
C      1  0.4736330000000  0.5065360000000  0.5535370000000 1.0
C      1  0.5608480000000  0.4869290000000  0.4942470000000 1.0
C      1  0.5654790000000  0.4557340000000  0.5757870000000 1.0
C      1  0.4985700000000  0.4544410000000  0.5897000000000 1.0
C      1  0.5481260000000  0.5662400000000  0.4758980000000 1.0
C      1  0.5395840000000  0.5290020000000  0.5573420000000 1.0
C      1  0.4433480000000  0.5017050000000  0.5136750000000 1.0
C      1  0.4876850000000  0.5354790000000  0.5522810000000 1.0
C      1  0.5715200000000  0.4936200000000  0.4287940000000 1.0
C      1  0.4791780000000  0.4907630000000  0.5269730000000 1.0
C      1  0.4893720000000  0.5109790000000  0.4069900000000 1.0
C      1  0.5506270000000  0.4795320000000  0.5815690000000 1.0
C      1  0.4995650000000  0.6139940000000  0.5137700000000 1.0
C      1  0.3996360000000  0.4705580000000  0.4564130000000 1.0
C      1  0.5208910000000  0.6228420000000  0.4369900000000 1.0
C      1  0.5445970000000  0.4181970000000  0.4914590000000 1.0
C      1  0.5559540000000  0.5633730000000  0.5692860000000 1.0
C      1  0.5139520000000  0.4290880000000  0.5793480000000 1.0
C      1  0.5116280000000  0.5365010000000  0.5750960000000 1.0
C      1  0.5224610000000  0.5985470000000  0.4446380000000 1.0
C      1  0.4498360000000  0.5604510000000  0.4918660000000 1.0
C      1  0.5202140000000  0.5102880000000  0.4900970000000 1.0
C      1  0.5196040000000  0.4520010000000  0.5560200000000 1.0
C      1  0.5681760000000  0.4469510000000  0.5260060000000 1.0
C      1  0.4029380000000  0.4922680000000  0.4824740000000 1.0
C      1  0.4806370000000  0.4598000000000  0.5579270000000 1.0
C      1  0.4410340000000  0.4329500000000  0.5574310000000 1.0
C      1  0.5331710000000  0.4805110000000  0.4781810000000 1.0
C      1  0.5479320000000  0.5167780000000  0.4715550000000 1.0
C      1  0.5552460000000  0.5280400000000  0.4423620000000 1.0
C      1  0.5043920000000  0.4817120000000  0.5612970000000 1.0
C      1  0.5224950000000  0.4012850000000  0.4796890000000 1.0
C      1  0.4274940000000  0.4824680000000  0.4528800000000 1.0
C      1  0.5103560000000  0.5360260000000  0.5030200000000 1.0
C      1  0.4479810000000  0.5680450000000  0.5217210000000 1.0
C      1  0.5802980000000  0.4989120000000  0.5429430000000 1.0
C      1  0.5991460000000  0.5075560000000  0.4431160000000 1.0
C      1  0.5322210000000  0.4889500000000  0.5216880000000 1.0
C      1  0.4218480000000  0.5441790000000  0.4862120000000 1.0
C      1  0.5356320000000  0.4583020000000  0.4203980000000 1.0
C      1  0.5038400000000  0.4839570000000  0.5045280000000 1.0
C      1  0.4293470000000  0.5546550000000  0.4545970000000 1.0
C      1  0.4212650000000  0.5389820000000  0.5401230000000 1.0
C      1  0.5027850000000  0.4689620000000  0.4737260000000 1.0
C      1  0.4782200000000  0.4436210000000  0.4317870000000 1.0
C      1  0.5814750000000  0.5424340000000  0.5055230000000 1.0
C      1  0.4260980000000  0.5253470000000  0.5646970000000 1.0
C      1  0.5204680000000  0.4401620000000  0.5282620000000 1.0
C      1  0.5496900000000  0.4873140000000  0.4108680000000 1.0
C      1  0.5399820000000  0.4180090000000  0.5611020000000 1.0
C      1  0.5327040000000  0.4807230000000  0.4463000000000 1.0
C      1  0.4865500000000  0.4882040000000  0.4562030000000 1.0
C      1  0.4688990000000  0.4622630000000  0.5199420000000 1.0
C      1  0.5654480000000  0.5281410000000  0.5377490000000 1.0
C      1  0.4628850000000  0.5778730000000  0.5437290000000 1.0
C      1  0.5157160000000  0.5504530000000  0.4312080000000 1.0
C      1  0.4711790000000  0.4941630000000  0.5845560000000 1.0
C      1  0.5270350000000  0.5640990000000  0.5718390000000 1.0
C      1  0.5172520000000  0.5860770000000  0.5048620000000 1.0
C      1  0.5277820000000  0.4219760000000  0.4556500000000 1.0
C      1  0.4848820000000  0.5772700000000  0.5104290000000 1.0
C      1  0.5759280000000  0.5672900000000  0.4884550000000 1.0
C      1  0.5139720000000  0.5335040000000  0.5352970000000 1.0
C      1  0.5568290000000  0.4567630000000  0.4446520000000 1.0
C      1  0.5836570000000  0.4652520000000  0.5031310000000 1.0
C      1  0.4372870000000  0.4525530000000  0.5151990000000 1.0
C      1  0.4263040000000  0.5258370000000  0.4363380000000 1.0
C      1  0.4221960000000  0.4645250000000  0.4878760000000 1.0
C      1  0.4974360000000  0.3943190000000  0.4853540000000 1.0
C      1  0.4907290000000  0.5929210000000  0.5391870000000 1.0
C      1  0.4656230000000  0.4687470000000  0.4166600000000 1.0
C      1  0.4742860000000  0.5120800000000  0.5026970000000 1.0
C      1  0.4826870000000  0.4888550000000  0.4278010000000 1.0
C      1  0.5430380000000  0.4325880000000  0.5150360000000 1.0
C      1  0.5140790000000  0.5020740000000  0.5427560000000 1.0
C      1  0.5930680000000  0.5154750000000  0.5171100000000 1.0
C      1  0.4771620000000  0.4138400000000  0.5263790000000 1.0
C      1  0.5232430000000  0.4760010000000  0.5875980000000 1.0
C      1  0.5611350000000  0.5746790000000  0.5388150000000 1.0
C      1  0.4557890000000  0.4095510000000  0.5509940000000 1.0
C      1  0.4542620000000  0.5427530000000  0.4344990000000 1.0
C      1  0.5773050000000  0.4593910000000  0.4709810000000 1.0
C      1  0.4713930000000  0.5080380000000  0.4718630000000 1.0
C      1  0.5110080000000  0.4005360000000  0.5628710000000 1.0
C      1  0.4197260000000  0.4987460000000  0.5631710000000 1.0
C      1  0.4413210000000  0.4802290000000  0.4083250000000 1.0
C      1  0.5243480000000  0.5693350000000  0.4538340000000 1.0
C      1  0.5014060000000  0.5237050000000  0.4453580000000 1.0
C      1  0.5292590000000  0.5090110000000  0.4374300000000 1.0
C      1  0.4894800000000  0.4408920000000  0.5322990000000 1.0
C      1  0.4304670000000  0.4262260000000  0.4954150000000 1.0
C      1  0.5679270000000  0.4910580000000  0.4615640000000 1.0
C      1  0.4493830000000  0.4148380000000  0.4776600000000 1.0
C      1  0.4422720000000  0.4978960000000  0.4797030000000 1.0
C      1  0.5577690000000  0.4325600000000  0.4663260000000 1.0
C      1  0.5158320000000  0.4892890000000  0.4055010000000 1.0
C      1  0.5087820000000  0.5629460000000  0.4822060000000 1.0
C      1  0.4323270000000  0.5852300000000  0.4565700000000 1.0
C      1  0.4842670000000  0.5228660000000  0.5896130000000 1.0
C      1  0.5128340000000  0.4283710000000  0.4270200000000 1.0
C      1  0.4493140000000  0.5984670000000  0.4728690000000 1.0
C      1  0.4755170000000  0.5578940000000  0.4769530000000 1.0
C      1  0.5999410000000  0.4944400000000  0.4964620000000 1.0
C      1  0.4293650000000  0.4965200000000  0.4279720000000 1.0
C      1  0.4789500000000  0.5440150000000  0.5137940000000 1.0
C      1  0.4556060000000  0.4327260000000  0.4517620000000 1.0
C      1  0.4081970000000  0.5326650000000  0.5133500000000 1.0
C      1  0.4695780000000  0.4456100000000  0.4928110000000 1.0
C      1  0.4666410000000  0.5572390000000  0.5623690000000 1.0
C      1  0.5573140000000  0.5026550000000  0.5667540000000 1.0
C      1  0.4547370000000  0.5285390000000  0.5732190000000 1.0
C      1  0.6058530000000  0.5003290000000  0.4701860000000 1.0
C      1  0.5192510000000  0.5238450000000  0.4097540000000 1.0
C      1  0.5537000000000  0.5121660000000  0.5117670000000 1.0
C      1  0.5356430000000  0.5813310000000  0.5288420000000 1.0
C      1  0.4680460000000  0.5959250000000  0.4917730000000 1.0
C      1  0.5028310000000  0.4447310000000  0.4555780000000 1.0
C      1  0.4504150000000  0.4590860000000  0.5551590000000 1.0
C      1  0.4738620000000  0.5348750000000  0.4580280000000 1.0
C      1  0.4351800000000  0.4827890000000  0.5410310000000 1.0
C      1  0.4754300000000  0.4121000000000  0.4959750000000 1.0
C      1  0.5163790000000  0.5810360000000  0.5512730000000 1.0
C      1  0.4189320000000  0.5184550000000  0.4677210000000 1.0
C      1  0.3983030000000  0.5055460000000  0.5109210000000 1.0
C      1  0.4128260000000  0.4766030000000  0.5178260000000 1.0
C      1  0.4733340000000  0.4699130000000  0.5958550000000 1.0
C      1  0.5614790000000  0.4355630000000  0.5557820000000 1.0
C      1  0.4845440000000  0.5406540000000  0.4201840000000 1.0
END
