TITL C-2778422-5617-1193 -0.00166005837778496 125000 -237.622503058116 0 0 43 (C1) n - 1
REM
REM in /home/nfs/bkarasulu/CARBON/AIRSS/Generating-Clusters/REBO/Only-C1/SD-CG/HFTN-CG
REM
REM
REM
REM
REM
REM ./C.cell (11c1c37f851c82e70ff6c80c92926a4b)
REM
REM compiler GCC version 9.2.1 20190827 (Red Hat 9.2.1-1)
REM options -cpp -mtune=generic -march=x86-64 -g -O0 -fpre-include=/usr/include/finclude/math-vector-fortran.h
REM seed 1196722253 -1275232540 1247784168 2052360729 614198167 -672851191 -1256624879 -555891674 1042893462 1426971571 -258222017 1716062791 -164055723 1191655348 -1838365621 1731126504 -994716669 -79377907 -234425437 -552503758 -473277249 1409763869 314435484 -1605633616 -127832261 -1030257532 -540751106 837315035 1938071952 -612463576 -333846931 -262483673 -2031321185
REM
CELL 1.54180   50.00000   50.00000   50.00000   90.00000   90.00000   90.00000
LATT -1
SFAC C  
C      1  0.4679860000000  0.5473210000000  0.5489470000000 1.0
C      1  0.4578710000000  0.4615410000000  0.5055210000000 1.0
C      1  0.4966730000000  0.5113990000000  0.4997800000000 1.0
C      1  0.4772040000000  0.5582600000000  0.5030840000000 1.0
C      1  0.5005890000000  0.5281320000000  0.5365070000000 1.0
C      1  0.5348690000000  0.4605260000000  0.4557130000000 1.0
C      1  0.4928080000000  0.5609050000000  0.5312410000000 1.0
C      1  0.5358220000000  0.5092430000000  0.5377440000000 1.0
C      1  0.5137170000000  0.5126490000000  0.4593380000000 1.0
C      1  0.5121390000000  0.5443860000000  0.4683020000000 1.0
C      1  0.4719890000000  0.4915260000000  0.5122240000000 1.0
C      1  0.4901460000000  0.4566750000000  0.5049310000000 1.0
C      1  0.5379590000000  0.4914100000000  0.5129340000000 1.0
C      1  0.5213800000000  0.5688830000000  0.5159990000000 1.0
C      1  0.4558800000000  0.5392040000000  0.5048470000000 1.0
C      1  0.4456500000000  0.4973160000000  0.4939640000000 1.0
C      1  0.4878710000000  0.4894240000000  0.4244230000000 1.0
C      1  0.5547220000000  0.5044390000000  0.4915840000000 1.0
C      1  0.4531820000000  0.5273380000000  0.5329720000000 1.0
C      1  0.5340420000000  0.5241020000000  0.5584150000000 1.0
C      1  0.4989620000000  0.4804380000000  0.5558400000000 1.0
C      1  0.4934300000000  0.5591160000000  0.4800730000000 1.0
C      1  0.5247330000000  0.4563330000000  0.4313870000000 1.0
C      1  0.5247070000000  0.4861610000000  0.4727020000000 1.0
C      1  0.5082610000000  0.4804370000000  0.5001130000000 1.0
C      1  0.4499650000000  0.5227860000000  0.4813640000000 1.0
C      1  0.5393280000000  0.4577200000000  0.4893680000000 1.0
C      1  0.5134010000000  0.5364770000000  0.5074460000000 1.0
C      1  0.4647930000000  0.5212760000000  0.4570130000000 1.0
C      1  0.5395010000000  0.5546150000000  0.4952680000000 1.0
C      1  0.5229160000000  0.4317710000000  0.4808080000000 1.0
C      1  0.4637150000000  0.4753540000000  0.5497600000000 1.0
C      1  0.4353820000000  0.4492220000000  0.5028210000000 1.0
C      1  0.4504300000000  0.5004800000000  0.5445190000000 1.0
C      1  0.4990620000000  0.4316070000000  0.4893910000000 1.0
C      1  0.4871670000000  0.5086170000000  0.4449230000000 1.0
C      1  0.5136180000000  0.4563240000000  0.5405960000000 1.0
C      1  0.4806160000000  0.4520230000000  0.5365140000000 1.0
C      1  0.5347080000000  0.4599930000000  0.5216970000000 1.0
C      1  0.4900760000000  0.5025940000000  0.5379950000000 1.0
C      1  0.5795280000000  0.4977540000000  0.4859320000000 1.0
C      1  0.5392320000000  0.5259580000000  0.4778100000000 1.0
C      1  0.5039740000000  0.4682620000000  0.4181900000000 1.0
END
