TITL C-2778422-5617-440 0.00142841350369543 125000 -257.186608685391 0 0 44 (C1) n - 1
REM
REM in /home/nfs/bkarasulu/CARBON/AIRSS/Generating-Clusters/REBO/Only-C1/SD-CG/HFTN-CG
REM
REM
REM
REM
REM
REM ./C.cell (11c1c37f851c82e70ff6c80c92926a4b)
REM
REM compiler GCC version 9.2.1 20190827 (Red Hat 9.2.1-1)
REM options -cpp -mtune=generic -march=x86-64 -g -O0 -fpre-include=/usr/include/finclude/math-vector-fortran.h
REM seed -1526053179 -1787230659 -1223464645 -815688926 -453598567 -1760990334 253384106 -1692136888 1352426252 -215473419 22166211 -1679995169 -1001007293 2057454930 1734328275 1584572133 84747905 1613701701 1323270922 733838611 1656861698 896046921 1053480732 1549470260 -385959572 1866439585 -1640246021 -1891317122 1595616222 498482173 1605920579 -1479070236 -78867653
REM
CELL 1.54180   50.00000   50.00000   50.00000   90.00000   90.00000   90.00000
LATT -1
SFAC C  
C      1  0.5491320000000  0.5168640000000  0.5273420000000 1.0
C      1  0.5420580000000  0.5643410000000  0.5064700000000 1.0
C      1  0.5537580000000  0.5418680000000  0.5176960000000 1.0
C      1  0.4759040000000  0.4756640000000  0.4731720000000 1.0
C      1  0.4830130000000  0.4498640000000  0.5616060000000 1.0
C      1  0.4600300000000  0.4576470000000  0.5179290000000 1.0
C      1  0.5583110000000  0.4513920000000  0.5217810000000 1.0
C      1  0.5134590000000  0.5634810000000  0.5021730000000 1.0
C      1  0.4800870000000  0.5015130000000  0.5633470000000 1.0
C      1  0.4609100000000  0.5003150000000  0.4728690000000 1.0
C      1  0.5108320000000  0.4543850000000  0.5051130000000 1.0
C      1  0.4208740000000  0.5201260000000  0.4949060000000 1.0
C      1  0.5029030000000  0.5093460000000  0.4079450000000 1.0
C      1  0.5014290000000  0.5704130000000  0.5592740000000 1.0
C      1  0.4870800000000  0.4975180000000  0.5154460000000 1.0
C      1  0.4666760000000  0.5016880000000  0.5379260000000 1.0
C      1  0.5345050000000  0.5272140000000  0.4661100000000 1.0
C      1  0.4721920000000  0.5228380000000  0.4585760000000 1.0
C      1  0.4848930000000  0.4700430000000  0.5020010000000 1.0
C      1  0.4779990000000  0.5484650000000  0.4702820000000 1.0
C      1  0.4489080000000  0.4860950000000  0.5184140000000 1.0
C      1  0.5300960000000  0.4875080000000  0.4543620000000 1.0
C      1  0.5241360000000  0.5513450000000  0.4578880000000 1.0
C      1  0.5035060000000  0.5424750000000  0.5193680000000 1.0
C      1  0.5015130000000  0.4351920000000  0.4574750000000 1.0
C      1  0.5026560000000  0.5457980000000  0.5477440000000 1.0
C      1  0.5151770000000  0.5001440000000  0.4364400000000 1.0
C      1  0.5467230000000  0.4615340000000  0.4618400000000 1.0
C      1  0.5185540000000  0.4938850000000  0.5572320000000 1.0
C      1  0.4956830000000  0.4740660000000  0.5678780000000 1.0
C      1  0.4827280000000  0.4560380000000  0.4542190000000 1.0
C      1  0.5040260000000  0.5219030000000  0.5633740000000 1.0
C      1  0.5056630000000  0.5163780000000  0.5071290000000 1.0
C      1  0.4418780000000  0.5017970000000  0.4945890000000 1.0
C      1  0.5340280000000  0.4362210000000  0.4616800000000 1.0
C      1  0.4868840000000  0.5165110000000  0.4352160000000 1.0
C      1  0.5034010000000  0.5614060000000  0.4748730000000 1.0
C      1  0.5376630000000  0.4815210000000  0.4871290000000 1.0
C      1  0.5144160000000  0.4324370000000  0.4871480000000 1.0
C      1  0.4011300000000  0.5373560000000  0.4952040000000 1.0
C      1  0.5374630000000  0.4693160000000  0.5156490000000 1.0
C      1  0.5253890000000  0.5103020000000  0.4868840000000 1.0
C      1  0.4662340000000  0.4428200000000  0.5410650000000 1.0
C      1  0.5361030000000  0.4929650000000  0.5352390000000 1.0
END
