TITL C-2778428-5639-1039 0.000384489042159015 125000 -378.0372492623 0 0 65 (C1) n - 1
REM
REM in /home/nfs/bkarasulu/CARBON/AIRSS/Generating-Clusters/REBO/Only-C1/SD-CG/HFTN-CG
REM
REM
REM
REM
REM
REM ./C.cell (11c1c37f851c82e70ff6c80c92926a4b)
REM
REM compiler GCC version 9.2.1 20190827 (Red Hat 9.2.1-1)
REM options -cpp -mtune=generic -march=x86-64 -g -O0 -fpre-include=/usr/include/finclude/math-vector-fortran.h
REM seed 1029922314 1213957038 -1449076257 -217848749 -678510353 339977978 -831439328 -2030341560 1144081569 1973547068 -225333398 -22679207 1682001772 -1902435190 1273331899 -880574240 1874811535 1000405049 -1154360925 2004835377 1208458239 -517631583 -535235761 -1090358403 -1909006086 328268354 372061741 -909544190 -146157528 -473938955 510122777 -1909967065 1655711758
REM
CELL 1.54180   50.00000   50.00000   50.00000   90.00000   90.00000   90.00000
LATT -1
SFAC C  
C      1  0.5649030000000  0.4663920000000  0.5138760000000 1.0
C      1  0.4523920000000  0.5082110000000  0.5194610000000 1.0
C      1  0.5468240000000  0.5430060000000  0.5570130000000 1.0
C      1  0.5126770000000  0.4732010000000  0.4884890000000 1.0
C      1  0.4848530000000  0.5223220000000  0.4699000000000 1.0
C      1  0.4514110000000  0.4695550000000  0.5293470000000 1.0
C      1  0.4625850000000  0.4273320000000  0.4825010000000 1.0
C      1  0.4629240000000  0.5011530000000  0.4948320000000 1.0
C      1  0.5474030000000  0.5215390000000  0.4350230000000 1.0
C      1  0.5601970000000  0.4884130000000  0.5399050000000 1.0
C      1  0.4647730000000  0.4403850000000  0.5530390000000 1.0
C      1  0.5158190000000  0.4393010000000  0.4548910000000 1.0
C      1  0.4851960000000  0.4275890000000  0.4993610000000 1.0
C      1  0.4700820000000  0.5503200000000  0.4461340000000 1.0
C      1  0.4628650000000  0.5009870000000  0.5511610000000 1.0
C      1  0.5272060000000  0.4523350000000  0.5372960000000 1.0
C      1  0.5189030000000  0.5199940000000  0.4892430000000 1.0
C      1  0.4961670000000  0.5303270000000  0.4382190000000 1.0
C      1  0.5072570000000  0.5176570000000  0.5773470000000 1.0
C      1  0.4436610000000  0.4427550000000  0.4687230000000 1.0
C      1  0.5803250000000  0.5145070000000  0.5172610000000 1.0
C      1  0.5213110000000  0.5644740000000  0.4736110000000 1.0
C      1  0.4795000000000  0.4702210000000  0.5218280000000 1.0
C      1  0.4454010000000  0.5089570000000  0.4695070000000 1.0
C      1  0.5304540000000  0.5328790000000  0.5782400000000 1.0
C      1  0.5605010000000  0.4982500000000  0.4754500000000 1.0
C      1  0.4297200000000  0.4733790000000  0.5129830000000 1.0
C      1  0.4857590000000  0.5799850000000  0.5021420000000 1.0
C      1  0.5354410000000  0.4623290000000  0.4465440000000 1.0
C      1  0.5404740000000  0.4784340000000  0.4698230000000 1.0
C      1  0.5007520000000  0.5601080000000  0.4541170000000 1.0
C      1  0.4725150000000  0.4533740000000  0.4280230000000 1.0
C      1  0.4827510000000  0.5594590000000  0.5555140000000 1.0
C      1  0.4617570000000  0.5540160000000  0.5367490000000 1.0
C      1  0.5374730000000  0.5404790000000  0.4789880000000 1.0
C      1  0.4893130000000  0.5308690000000  0.5022040000000 1.0
C      1  0.5113630000000  0.4394430000000  0.4866450000000 1.0
C      1  0.4492430000000  0.5364330000000  0.4566770000000 1.0
C      1  0.5307130000000  0.5784530000000  0.5204840000000 1.0
C      1  0.5065710000000  0.5468800000000  0.5494920000000 1.0
C      1  0.5580230000000  0.5216380000000  0.5397760000000 1.0
C      1  0.4545230000000  0.4693330000000  0.5604480000000 1.0
C      1  0.4214480000000  0.4920390000000  0.4860820000000 1.0
C      1  0.5450990000000  0.4657300000000  0.5531580000000 1.0
C      1  0.4994050000000  0.4544180000000  0.5390220000000 1.0
C      1  0.4499160000000  0.4566300000000  0.4431910000000 1.0
C      1  0.5354840000000  0.4822250000000  0.5092290000000 1.0
C      1  0.4731010000000  0.5557550000000  0.5100510000000 1.0
C      1  0.4473110000000  0.5297640000000  0.5414200000000 1.0
C      1  0.5101280000000  0.5035680000000  0.4637750000000 1.0
C      1  0.5201450000000  0.4780030000000  0.4243470000000 1.0
C      1  0.5740810000000  0.4942390000000  0.4998290000000 1.0
C      1  0.4338860000000  0.4796560000000  0.4567860000000 1.0
C      1  0.5140330000000  0.5794600000000  0.4974370000000 1.0
C      1  0.4921530000000  0.5101740000000  0.5556410000000 1.0
C      1  0.4855000000000  0.4836610000000  0.4975160000000 1.0
C      1  0.5063780000000  0.5208640000000  0.5284120000000 1.0
C      1  0.5370810000000  0.4477390000000  0.5069370000000 1.0
C      1  0.5407460000000  0.5667440000000  0.5428570000000 1.0
C      1  0.4812260000000  0.4308210000000  0.5278760000000 1.0
C      1  0.4229190000000  0.4583500000000  0.4844230000000 1.0
C      1  0.5327160000000  0.5077010000000  0.5245410000000 1.0
C      1  0.5190190000000  0.5079230000000  0.4323110000000 1.0
C      1  0.5002680000000  0.4536300000000  0.4303650000000 1.0
C      1  0.5559790000000  0.5242310000000  0.4625230000000 1.0
END
