TITL C-2778427-5640-803 0.00217500719501087 125000 -630.017324783595 0 0 110 (C1) n - 1
REM
REM in /home/nfs/bkarasulu/CARBON/AIRSS/Generating-Clusters/REBO/Only-C1/SD-CG/HFTN-CG
REM
REM
REM
REM
REM
REM ./C.cell (11c1c37f851c82e70ff6c80c92926a4b)
REM
REM compiler GCC version 9.2.1 20190827 (Red Hat 9.2.1-1)
REM options -cpp -mtune=generic -march=x86-64 -g -O0 -fpre-include=/usr/include/finclude/math-vector-fortran.h
REM seed -557738936 -489624513 731125286 -1046848885 -375103017 -1209970866 -212358424 -76925363 -1182475977 1036044878 -893513279 1674275985 -1222638151 -2047703291 -630276181 -341478396 -79854509 630563351 39947832 -1853679502 802784960 997163195 393364194 -852729418 972968839 518107161 -1004487 1303551122 -1927541588 2021846219 724648664 -1227982681 -909587242
REM
CELL 1.54180   50.00000   50.00000   50.00000   90.00000   90.00000   90.00000
LATT -1
SFAC C  
C      1  0.4490390000000  0.4937010000000  0.5683870000000 1.0
C      1  0.5591150000000  0.5552840000000  0.4731950000000 1.0
C      1  0.5187200000000  0.5039800000000  0.5958140000000 1.0
C      1  0.4150870000000  0.5257950000000  0.5094850000000 1.0
C      1  0.5864990000000  0.5126280000000  0.5391180000000 1.0
C      1  0.4720820000000  0.4940580000000  0.4587280000000 1.0
C      1  0.5272080000000  0.4286710000000  0.4467900000000 1.0
C      1  0.4180930000000  0.4912730000000  0.5328200000000 1.0
C      1  0.5010560000000  0.5499040000000  0.5853750000000 1.0
C      1  0.5835680000000  0.4826790000000  0.5106540000000 1.0
C      1  0.5369940000000  0.4195760000000  0.5232790000000 1.0
C      1  0.5294390000000  0.4607520000000  0.4865300000000 1.0
C      1  0.5633250000000  0.5249440000000  0.4680770000000 1.0
C      1  0.4785900000000  0.5358410000000  0.4566640000000 1.0
C      1  0.4733270000000  0.4473090000000  0.4250200000000 1.0
C      1  0.5378840000000  0.4732810000000  0.5134830000000 1.0
C      1  0.5412860000000  0.5045490000000  0.5801680000000 1.0
C      1  0.4678270000000  0.4691210000000  0.5156440000000 1.0
C      1  0.4715680000000  0.4138540000000  0.4976220000000 1.0
C      1  0.5400970000000  0.5058540000000  0.5179990000000 1.0
C      1  0.5243120000000  0.4714560000000  0.4152400000000 1.0
C      1  0.4440470000000  0.4821940000000  0.4167690000000 1.0
C      1  0.5775430000000  0.5467300000000  0.5005910000000 1.0
C      1  0.4594780000000  0.5456150000000  0.4344100000000 1.0
C      1  0.4884130000000  0.4248650000000  0.5395350000000 1.0
C      1  0.4940510000000  0.5077590000000  0.5533060000000 1.0
C      1  0.4956070000000  0.3953530000000  0.4997910000000 1.0
C      1  0.5141330000000  0.5236510000000  0.5308790000000 1.0
C      1  0.5229930000000  0.5412720000000  0.4475740000000 1.0
C      1  0.5242890000000  0.6208270000000  0.4645280000000 1.0
C      1  0.4580030000000  0.4394620000000  0.4802300000000 1.0
C      1  0.4343500000000  0.5323860000000  0.4815810000000 1.0
C      1  0.4511250000000  0.4605940000000  0.4337650000000 1.0
C      1  0.5509040000000  0.5342810000000  0.5704670000000 1.0
C      1  0.4703890000000  0.5384300000000  0.5435120000000 1.0
C      1  0.4458400000000  0.5312840000000  0.5198570000000 1.0
C      1  0.5613070000000  0.5111340000000  0.4936080000000 1.0
C      1  0.4893480000000  0.5086420000000  0.4834790000000 1.0
C      1  0.5373240000000  0.5203370000000  0.4285600000000 1.0
C      1  0.5040100000000  0.4878130000000  0.4492010000000 1.0
C      1  0.4639640000000  0.5042200000000  0.4126500000000 1.0
C      1  0.5209140000000  0.5001590000000  0.4151160000000 1.0
C      1  0.4723970000000  0.4823290000000  0.5467910000000 1.0
C      1  0.4202220000000  0.5572330000000  0.5001600000000 1.0
C      1  0.4980380000000  0.4644470000000  0.5601830000000 1.0
C      1  0.4640360000000  0.5813980000000  0.5375110000000 1.0
C      1  0.5033660000000  0.5760990000000  0.4452470000000 1.0
C      1  0.5346480000000  0.4334730000000  0.5504780000000 1.0
C      1  0.5001160000000  0.5194400000000  0.4431960000000 1.0
C      1  0.5902570000000  0.5159560000000  0.5078210000000 1.0
C      1  0.5146520000000  0.5862110000000  0.4996750000000 1.0
C      1  0.4403410000000  0.4492960000000  0.5379810000000 1.0
C      1  0.4405140000000  0.4610390000000  0.4631510000000 1.0
C      1  0.4902970000000  0.5886340000000  0.5166430000000 1.0
C      1  0.4977940000000  0.5401160000000  0.5066460000000 1.0
C      1  0.4500510000000  0.5132560000000  0.4411600000000 1.0
C      1  0.4404640000000  0.5267220000000  0.5662710000000 1.0
C      1  0.4822430000000  0.4423940000000  0.5118990000000 1.0
C      1  0.5368680000000  0.5663210000000  0.5193660000000 1.0
C      1  0.5838600000000  0.4385640000000  0.4812980000000 1.0
C      1  0.4200430000000  0.4863920000000  0.5053410000000 1.0
C      1  0.5548920000000  0.4494640000000  0.4672370000000 1.0
C      1  0.5066200000000  0.4378530000000  0.5568010000000 1.0
C      1  0.4806960000000  0.5681770000000  0.4335370000000 1.0
C      1  0.5513940000000  0.4457410000000  0.5163560000000 1.0
C      1  0.5187710000000  0.4239730000000  0.4751250000000 1.0
C      1  0.4799570000000  0.4621590000000  0.4678800000000 1.0
C      1  0.5598250000000  0.5111240000000  0.4436300000000 1.0
C      1  0.5193700000000  0.5938470000000  0.4694660000000 1.0
C      1  0.5657230000000  0.5585840000000  0.5245670000000 1.0
C      1  0.4914640000000  0.5083590000000  0.4136540000000 1.0
C      1  0.4591540000000  0.4237770000000  0.5387350000000 1.0
C      1  0.4429370000000  0.4727780000000  0.4953540000000 1.0
C      1  0.4911310000000  0.4917460000000  0.5129980000000 1.0
C      1  0.5306060000000  0.4806100000000  0.4629460000000 1.0
C      1  0.4938110000000  0.5701960000000  0.5406730000000 1.0
C      1  0.5796570000000  0.4485520000000  0.5106570000000 1.0
C      1  0.5444740000000  0.4552860000000  0.4353790000000 1.0
C      1  0.5573800000000  0.4506230000000  0.5555380000000 1.0
C      1  0.5184110000000  0.5541570000000  0.5405550000000 1.0
C      1  0.4251110000000  0.5130000000000  0.4581990000000 1.0
C      1  0.4951240000000  0.5106020000000  0.5846210000000 1.0
C      1  0.5047440000000  0.4539360000000  0.4485730000000 1.0
C      1  0.5587020000000  0.5131810000000  0.5456300000000 1.0
C      1  0.5362230000000  0.5699900000000  0.4528060000000 1.0
C      1  0.4394000000000  0.5705740000000  0.5189550000000 1.0
C      1  0.4729380000000  0.5336370000000  0.5752860000000 1.0
C      1  0.5782290000000  0.4716680000000  0.4789020000000 1.0
C      1  0.5565880000000  0.4837620000000  0.4475010000000 1.0
C      1  0.5404070000000  0.4865900000000  0.5528220000000 1.0
C      1  0.4648860000000  0.5328180000000  0.4841200000000 1.0
C      1  0.4335780000000  0.4733330000000  0.5484260000000 1.0
C      1  0.5713860000000  0.5507380000000  0.5504370000000 1.0
C      1  0.5681640000000  0.4735160000000  0.5395630000000 1.0
C      1  0.4172890000000  0.4813630000000  0.4657610000000 1.0
C      1  0.5312560000000  0.5559200000000  0.4896440000000 1.0
C      1  0.5117380000000  0.5335030000000  0.4786120000000 1.0
C      1  0.4155000000000  0.5168880000000  0.5465520000000 1.0
C      1  0.5021220000000  0.4458700000000  0.4876560000000 1.0
C      1  0.4677580000000  0.5553400000000  0.5075140000000 1.0
C      1  0.5121070000000  0.4846470000000  0.5390490000000 1.0
C      1  0.4441180000000  0.4307680000000  0.5095930000000 1.0
C      1  0.4522230000000  0.4844520000000  0.5971720000000 1.0
C      1  0.4432870000000  0.5570700000000  0.5501790000000 1.0
C      1  0.5005700000000  0.4271920000000  0.4270440000000 1.0
C      1  0.5197510000000  0.4018340000000  0.5104590000000 1.0
C      1  0.4049060000000  0.5058010000000  0.4850020000000 1.0
C      1  0.5012680000000  0.4556450000000  0.4089070000000 1.0
C      1  0.5246880000000  0.5501420000000  0.5701190000000 1.0
C      1  0.4763140000000  0.5183800000000  0.5194910000000 1.0
END
