TITL C-2778428-5639-1179 0.00162856319781426 125000 -700.810578240388 0 0 121 (C1) n - 1
REM
REM in /home/nfs/bkarasulu/CARBON/AIRSS/Generating-Clusters/REBO/Only-C1/SD-CG/HFTN-CG
REM
REM
REM
REM
REM
REM ./C.cell (11c1c37f851c82e70ff6c80c92926a4b)
REM
REM compiler GCC version 9.2.1 20190827 (Red Hat 9.2.1-1)
REM options -cpp -mtune=generic -march=x86-64 -g -O0 -fpre-include=/usr/include/finclude/math-vector-fortran.h
REM seed -156562831 -1957259425 -1335203391 -119940789 703418355 253757089 1976630278 -412121662 -2047064363 1653596998 -1410245722 918995400 -714733708 -1961156544 -512604748 -140696297 -2024323203 515199913 -1715857557 -468075588 -439349842 -1250091211 -1092216324 1453745802 -1471970036 71725387 1230031174 78077426 53262464 -1554495001 243723815 -1234922111 -1313435242
REM
CELL 1.54180   50.00000   50.00000   50.00000   90.00000   90.00000   90.00000
LATT -1
SFAC C  
C      1  0.5297790000000  0.4703440000000  0.4489460000000 1.0
C      1  0.5272900000000  0.4008780000000  0.4695640000000 1.0
C      1  0.5735640000000  0.5094390000000  0.3932860000000 1.0
C      1  0.5133000000000  0.5670320000000  0.5307920000000 1.0
C      1  0.5147850000000  0.4886200000000  0.4024260000000 1.0
C      1  0.4853240000000  0.5470370000000  0.5787280000000 1.0
C      1  0.5304730000000  0.4607240000000  0.5103300000000 1.0
C      1  0.4931110000000  0.4896240000000  0.4839080000000 1.0
C      1  0.4677010000000  0.5433250000000  0.5187120000000 1.0
C      1  0.5097380000000  0.4472690000000  0.4571940000000 1.0
C      1  0.4577890000000  0.5238820000000  0.4349310000000 1.0
C      1  0.5036330000000  0.5359220000000  0.4622410000000 1.0
C      1  0.5198980000000  0.5954770000000  0.4910520000000 1.0
C      1  0.5694550000000  0.5358330000000  0.5627180000000 1.0
C      1  0.5945450000000  0.5021680000000  0.5382680000000 1.0
C      1  0.5200030000000  0.4799140000000  0.5663830000000 1.0
C      1  0.5350310000000  0.5125840000000  0.5447580000000 1.0
C      1  0.5520130000000  0.4584820000000  0.5560850000000 1.0
C      1  0.5462960000000  0.5479980000000  0.5701540000000 1.0
C      1  0.5589670000000  0.5425910000000  0.4747850000000 1.0
C      1  0.4925000000000  0.5722010000000  0.4502620000000 1.0
C      1  0.4075810000000  0.5041590000000  0.5139380000000 1.0
C      1  0.5206950000000  0.5261070000000  0.5099740000000 1.0
C      1  0.4683700000000  0.4377640000000  0.5477270000000 1.0
C      1  0.5422450000000  0.4154490000000  0.4875210000000 1.0
C      1  0.4468890000000  0.4722730000000  0.5747720000000 1.0
C      1  0.5104720000000  0.4555740000000  0.4108220000000 1.0
C      1  0.5248440000000  0.4289750000000  0.5094920000000 1.0
C      1  0.4325620000000  0.5806380000000  0.5040930000000 1.0
C      1  0.5770470000000  0.5069390000000  0.5611310000000 1.0
C      1  0.4919800000000  0.5236250000000  0.5258800000000 1.0
C      1  0.5723550000000  0.5045430000000  0.4430430000000 1.0
C      1  0.4868880000000  0.4798260000000  0.4174720000000 1.0
C      1  0.4988600000000  0.5989390000000  0.4704560000000 1.0
C      1  0.6096670000000  0.5550720000000  0.5200770000000 1.0
C      1  0.4807780000000  0.4535760000000  0.5205180000000 1.0
C      1  0.5404300000000  0.4448450000000  0.4205580000000 1.0
C      1  0.4762000000000  0.4192180000000  0.4641740000000 1.0
C      1  0.4779590000000  0.5286260000000  0.5552990000000 1.0
C      1  0.4373960000000  0.4782730000000  0.4229540000000 1.0
C      1  0.5194940000000  0.5422070000000  0.5522730000000 1.0
C      1  0.5542870000000  0.4356920000000  0.4425710000000 1.0
C      1  0.4560770000000  0.4461800000000  0.4708150000000 1.0
C      1  0.5736210000000  0.5294730000000  0.4561650000000 1.0
C      1  0.4414000000000  0.4498220000000  0.4190390000000 1.0
C      1  0.4298340000000  0.4692540000000  0.5487640000000 1.0
C      1  0.5455530000000  0.4673310000000  0.4852030000000 1.0
C      1  0.5814990000000  0.5658820000000  0.5188010000000 1.0
C      1  0.5143750000000  0.5511220000000  0.4348190000000 1.0
C      1  0.4630290000000  0.5510610000000  0.4907700000000 1.0
C      1  0.5309790000000  0.5659990000000  0.4590750000000 1.0
C      1  0.5066960000000  0.4139520000000  0.4576730000000 1.0
C      1  0.4350470000000  0.4752710000000  0.5156030000000 1.0
C      1  0.4763570000000  0.4604020000000  0.4886480000000 1.0
C      1  0.4539410000000  0.4955920000000  0.4787950000000 1.0
C      1  0.4153180000000  0.5124110000000  0.4756950000000 1.0
C      1  0.5164320000000  0.5387180000000  0.4081830000000 1.0
C      1  0.4210240000000  0.5195280000000  0.5588530000000 1.0
C      1  0.4897160000000  0.4220790000000  0.5273190000000 1.0
C      1  0.4168690000000  0.5331800000000  0.5028190000000 1.0
C      1  0.5119370000000  0.5133220000000  0.5693170000000 1.0
C      1  0.5594620000000  0.4381780000000  0.4744220000000 1.0
C      1  0.5308880000000  0.4943330000000  0.4716730000000 1.0
C      1  0.5437950000000  0.5888460000000  0.4559170000000 1.0
C      1  0.5601230000000  0.4840030000000  0.4598600000000 1.0
C      1  0.5520220000000  0.4890250000000  0.5619040000000 1.0
C      1  0.5012840000000  0.4378840000000  0.4890900000000 1.0
C      1  0.4721030000000  0.4517620000000  0.5740600000000 1.0
C      1  0.4548950000000  0.4904390000000  0.5052300000000 1.0
C      1  0.4995600000000  0.4443360000000  0.5839930000000 1.0
C      1  0.4519780000000  0.5927280000000  0.4942070000000 1.0
C      1  0.4599920000000  0.5312770000000  0.5927280000000 1.0
C      1  0.6103050000000  0.5271120000000  0.5310730000000 1.0
C      1  0.5117590000000  0.5142060000000  0.4812100000000 1.0
C      1  0.5180570000000  0.4211370000000  0.5404920000000 1.0
C      1  0.4458790000000  0.5590980000000  0.5480290000000 1.0
C      1  0.4688930000000  0.5766410000000  0.5485240000000 1.0
C      1  0.5779080000000  0.4502160000000  0.5003290000000 1.0
C      1  0.4885310000000  0.4816190000000  0.5746660000000 1.0
C      1  0.5299130000000  0.5495900000000  0.4887500000000 1.0
C      1  0.5213320000000  0.4458840000000  0.5637010000000 1.0
C      1  0.4076070000000  0.4615340000000  0.4763180000000 1.0
C      1  0.6055130000000  0.4829670000000  0.4764530000000 1.0
C      1  0.4988520000000  0.5613460000000  0.4823010000000 1.0
C      1  0.4458640000000  0.5011180000000  0.5879270000000 1.0
C      1  0.4810450000000  0.4935120000000  0.5217570000000 1.0
C      1  0.4348920000000  0.5534940000000  0.5189670000000 1.0
C      1  0.4827840000000  0.5744060000000  0.5732620000000 1.0
C      1  0.4869680000000  0.5774380000000  0.5265580000000 1.0
C      1  0.4386780000000  0.5400360000000  0.5677090000000 1.0
C      1  0.4041240000000  0.4870130000000  0.4874970000000 1.0
C      1  0.4367760000000  0.5248430000000  0.4552330000000 1.0
C      1  0.5882000000000  0.4765530000000  0.4963720000000 1.0
C      1  0.4754930000000  0.4839300000000  0.4564950000000 1.0
C      1  0.4386850000000  0.5438070000000  0.4795250000000 1.0
C      1  0.4864430000000  0.5098870000000  0.5909530000000 1.0
C      1  0.4746370000000  0.5473760000000  0.4353700000000 1.0
C      1  0.4692120000000  0.4811340000000  0.5472030000000 1.0
C      1  0.5584850000000  0.4501170000000  0.5240930000000 1.0
C      1  0.4279850000000  0.4438150000000  0.4832140000000 1.0
C      1  0.5777190000000  0.4960530000000  0.5147820000000 1.0
C      1  0.5314400000000  0.5812210000000  0.5131570000000 1.0
C      1  0.5761240000000  0.5367970000000  0.5313560000000 1.0
C      1  0.5592800000000  0.5811590000000  0.5150270000000 1.0
C      1  0.5645210000000  0.4983210000000  0.4167520000000 1.0
C      1  0.5158800000000  0.5177290000000  0.3954540000000 1.0
C      1  0.4816400000000  0.5858540000000  0.4972560000000 1.0
C      1  0.4603260000000  0.5071790000000  0.5610240000000 1.0
C      1  0.5523390000000  0.5168430000000  0.5184420000000 1.0
C      1  0.4431120000000  0.4324490000000  0.5060590000000 1.0
C      1  0.4857960000000  0.4584700000000  0.4421040000000 1.0
C      1  0.4404660000000  0.4405770000000  0.5338130000000 1.0
C      1  0.4147490000000  0.4982460000000  0.5410340000000 1.0
C      1  0.4616630000000  0.4374150000000  0.4391190000000 1.0
C      1  0.4419570000000  0.4855350000000  0.4518540000000 1.0
C      1  0.4722220000000  0.4217790000000  0.4979720000000 1.0
C      1  0.4095570000000  0.4595240000000  0.5160340000000 1.0
C      1  0.4618820000000  0.4983250000000  0.4199210000000 1.0
C      1  0.5412930000000  0.4789000000000  0.4179590000000 1.0
C      1  0.5050540000000  0.4745530000000  0.5121260000000 1.0
C      1  0.5501580000000  0.4261900000000  0.5450640000000 1.0
END
