TITL C-2778432-5617-582 0.00188589014566557 125000 -1138.35888963823 0 0 198 (C1) n - 1
REM
REM in /home/nfs/bkarasulu/CARBON/AIRSS/Generating-Clusters/REBO/Only-C1/SD-CG/HFTN-CG
REM
REM
REM
REM
REM
REM ./C.cell (11c1c37f851c82e70ff6c80c92926a4b)
REM
REM compiler GCC version 9.2.1 20190827 (Red Hat 9.2.1-1)
REM options -cpp -mtune=generic -march=x86-64 -g -O0 -fpre-include=/usr/include/finclude/math-vector-fortran.h
REM seed 610775624 -617181116 149408505 1132036759 -1348168280 1382327662 1233714177 1839836496 29096854 -1363783260 -1003060556 747003095 41351959 -56973185 -324190123 -762404836 -404141444 1671815129 -1021783691 520585722 -366574456 -1919093784 -371666113 1288825660 1542689400 1221949554 -636143011 2019639280 1868395348 1346972263 1656537716 -934640893 -254438210
REM
CELL 1.54180   50.00000   50.00000   50.00000   90.00000   90.00000   90.00000
LATT -1
SFAC C  
C      1  0.5999010000000  0.4791320000000  0.4976160000000 1.0
C      1  0.5658370000000  0.5455980000000  0.4647080000000 1.0
C      1  0.4451950000000  0.5024200000000  0.4382110000000 1.0
C      1  0.3977220000000  0.5089790000000  0.5490700000000 1.0
C      1  0.5217410000000  0.4923660000000  0.4581600000000 1.0
C      1  0.4342460000000  0.4705890000000  0.5359970000000 1.0
C      1  0.4456090000000  0.4705410000000  0.4621560000000 1.0
C      1  0.4474300000000  0.4883760000000  0.4088330000000 1.0
C      1  0.5139120000000  0.5625350000000  0.4752090000000 1.0
C      1  0.4989430000000  0.6072580000000  0.4548770000000 1.0
C      1  0.4258120000000  0.4225330000000  0.4729160000000 1.0
C      1  0.5937010000000  0.5401350000000  0.4806850000000 1.0
C      1  0.4257640000000  0.5783410000000  0.5147310000000 1.0
C      1  0.4192570000000  0.5794490000000  0.4815070000000 1.0
C      1  0.5625120000000  0.4497250000000  0.5042110000000 1.0
C      1  0.5134770000000  0.4826460000000  0.4261320000000 1.0
C      1  0.5881540000000  0.5513610000000  0.5502130000000 1.0
C      1  0.5358410000000  0.4757000000000  0.3901390000000 1.0
C      1  0.4910850000000  0.4837870000000  0.4591390000000 1.0
C      1  0.4225330000000  0.4309320000000  0.5624340000000 1.0
C      1  0.5501790000000  0.4597660000000  0.5831410000000 1.0
C      1  0.4580830000000  0.5655890000000  0.4269100000000 1.0
C      1  0.5896370000000  0.5371380000000  0.5203040000000 1.0
C      1  0.4995810000000  0.5455230000000  0.5299470000000 1.0
C      1  0.5880880000000  0.4606000000000  0.5176740000000 1.0
C      1  0.4522090000000  0.4317180000000  0.5749880000000 1.0
C      1  0.5609340000000  0.5524480000000  0.5094220000000 1.0
C      1  0.4198130000000  0.4871760000000  0.4690510000000 1.0
C      1  0.5321100000000  0.4244120000000  0.4996270000000 1.0
C      1  0.4630320000000  0.4877560000000  0.5035830000000 1.0
C      1  0.4880390000000  0.5059270000000  0.6004540000000 1.0
C      1  0.4631740000000  0.5118900000000  0.3899710000000 1.0
C      1  0.4832440000000  0.4051320000000  0.5357430000000 1.0
C      1  0.4790600000000  0.5598670000000  0.5883290000000 1.0
C      1  0.5950920000000  0.4808080000000  0.5511770000000 1.0
C      1  0.5033250000000  0.6035650000000  0.5634580000000 1.0
C      1  0.4605870000000  0.4574350000000  0.5926460000000 1.0
C      1  0.4864220000000  0.5517470000000  0.4594080000000 1.0
C      1  0.4898240000000  0.4311540000000  0.4174450000000 1.0
C      1  0.5150210000000  0.4947910000000  0.6113910000000 1.0
C      1  0.5934620000000  0.4308210000000  0.4620420000000 1.0
C      1  0.5128910000000  0.5248180000000  0.4963440000000 1.0
C      1  0.4374110000000  0.5629080000000  0.5645740000000 1.0
C      1  0.4734890000000  0.5221440000000  0.5677540000000 1.0
C      1  0.5616410000000  0.5285100000000  0.5770840000000 1.0
C      1  0.4889100000000  0.4845270000000  0.5255790000000 1.0
C      1  0.5093390000000  0.4538060000000  0.4101900000000 1.0
C      1  0.4547750000000  0.5428330000000  0.4016280000000 1.0
C      1  0.4962970000000  0.4397440000000  0.4912000000000 1.0
C      1  0.5159110000000  0.5471490000000  0.5595630000000 1.0
C      1  0.5875620000000  0.4481620000000  0.5446120000000 1.0
C      1  0.4676710000000  0.5252620000000  0.4264890000000 1.0
C      1  0.5501220000000  0.5325420000000  0.4065670000000 1.0
C      1  0.5278670000000  0.4496080000000  0.4829190000000 1.0
C      1  0.5658910000000  0.4569710000000  0.4743100000000 1.0
C      1  0.4892470000000  0.4524070000000  0.4530970000000 1.0
C      1  0.4485600000000  0.4153680000000  0.4410030000000 1.0
C      1  0.5562990000000  0.4416280000000  0.4273650000000 1.0
C      1  0.4409890000000  0.4156830000000  0.5217130000000 1.0
C      1  0.4663190000000  0.4759100000000  0.5477790000000 1.0
C      1  0.5269760000000  0.6057400000000  0.4528750000000 1.0
C      1  0.5272470000000  0.5501610000000  0.5107330000000 1.0
C      1  0.5178870000000  0.5685660000000  0.4418440000000 1.0
C      1  0.5382280000000  0.5134920000000  0.6089810000000 1.0
C      1  0.5883620000000  0.5298140000000  0.4360030000000 1.0
C      1  0.4082010000000  0.4573060000000  0.4655990000000 1.0
C      1  0.3942890000000  0.4800050000000  0.5373140000000 1.0
C      1  0.5152390000000  0.4743100000000  0.4976350000000 1.0
C      1  0.4940350000000  0.4525520000000  0.5952310000000 1.0
C      1  0.4140650000000  0.5074850000000  0.4459800000000 1.0
C      1  0.5402260000000  0.4695510000000  0.5175940000000 1.0
C      1  0.5535070000000  0.5348330000000  0.5358660000000 1.0
C      1  0.4035030000000  0.4806090000000  0.5049080000000 1.0
C      1  0.5754450000000  0.4952640000000  0.4801750000000 1.0
C      1  0.5994670000000  0.4800470000000  0.4431740000000 1.0
C      1  0.4200500000000  0.5068730000000  0.5693080000000 1.0
C      1  0.5163980000000  0.5016090000000  0.5157870000000 1.0
C      1  0.4843430000000  0.4994260000000  0.4309730000000 1.0
C      1  0.4808890000000  0.5825710000000  0.4459670000000 1.0
C      1  0.5129280000000  0.5170840000000  0.5712850000000 1.0
C      1  0.4989960000000  0.4551830000000  0.5378450000000 1.0
C      1  0.5172550000000  0.5382860000000  0.4340490000000 1.0
C      1  0.4772940000000  0.6085450000000  0.4760010000000 1.0
C      1  0.4766700000000  0.4834080000000  0.5772060000000 1.0
C      1  0.4838750000000  0.5744420000000  0.5242360000000 1.0
C      1  0.4831260000000  0.5194220000000  0.4823950000000 1.0
C      1  0.4780920000000  0.4783570000000  0.4074780000000 1.0
C      1  0.5213050000000  0.3949970000000  0.4578690000000 1.0
C      1  0.5271930000000  0.4681860000000  0.5472630000000 1.0
C      1  0.6019320000000  0.5219140000000  0.5545200000000 1.0
C      1  0.4846960000000  0.4716230000000  0.4878500000000 1.0
C      1  0.5600790000000  0.5921420000000  0.5247060000000 1.0
C      1  0.4334980000000  0.5005410000000  0.5931970000000 1.0
C      1  0.4555250000000  0.5638300000000  0.4813390000000 1.0
C      1  0.5028810000000  0.4789220000000  0.3877680000000 1.0
C      1  0.4948110000000  0.5107100000000  0.3908840000000 1.0
C      1  0.3795800000000  0.4970780000000  0.4871590000000 1.0
C      1  0.4646490000000  0.3974130000000  0.5082710000000 1.0
C      1  0.5137270000000  0.5856260000000  0.5002510000000 1.0
C      1  0.4707240000000  0.3979820000000  0.4530010000000 1.0
C      1  0.5362830000000  0.5368090000000  0.4745830000000 1.0
C      1  0.5417190000000  0.4499010000000  0.4052300000000 1.0
C      1  0.4803280000000  0.4146190000000  0.5649550000000 1.0
C      1  0.4483140000000  0.5969680000000  0.4772090000000 1.0
C      1  0.5799240000000  0.5184430000000  0.5942030000000 1.0
C      1  0.5313950000000  0.4386680000000  0.5640770000000 1.0
C      1  0.6098270000000  0.5157970000000  0.4854020000000 1.0
C      1  0.5701620000000  0.4182720000000  0.5044900000000 1.0
C      1  0.5628460000000  0.5526960000000  0.4316770000000 1.0
C      1  0.5856710000000  0.4497510000000  0.4347860000000 1.0
C      1  0.3705360000000  0.4785110000000  0.5129870000000 1.0
C      1  0.5440880000000  0.5960080000000  0.5023160000000 1.0
C      1  0.4550110000000  0.5857820000000  0.5593800000000 1.0
C      1  0.5045420000000  0.4062590000000  0.4333610000000 1.0
C      1  0.5495830000000  0.4843590000000  0.4626930000000 1.0
C      1  0.5207260000000  0.4666320000000  0.5989020000000 1.0
C      1  0.4367050000000  0.4750890000000  0.6027680000000 1.0
C      1  0.4299890000000  0.4604330000000  0.4174630000000 1.0
C      1  0.5954430000000  0.5088140000000  0.4560590000000 1.0
C      1  0.4108240000000  0.4852070000000  0.4239580000000 1.0
C      1  0.4118270000000  0.4563630000000  0.5533310000000 1.0
C      1  0.4756960000000  0.5400180000000  0.5060710000000 1.0
C      1  0.6207770000000  0.4996290000000  0.5384900000000 1.0
C      1  0.5856000000000  0.4135860000000  0.4817690000000 1.0
C      1  0.5535800000000  0.5952080000000  0.4712020000000 1.0
C      1  0.5982310000000  0.5633730000000  0.5009130000000 1.0
C      1  0.4565230000000  0.4383590000000  0.4187400000000 1.0
C      1  0.5127880000000  0.4179880000000  0.5745820000000 1.0
C      1  0.4059380000000  0.5499990000000  0.4756030000000 1.0
C      1  0.5283580000000  0.5081920000000  0.3970390000000 1.0
C      1  0.4566780000000  0.5185980000000  0.5960850000000 1.0
C      1  0.4916260000000  0.5649950000000  0.4198070000000 1.0
C      1  0.5875980000000  0.4923180000000  0.5982130000000 1.0
C      1  0.4055390000000  0.5330500000000  0.5306310000000 1.0
C      1  0.3907770000000  0.5423590000000  0.5047490000000 1.0
C      1  0.4446100000000  0.4465330000000  0.5142810000000 1.0
C      1  0.5022650000000  0.5369250000000  0.4062630000000 1.0
C      1  0.5416880000000  0.4442220000000  0.4539590000000 1.0
C      1  0.4200920000000  0.5582730000000  0.5418120000000 1.0
C      1  0.4810350000000  0.5802200000000  0.4925060000000 1.0
C      1  0.4539340000000  0.5618190000000  0.5209490000000 1.0
C      1  0.4987150000000  0.4302920000000  0.5203240000000 1.0
C      1  0.4472830000000  0.5345060000000  0.4913130000000 1.0
C      1  0.5430400000000  0.5227090000000  0.4443010000000 1.0
C      1  0.4257560000000  0.5358750000000  0.4544150000000 1.0
C      1  0.5039490000000  0.5214550000000  0.4576830000000 1.0
C      1  0.5456510000000  0.5559250000000  0.5735620000000 1.0
C      1  0.5127150000000  0.4332150000000  0.4501130000000 1.0
C      1  0.4497030000000  0.4525500000000  0.4859320000000 1.0
C      1  0.4366750000000  0.5681440000000  0.4533340000000 1.0
C      1  0.4442970000000  0.4058410000000  0.4833640000000 1.0
C      1  0.5164340000000  0.5952340000000  0.5330740000000 1.0
C      1  0.5674780000000  0.4791700000000  0.4342030000000 1.0
C      1  0.4252520000000  0.4400730000000  0.4433470000000 1.0
C      1  0.4509240000000  0.5959350000000  0.5295170000000 1.0
C      1  0.5642490000000  0.4921210000000  0.5105350000000 1.0
C      1  0.5384080000000  0.4330250000000  0.5320360000000 1.0
C      1  0.5693480000000  0.4258730000000  0.5436900000000 1.0
C      1  0.4383000000000  0.5563190000000  0.3798060000000 1.0
C      1  0.5824710000000  0.5055520000000  0.5310890000000 1.0
C      1  0.4635780000000  0.4353540000000  0.4645040000000 1.0
C      1  0.4599770000000  0.5360390000000  0.4535800000000 1.0
C      1  0.5420270000000  0.5069390000000  0.5617970000000 1.0
C      1  0.4516310000000  0.5492140000000  0.5868310000000 1.0
C      1  0.5631840000000  0.5707070000000  0.5505590000000 1.0
C      1  0.5425760000000  0.5069210000000  0.5310310000000 1.0
C      1  0.5439470000000  0.4979540000000  0.4255670000000 1.0
C      1  0.3845110000000  0.5234560000000  0.4806560000000 1.0
C      1  0.5212860000000  0.4001030000000  0.4870810000000 1.0
C      1  0.5779710000000  0.5233560000000  0.4094330000000 1.0
C      1  0.4895110000000  0.4160450000000  0.4692010000000 1.0
C      1  0.5303400000000  0.5397820000000  0.5990970000000 1.0
C      1  0.4798880000000  0.5838640000000  0.5731820000000 1.0
C      1  0.4544310000000  0.5084710000000  0.4705050000000 1.0
C      1  0.5486660000000  0.4928740000000  0.5891510000000 1.0
C      1  0.4960380000000  0.3901210000000  0.5014970000000 1.0
C      1  0.4253320000000  0.5227520000000  0.5083630000000 1.0
C      1  0.4647410000000  0.4649530000000  0.4360820000000 1.0
C      1  0.4232520000000  0.4109710000000  0.5418680000000 1.0
C      1  0.4580450000000  0.5097520000000  0.5272900000000 1.0
C      1  0.6194330000000  0.5005370000000  0.5095710000000 1.0
C      1  0.4311650000000  0.4933760000000  0.4992900000000 1.0
C      1  0.5812300000000  0.4731340000000  0.5790550000000 1.0
C      1  0.5471870000000  0.5807720000000  0.4409000000000 1.0
C      1  0.4986430000000  0.5379150000000  0.5943680000000 1.0
C      1  0.5703350000000  0.5721110000000  0.4841410000000 1.0
C      1  0.4776390000000  0.5226340000000  0.5418580000000 1.0
C      1  0.4832630000000  0.6034310000000  0.5373860000000 1.0
C      1  0.5502070000000  0.4022180000000  0.5271590000000 1.0
C      1  0.5102510000000  0.4848370000000  0.5717710000000 1.0
C      1  0.5314620000000  0.5680490000000  0.5383860000000 1.0
C      1  0.5160570000000  0.4007610000000  0.5269550000000 1.0
C      1  0.4874810000000  0.4469780000000  0.5651710000000 1.0
C      1  0.5979750000000  0.4630010000000  0.4701170000000 1.0
C      1  0.4359770000000  0.5010930000000  0.5425540000000 1.0
C      1  0.4610670000000  0.4425110000000  0.5438200000000 1.0
C      1  0.5184870000000  0.6200700000000  0.5829310000000 1.0
C      1  0.4035130000000  0.4385330000000  0.4882180000000 1.0
END
