TITL C-2778437-8639-526 -0.0604662291826763 125000 -304.434798639156 0 0 54 (C1) n - 1
REM
REM in /home/nfs/bkarasulu/CARBON/AIRSS/Generating-Clusters/REBO/Only-C1/SD-CG/HFTN-CG
REM
REM
REM
REM
REM
REM ./C.cell (11c1c37f851c82e70ff6c80c92926a4b)
REM
REM compiler GCC version 9.2.1 20190827 (Red Hat 9.2.1-1)
REM options -cpp -mtune=generic -march=x86-64 -g -O0 -fpre-include=/usr/include/finclude/math-vector-fortran.h
REM seed -479910135 -288894989 836841168 -747451713 -2110107788 651271916 531984573 -1729620216 -99606416 1526646692 -242491236 699885077 1665357362 -1306352432 1346023079 -794280701 1798430612 1024375020 -2144130697 822861418 242145938 1120612752 2082381122 -194415035 1809958329 -1500443862 -1299152563 -1224530523 -369402539 -2003398404 1269487101 -711961804 1696264759
REM
CELL 1.54180   50.00000   50.00000   50.00000   90.00000   90.00000   90.00000
LATT -1
SFAC C  
C      1  0.4993570000000  0.5087900000000  0.4959270000000 1.0
C      1  0.5088560000000  0.4855370000000  0.4513550000000 1.0
C      1  0.5288230000000  0.4923650000000  0.4249960000000 1.0
C      1  0.5316350000000  0.4722760000000  0.4730360000000 1.0
C      1  0.5276550000000  0.5595120000000  0.5079690000000 1.0
C      1  0.4411430000000  0.5163710000000  0.5374690000000 1.0
C      1  0.4486760000000  0.4822270000000  0.5019220000000 1.0
C      1  0.4803280000000  0.5263820000000  0.4455260000000 1.0
C      1  0.5467920000000  0.5169810000000  0.5125170000000 1.0
C      1  0.5379940000000  0.4646790000000  0.5056030000000 1.0
C      1  0.5441490000000  0.5094630000000  0.4664290000000 1.0
C      1  0.4798620000000  0.5174240000000  0.5761550000000 1.0
C      1  0.5173290000000  0.4385800000000  0.5388870000000 1.0
C      1  0.4523190000000  0.5298590000000  0.5155310000000 1.0
C      1  0.5238070000000  0.4386040000000  0.4922220000000 1.0
C      1  0.4590500000000  0.4559440000000  0.5137460000000 1.0
C      1  0.4401670000000  0.5435310000000  0.4936540000000 1.0
C      1  0.4779570000000  0.4905870000000  0.5138310000000 1.0
C      1  0.4696470000000  0.4384290000000  0.4937160000000 1.0
C      1  0.5621110000000  0.4843480000000  0.4635630000000 1.0
C      1  0.4913200000000  0.5429760000000  0.5715040000000 1.0
C      1  0.4241430000000  0.5281410000000  0.4759980000000 1.0
C      1  0.4925100000000  0.4422540000000  0.5495130000000 1.0
C      1  0.5337790000000  0.4659630000000  0.5366750000000 1.0
C      1  0.4430490000000  0.4825020000000  0.4739050000000 1.0
C      1  0.5311070000000  0.5177050000000  0.4431440000000 1.0
C      1  0.5246140000000  0.4602700000000  0.4356830000000 1.0
C      1  0.5077370000000  0.5177770000000  0.5337060000000 1.0
C      1  0.4863970000000  0.4914800000000  0.5549760000000 1.0
C      1  0.5303950000000  0.5091430000000  0.4912100000000 1.0
C      1  0.4646620000000  0.4705810000000  0.4588980000000 1.0
C      1  0.4795400000000  0.4489330000000  0.4689020000000 1.0
C      1  0.5429770000000  0.5423690000000  0.5245370000000 1.0
C      1  0.4549300000000  0.5661680000000  0.4846350000000 1.0
C      1  0.5346870000000  0.5147240000000  0.5630350000000 1.0
C      1  0.5187770000000  0.4231110000000  0.5147000000000 1.0
C      1  0.4902950000000  0.5320370000000  0.4763750000000 1.0
C      1  0.5106490000000  0.5392800000000  0.4501220000000 1.0
C      1  0.4821290000000  0.5303270000000  0.5153670000000 1.0
C      1  0.5916900000000  0.4715480000000  0.4744630000000 1.0
C      1  0.4959020000000  0.5606850000000  0.5153620000000 1.0
C      1  0.4332740000000  0.5062630000000  0.4604080000000 1.0
C      1  0.5416240000000  0.5394160000000  0.5528940000000 1.0
C      1  0.5183450000000  0.4906370000000  0.5475870000000 1.0
C      1  0.4808920000000  0.4929480000000  0.4451430000000 1.0
C      1  0.5660020000000  0.4695310000000  0.4933950000000 1.0
C      1  0.4524760000000  0.5113320000000  0.4396060000000 1.0
C      1  0.5109400000000  0.5585930000000  0.4784620000000 1.0
C      1  0.5099150000000  0.4475820000000  0.4638270000000 1.0
C      1  0.5607950000000  0.4634520000000  0.5512710000000 1.0
C      1  0.4810560000000  0.5714760000000  0.4884750000000 1.0
C      1  0.5021600000000  0.5464170000000  0.5455860000000 1.0
C      1  0.4562160000000  0.5063970000000  0.5585760000000 1.0
C      1  0.4773590000000  0.4660900000000  0.5380060000000 1.0
END
