TITL C-2778425-5191-1140 -0.00119741756183452 125000 -559.939994851749 0 0 97 (C1) n - 1
REM
REM in /home/nfs/bkarasulu/CARBON/AIRSS/Generating-Clusters/REBO/Only-C1/SD-CG/HFTN-CG
REM
REM
REM
REM
REM
REM ./C.cell (11c1c37f851c82e70ff6c80c92926a4b)
REM
REM compiler GCC version 9.2.1 20190827 (Red Hat 9.2.1-1)
REM options -cpp -mtune=generic -march=x86-64 -g -O0 -fpre-include=/usr/include/finclude/math-vector-fortran.h
REM seed 74242474 -1800258690 85226741 -1441742516 1735880649 827785050 323226139 1613993415 725205232 -679368215 -410200446 78227310 1733851903 1531771265 886037760 1237128313 1815541549 1631090319 -1625545203 1668813140 1249240985 -186322281 349403952 -1314089542 -1051085337 -1824128561 -100826307 -543567524 -1245928980 -1438146741 -1981072479 -184454729 -135801042
REM
CELL 1.54180   50.00000   50.00000   50.00000   90.00000   90.00000   90.00000
LATT -1
SFAC C  
C      1  0.4283230000000  0.5196220000000  0.4505620000000 1.0
C      1  0.4966910000000  0.4142840000000  0.5001290000000 1.0
C      1  0.5020870000000  0.4640250000000  0.5057400000000 1.0
C      1  0.5305630000000  0.5156330000000  0.5735090000000 1.0
C      1  0.5135210000000  0.4708650000000  0.5371090000000 1.0
C      1  0.5074620000000  0.4698370000000  0.5766190000000 1.0
C      1  0.4813180000000  0.5826180000000  0.4494730000000 1.0
C      1  0.4999120000000  0.5623140000000  0.4413280000000 1.0
C      1  0.5286680000000  0.4960210000000  0.5447700000000 1.0
C      1  0.4402230000000  0.5044870000000  0.5490270000000 1.0
C      1  0.4395690000000  0.5500670000000  0.4896850000000 1.0
C      1  0.4463770000000  0.5209540000000  0.5001030000000 1.0
C      1  0.4432310000000  0.4332030000000  0.4798510000000 1.0
C      1  0.5486900000000  0.5904460000000  0.4929850000000 1.0
C      1  0.4688730000000  0.4690230000000  0.5034720000000 1.0
C      1  0.4455510000000  0.4776930000000  0.5561450000000 1.0
C      1  0.5121150000000  0.4357670000000  0.5159540000000 1.0
C      1  0.5016270000000  0.5005480000000  0.5738490000000 1.0
C      1  0.5224210000000  0.4457890000000  0.4561610000000 1.0
C      1  0.4727630000000  0.5221540000000  0.5342330000000 1.0
C      1  0.5139690000000  0.5500810000000  0.5349970000000 1.0
C      1  0.5570260000000  0.5102720000000  0.5559960000000 1.0
C      1  0.4792620000000  0.5510720000000  0.5684620000000 1.0
C      1  0.5000900000000  0.4131860000000  0.4500020000000 1.0
C      1  0.4822420000000  0.4695260000000  0.4187740000000 1.0
C      1  0.4796160000000  0.4927050000000  0.5220770000000 1.0
C      1  0.5072370000000  0.4496850000000  0.4281900000000 1.0
C      1  0.4734820000000  0.4725210000000  0.5733540000000 1.0
C      1  0.4866630000000  0.5610550000000  0.4911890000000 1.0
C      1  0.4129270000000  0.4952050000000  0.4671720000000 1.0
C      1  0.4709490000000  0.5046900000000  0.5833360000000 1.0
C      1  0.4777110000000  0.4526070000000  0.4762900000000 1.0
C      1  0.4728660000000  0.5806630000000  0.4758580000000 1.0
C      1  0.5584850000000  0.4422070000000  0.4900160000000 1.0
C      1  0.5508470000000  0.4935480000000  0.5116430000000 1.0
C      1  0.4296620000000  0.5112160000000  0.5236180000000 1.0
C      1  0.4911850000000  0.4261270000000  0.4712590000000 1.0
C      1  0.5468570000000  0.5402870000000  0.4444570000000 1.0
C      1  0.4401890000000  0.4567460000000  0.5381940000000 1.0
C      1  0.5425310000000  0.5469270000000  0.5231630000000 1.0
C      1  0.5751900000000  0.5065290000000  0.4983840000000 1.0
C      1  0.5557200000000  0.5757100000000  0.5156930000000 1.0
C      1  0.4495520000000  0.5700370000000  0.5065070000000 1.0
C      1  0.4948720000000  0.4889450000000  0.4638230000000 1.0
C      1  0.5005380000000  0.5237810000000  0.5488700000000 1.0
C      1  0.4876300000000  0.5631060000000  0.5429080000000 1.0
C      1  0.4810920000000  0.4660310000000  0.5420970000000 1.0
C      1  0.5739800000000  0.5079610000000  0.4704490000000 1.0
C      1  0.4999170000000  0.5144120000000  0.5062090000000 1.0
C      1  0.4659370000000  0.5136040000000  0.4104130000000 1.0
C      1  0.5137160000000  0.5581660000000  0.4827730000000 1.0
C      1  0.5280870000000  0.5666060000000  0.4465410000000 1.0
C      1  0.5749310000000  0.5319950000000  0.4563380000000 1.0
C      1  0.5168090000000  0.4388480000000  0.5483280000000 1.0
C      1  0.4899610000000  0.5178920000000  0.4236750000000 1.0
C      1  0.4520690000000  0.4368120000000  0.4503150000000 1.0
C      1  0.4688750000000  0.5739330000000  0.5250730000000 1.0
C      1  0.5135080000000  0.4696450000000  0.4788020000000 1.0
C      1  0.5548830000000  0.4878410000000  0.4557980000000 1.0
C      1  0.4656130000000  0.4400110000000  0.5307050000000 1.0
C      1  0.4907440000000  0.5353790000000  0.4459680000000 1.0
C      1  0.5459590000000  0.4613830000000  0.4725980000000 1.0
C      1  0.4673800000000  0.4291390000000  0.5029650000000 1.0
C      1  0.5321510000000  0.5095230000000  0.4442310000000 1.0
C      1  0.5767110000000  0.5838970000000  0.5330580000000 1.0
C      1  0.5810480000000  0.5100480000000  0.5317170000000 1.0
C      1  0.5068200000000  0.5393290000000  0.5797450000000 1.0
C      1  0.5835830000000  0.5617680000000  0.5496250000000 1.0
C      1  0.5835150000000  0.4815930000000  0.5477450000000 1.0
C      1  0.5668050000000  0.5376050000000  0.5418350000000 1.0
C      1  0.4970830000000  0.5176190000000  0.4744350000000 1.0
C      1  0.4637720000000  0.4819640000000  0.4661000000000 1.0
C      1  0.5055370000000  0.4908280000000  0.4321500000000 1.0
C      1  0.5889520000000  0.4635810000000  0.5235140000000 1.0
C      1  0.5888950000000  0.6080480000000  0.5330050000000 1.0
C      1  0.4750930000000  0.5371290000000  0.5049110000000 1.0
C      1  0.4585690000000  0.5264160000000  0.5643220000000 1.0
C      1  0.4026710000000  0.5065950000000  0.5187410000000 1.0
C      1  0.4163160000000  0.4511350000000  0.4860480000000 1.0
C      1  0.4444580000000  0.5029040000000  0.4754670000000 1.0
C      1  0.5315550000000  0.5811320000000  0.4732500000000 1.0
C      1  0.5023550000000  0.3876400000000  0.5042350000000 1.0
C      1  0.5278520000000  0.5164610000000  0.5183750000000 1.0
C      1  0.5332660000000  0.4705090000000  0.4358610000000 1.0
C      1  0.4758000000000  0.4382660000000  0.4307360000000 1.0
C      1  0.4287940000000  0.5483720000000  0.4642750000000 1.0
C      1  0.4506090000000  0.4662930000000  0.4428070000000 1.0
C      1  0.5581150000000  0.4678010000000  0.5202400000000 1.0
C      1  0.5239940000000  0.5329390000000  0.4676730000000 1.0
C      1  0.5643570000000  0.4694630000000  0.5642990000000 1.0
C      1  0.5342730000000  0.4627720000000  0.5746870000000 1.0
C      1  0.5443140000000  0.4383390000000  0.5198440000000 1.0
C      1  0.4366900000000  0.5128200000000  0.4228610000000 1.0
C      1  0.4527490000000  0.4835430000000  0.4161800000000 1.0
C      1  0.4029770000000  0.4714880000000  0.4741440000000 1.0
C      1  0.5497650000000  0.4408850000000  0.5533890000000 1.0
C      1  0.4398090000000  0.4578510000000  0.5065080000000 1.0
END
