TITL C-2778423-5760-276 0.000798095297268385 125000 -1090.24975481252 0 0 188 (C1) n - 1
REM
REM in /home/nfs/bkarasulu/CARBON/AIRSS/Generating-Clusters/REBO/Only-C1/SD-CG/HFTN-CG
REM
REM
REM
REM
REM
REM ./C.cell (11c1c37f851c82e70ff6c80c92926a4b)
REM
REM compiler GCC version 9.2.1 20190827 (Red Hat 9.2.1-1)
REM options -cpp -mtune=generic -march=x86-64 -g -O0 -fpre-include=/usr/include/finclude/math-vector-fortran.h
REM seed -1811896314 87437271 936860333 -297985671 -490741529 599638768 -1034611960 -1641794850 -1284428604 19187979 702050079 -38525553 -335987736 1437873451 -1499582071 -2031474222 718081614 1799107898 1105900453 500696896 618137922 -1260837812 1226298470 -787382287 -100590324 1506266001 1894190937 -790560258 -152130816 -865873291 1135141289 6510471 115390101
REM
CELL 1.54180   50.00000   50.00000   50.00000   90.00000   90.00000   90.00000
LATT -1
SFAC C  
C      1  0.5271480000000  0.5088690000000  0.4064500000000 1.0
C      1  0.5928800000000  0.4343480000000  0.5117700000000 1.0
C      1  0.5395050000000  0.4498780000000  0.5297300000000 1.0
C      1  0.5603210000000  0.4986830000000  0.5156970000000 1.0
C      1  0.5277590000000  0.3849520000000  0.5163990000000 1.0
C      1  0.5733130000000  0.5453120000000  0.4211840000000 1.0
C      1  0.4356720000000  0.4782090000000  0.5649420000000 1.0
C      1  0.4899980000000  0.5759180000000  0.4293920000000 1.0
C      1  0.5849270000000  0.4625750000000  0.4544150000000 1.0
C      1  0.6129740000000  0.4818680000000  0.5011290000000 1.0
C      1  0.4690910000000  0.5854690000000  0.5218940000000 1.0
C      1  0.4235020000000  0.4496690000000  0.4389480000000 1.0
C      1  0.4385990000000  0.4437100000000  0.5451470000000 1.0
C      1  0.6142400000000  0.4537570000000  0.4952070000000 1.0
C      1  0.4581680000000  0.4906140000000  0.4203930000000 1.0
C      1  0.5315650000000  0.4579410000000  0.4995380000000 1.0
C      1  0.6052980000000  0.4856710000000  0.5283670000000 1.0
C      1  0.4323740000000  0.4794840000000  0.4487920000000 1.0
C      1  0.4784300000000  0.4566170000000  0.5695000000000 1.0
C      1  0.5230850000000  0.3985240000000  0.4685330000000 1.0
C      1  0.4577800000000  0.4745660000000  0.5893740000000 1.0
C      1  0.4935500000000  0.4287280000000  0.4834330000000 1.0
C      1  0.4862860000000  0.5671320000000  0.4856300000000 1.0
C      1  0.5788800000000  0.5520990000000  0.4887050000000 1.0
C      1  0.5299350000000  0.4290630000000  0.5766650000000 1.0
C      1  0.5206180000000  0.5955190000000  0.5572640000000 1.0
C      1  0.5207140000000  0.4455130000000  0.6007540000000 1.0
C      1  0.4867050000000  0.5924050000000  0.5574110000000 1.0
C      1  0.5474530000000  0.4510470000000  0.4473130000000 1.0
C      1  0.5076190000000  0.5154860000000  0.5092290000000 1.0
C      1  0.5914350000000  0.5393060000000  0.4430630000000 1.0
C      1  0.4044680000000  0.4917260000000  0.4333080000000 1.0
C      1  0.5214400000000  0.4266440000000  0.4029750000000 1.0
C      1  0.5476460000000  0.5568470000000  0.4139060000000 1.0
C      1  0.5032850000000  0.4154150000000  0.4208370000000 1.0
C      1  0.4003430000000  0.4657880000000  0.5202340000000 1.0
C      1  0.4794590000000  0.5078480000000  0.5215740000000 1.0
C      1  0.5573920000000  0.4628530000000  0.5717360000000 1.0
C      1  0.3773220000000  0.4891140000000  0.4473910000000 1.0
C      1  0.5741590000000  0.4475060000000  0.5492040000000 1.0
C      1  0.5047190000000  0.6112350000000  0.4784360000000 1.0
C      1  0.4571530000000  0.4715230000000  0.4863610000000 1.0
C      1  0.5391830000000  0.5232230000000  0.5092650000000 1.0
C      1  0.4491890000000  0.4428220000000  0.4756730000000 1.0
C      1  0.5299650000000  0.5457670000000  0.4762620000000 1.0
C      1  0.4390320000000  0.5325450000000  0.4040390000000 1.0
C      1  0.5126670000000  0.5514920000000  0.4374640000000 1.0
C      1  0.5667930000000  0.5229940000000  0.5380680000000 1.0
C      1  0.5413310000000  0.5502520000000  0.5242740000000 1.0
C      1  0.4742890000000  0.5541340000000  0.5229660000000 1.0
C      1  0.4405880000000  0.5120710000000  0.4912810000000 1.0
C      1  0.5080530000000  0.5457500000000  0.4985550000000 1.0
C      1  0.4134830000000  0.5946120000000  0.5322970000000 1.0
C      1  0.3958520000000  0.5065180000000  0.4694310000000 1.0
C      1  0.4201860000000  0.5174570000000  0.4479880000000 1.0
C      1  0.5657590000000  0.4856830000000  0.4544040000000 1.0
C      1  0.5327350000000  0.4749830000000  0.5606410000000 1.0
C      1  0.4757510000000  0.4315460000000  0.4176590000000 1.0
C      1  0.4385370000000  0.5141140000000  0.5828600000000 1.0
C      1  0.5900480000000  0.5597890000000  0.4633490000000 1.0
C      1  0.4666240000000  0.4831270000000  0.5514870000000 1.0
C      1  0.5035470000000  0.4955540000000  0.5430810000000 1.0
C      1  0.4986970000000  0.5219290000000  0.5703260000000 1.0
C      1  0.4967870000000  0.4887090000000  0.5997110000000 1.0
C      1  0.5692770000000  0.4984650000000  0.5574860000000 1.0
C      1  0.4032020000000  0.5253510000000  0.4960550000000 1.0
C      1  0.5063200000000  0.5752090000000  0.5119260000000 1.0
C      1  0.4713100000000  0.5129740000000  0.5601800000000 1.0
C      1  0.5375120000000  0.4958150000000  0.5385890000000 1.0
C      1  0.5557060000000  0.5160900000000  0.4622660000000 1.0
C      1  0.5683600000000  0.4211640000000  0.5283350000000 1.0
C      1  0.4105080000000  0.4403050000000  0.5305400000000 1.0
C      1  0.4683170000000  0.4070430000000  0.4382570000000 1.0
C      1  0.4272130000000  0.3967850000000  0.5169540000000 1.0
C      1  0.5716200000000  0.5810230000000  0.4521890000000 1.0
C      1  0.5675950000000  0.5627300000000  0.5420380000000 1.0
C      1  0.4692790000000  0.4074910000000  0.4721400000000 1.0
C      1  0.4226690000000  0.4899450000000  0.4783440000000 1.0
C      1  0.4609710000000  0.4392320000000  0.4479830000000 1.0
C      1  0.5224380000000  0.4385960000000  0.5478800000000 1.0
C      1  0.4601430000000  0.5378980000000  0.5809130000000 1.0
C      1  0.4591610000000  0.5806740000000  0.4827770000000 1.0
C      1  0.4221660000000  0.5263670000000  0.5549470000000 1.0
C      1  0.5739330000000  0.5120960000000  0.5855700000000 1.0
C      1  0.4215430000000  0.5465790000000  0.4847470000000 1.0
C      1  0.4518550000000  0.3984040000000  0.5292340000000 1.0
C      1  0.5376730000000  0.5813530000000  0.4279460000000 1.0
C      1  0.4907020000000  0.5611030000000  0.5898190000000 1.0
C      1  0.5115520000000  0.5018660000000  0.4365360000000 1.0
C      1  0.5132950000000  0.5521310000000  0.5660850000000 1.0
C      1  0.5652920000000  0.5403890000000  0.5895910000000 1.0
C      1  0.5411880000000  0.5381880000000  0.6085050000000 1.0
C      1  0.4911890000000  0.5506000000000  0.4602680000000 1.0
C      1  0.4419810000000  0.5310580000000  0.4636670000000 1.0
C      1  0.5495200000000  0.5678270000000  0.4952690000000 1.0
C      1  0.5275910000000  0.5393930000000  0.4025930000000 1.0
C      1  0.5046820000000  0.4454670000000  0.4589510000000 1.0
C      1  0.4716820000000  0.5348290000000  0.3998590000000 1.0
C      1  0.4171780000000  0.4347880000000  0.4839310000000 1.0
C      1  0.4984520000000  0.5520880000000  0.4062520000000 1.0
C      1  0.5483610000000  0.4092090000000  0.4770970000000 1.0
C      1  0.4933580000000  0.5986240000000  0.4481370000000 1.0
C      1  0.4718490000000  0.6081890000000  0.4724040000000 1.0
C      1  0.4406300000000  0.5640130000000  0.5038930000000 1.0
C      1  0.5547880000000  0.4573210000000  0.4799680000000 1.0
C      1  0.5599960000000  0.4251440000000  0.4570570000000 1.0
C      1  0.4602720000000  0.4936900000000  0.4621820000000 1.0
C      1  0.5395100000000  0.5335530000000  0.5539410000000 1.0
C      1  0.5101050000000  0.4166910000000  0.4490000000000 1.0
C      1  0.4583830000000  0.5352510000000  0.5411080000000 1.0
C      1  0.4859040000000  0.6135050000000  0.5316110000000 1.0
C      1  0.4795440000000  0.5079940000000  0.4392900000000 1.0
C      1  0.5100130000000  0.6070960000000  0.5082560000000 1.0
C      1  0.4889670000000  0.4340230000000  0.5489710000000 1.0
C      1  0.5506780000000  0.4883120000000  0.5934600000000 1.0
C      1  0.5753280000000  0.5054990000000  0.4292980000000 1.0
C      1  0.5965500000000  0.5110050000000  0.4534330000000 1.0
C      1  0.4669700000000  0.5351880000000  0.4486870000000 1.0
C      1  0.4643520000000  0.4274240000000  0.5323310000000 1.0
C      1  0.5516660000000  0.5545150000000  0.4535060000000 1.0
C      1  0.4593540000000  0.4290350000000  0.5911800000000 1.0
C      1  0.5337690000000  0.5281850000000  0.4405630000000 1.0
C      1  0.4292310000000  0.5736530000000  0.5298270000000 1.0
C      1  0.4123260000000  0.4199710000000  0.5102040000000 1.0
C      1  0.5350170000000  0.5755670000000  0.5737470000000 1.0
C      1  0.4443630000000  0.4566430000000  0.5141750000000 1.0
C      1  0.4825560000000  0.3922980000000  0.4956980000000 1.0
C      1  0.5120360000000  0.5172110000000  0.4712410000000 1.0
C      1  0.5044030000000  0.4086450000000  0.5667430000000 1.0
C      1  0.5089520000000  0.3929640000000  0.5405810000000 1.0
C      1  0.4457450000000  0.5122370000000  0.5233310000000 1.0
C      1  0.4921120000000  0.4318630000000  0.5885490000000 1.0
C      1  0.4782970000000  0.5042120000000  0.3995480000000 1.0
C      1  0.3932710000000  0.4899360000000  0.5312610000000 1.0
C      1  0.4881190000000  0.4599640000000  0.4077770000000 1.0
C      1  0.5609790000000  0.5631730000000  0.5715910000000 1.0
C      1  0.4667080000000  0.6131550000000  0.5040270000000 1.0
C      1  0.4126920000000  0.4982460000000  0.5714690000000 1.0
C      1  0.6003000000000  0.4566490000000  0.4337680000000 1.0
C      1  0.5872660000000  0.4778180000000  0.5474970000000 1.0
C      1  0.4360270000000  0.5685370000000  0.4370610000000 1.0
C      1  0.4661440000000  0.5034800000000  0.6001390000000 1.0
C      1  0.5697510000000  0.4589240000000  0.5169780000000 1.0
C      1  0.5071100000000  0.4835370000000  0.5725930000000 1.0
C      1  0.4878310000000  0.4833520000000  0.4892010000000 1.0
C      1  0.5191290000000  0.4275940000000  0.5036540000000 1.0
C      1  0.5048260000000  0.4874150000000  0.3971200000000 1.0
C      1  0.4621260000000  0.5377690000000  0.4974820000000 1.0
C      1  0.4398870000000  0.4059710000000  0.4547970000000 1.0
C      1  0.4117990000000  0.5143310000000  0.5245480000000 1.0
C      1  0.5316970000000  0.6014120000000  0.5316330000000 1.0
C      1  0.5736290000000  0.4819070000000  0.4940610000000 1.0
C      1  0.5431650000000  0.4664600000000  0.4243380000000 1.0
C      1  0.4344830000000  0.5702370000000  0.4650410000000 1.0
C      1  0.4683890000000  0.4361960000000  0.5011240000000 1.0
C      1  0.4742390000000  0.4663810000000  0.4367260000000 1.0
C      1  0.3867370000000  0.4899040000000  0.5582660000000 1.0
C      1  0.4800770000000  0.5336950000000  0.6070840000000 1.0
C      1  0.5476000000000  0.4097310000000  0.5097210000000 1.0
C      1  0.4984360000000  0.5664470000000  0.5412230000000 1.0
C      1  0.4794370000000  0.5153150000000  0.4809060000000 1.0
C      1  0.5106850000000  0.5285820000000  0.6015510000000 1.0
C      1  0.4199750000000  0.4266740000000  0.4540080000000 1.0
C      1  0.5199610000000  0.4865290000000  0.4955620000000 1.0
C      1  0.5236840000000  0.4730780000000  0.6071810000000 1.0
C      1  0.5631450000000  0.5272740000000  0.4882940000000 1.0
C      1  0.4644270000000  0.5698380000000  0.5699560000000 1.0
C      1  0.4978790000000  0.4771510000000  0.4565200000000 1.0
C      1  0.5910730000000  0.5431480000000  0.5343790000000 1.0
C      1  0.5976650000000  0.4971960000000  0.4783120000000 1.0
C      1  0.4318720000000  0.5060080000000  0.4188710000000 1.0
C      1  0.4380050000000  0.5563060000000  0.5532110000000 1.0
C      1  0.4405350000000  0.4470410000000  0.5769120000000 1.0
C      1  0.4959270000000  0.4085720000000  0.5175930000000 1.0
C      1  0.4259700000000  0.5552020000000  0.4123720000000 1.0
C      1  0.5346310000000  0.5160710000000  0.5818520000000 1.0
C      1  0.5212820000000  0.4582730000000  0.4045930000000 1.0
C      1  0.5503270000000  0.5901970000000  0.4712530000000 1.0
C      1  0.4638000000000  0.5564840000000  0.4251940000000 1.0
C      1  0.5858370000000  0.4455930000000  0.4806900000000 1.0
C      1  0.4185120000000  0.4658160000000  0.4948220000000 1.0
C      1  0.4839770000000  0.4756980000000  0.5228800000000 1.0
C      1  0.5514440000000  0.4927580000000  0.4177860000000 1.0
C      1  0.5111770000000  0.3833890000000  0.4906430000000 1.0
C      1  0.5257020000000  0.5985250000000  0.4548750000000 1.0
C      1  0.5550860000000  0.5874390000000  0.5228270000000 1.0
C      1  0.5346330000000  0.4917550000000  0.4674260000000 1.0
C      1  0.6161650000000  0.5433090000000  0.5284010000000 1.0
END
