TITL C-2778422-5617-775 0.00145184595639143 125000 -322.562882857792 0 0 58 (C1) n - 1
REM
REM in /home/nfs/bkarasulu/CARBON/AIRSS/Generating-Clusters/REBO/Only-C1/SD-CG/HFTN-CG
REM
REM
REM
REM
REM
REM ./C.cell (11c1c37f851c82e70ff6c80c92926a4b)
REM
REM compiler GCC version 9.2.1 20190827 (Red Hat 9.2.1-1)
REM options -cpp -mtune=generic -march=x86-64 -g -O0 -fpre-include=/usr/include/finclude/math-vector-fortran.h
REM seed 714714479 178961647 -929770700 1756717659 -611636457 -563029725 88074025 -132851164 655371326 -618880538 907804353 -244173354 -506936624 374327551 1777887078 149193250 1486319964 38838258 2000591223 -1276950721 325087907 -900753687 907286419 993950690 -1611795334 -678826964 380812420 -1157128386 -523599461 -295125811 -1849694238 -1227527262 -2107075803
REM
CELL 1.54180   50.00000   50.00000   50.00000   90.00000   90.00000   90.00000
LATT -1
SFAC C  
C      1  0.4567350000000  0.5714300000000  0.5322020000000 1.0
C      1  0.5706010000000  0.5018280000000  0.5401620000000 1.0
C      1  0.4266180000000  0.5092370000000  0.4969680000000 1.0
C      1  0.5219850000000  0.5003680000000  0.4731680000000 1.0
C      1  0.5038250000000  0.5437360000000  0.5534070000000 1.0
C      1  0.5362660000000  0.5016210000000  0.5603470000000 1.0
C      1  0.4468320000000  0.4993130000000  0.5453120000000 1.0
C      1  0.4570700000000  0.4435420000000  0.4794980000000 1.0
C      1  0.5175340000000  0.4781020000000  0.5447370000000 1.0
C      1  0.4884970000000  0.4725100000000  0.5480990000000 1.0
C      1  0.4908860000000  0.5143810000000  0.5135580000000 1.0
C      1  0.5015440000000  0.5178980000000  0.4299830000000 1.0
C      1  0.4510680000000  0.5286850000000  0.5524910000000 1.0
C      1  0.4811750000000  0.5420440000000  0.4405320000000 1.0
C      1  0.5930980000000  0.5051610000000  0.5568590000000 1.0
C      1  0.5341850000000  0.4791560000000  0.4417760000000 1.0
C      1  0.4402350000000  0.4641770000000  0.5212430000000 1.0
C      1  0.5387580000000  0.4097310000000  0.5208740000000 1.0
C      1  0.5512950000000  0.4750720000000  0.5488860000000 1.0
C      1  0.5057440000000  0.4628040000000  0.4508670000000 1.0
C      1  0.4358250000000  0.5366520000000  0.5078560000000 1.0
C      1  0.4851450000000  0.4578780000000  0.4765820000000 1.0
C      1  0.5276130000000  0.5438860000000  0.5372870000000 1.0
C      1  0.5333610000000  0.5078270000000  0.4331230000000 1.0
C      1  0.4520870000000  0.4379220000000  0.5075760000000 1.0
C      1  0.4949590000000  0.5453960000000  0.5144980000000 1.0
C      1  0.5361560000000  0.4478780000000  0.4544280000000 1.0
C      1  0.4428150000000  0.4845020000000  0.4978170000000 1.0
C      1  0.5374100000000  0.5037570000000  0.5019930000000 1.0
C      1  0.4786160000000  0.5593750000000  0.4675250000000 1.0
C      1  0.5732460000000  0.4952480000000  0.4865670000000 1.0
C      1  0.4416360000000  0.5475600000000  0.5330910000000 1.0
C      1  0.4518900000000  0.5466260000000  0.4801930000000 1.0
C      1  0.4678910000000  0.5212320000000  0.4639560000000 1.0
C      1  0.5184410000000  0.5012800000000  0.5227380000000 1.0
C      1  0.4811160000000  0.5297470000000  0.5626840000000 1.0
C      1  0.5192370000000  0.4202230000000  0.4959330000000 1.0
C      1  0.4820620000000  0.5676360000000  0.5228830000000 1.0
C      1  0.4710600000000  0.4900950000000  0.5254350000000 1.0
C      1  0.4276370000000  0.5246270000000  0.4708860000000 1.0
C      1  0.4740790000000  0.4983360000000  0.5641050000000 1.0
C      1  0.5488130000000  0.4311290000000  0.4991000000000 1.0
C      1  0.4669980000000  0.4515960000000  0.5348140000000 1.0
C      1  0.4770200000000  0.4823160000000  0.4941810000000 1.0
C      1  0.5096170000000  0.4360520000000  0.4723320000000 1.0
C      1  0.5464760000000  0.5252680000000  0.5452320000000 1.0
C      1  0.5057040000000  0.5522860000000  0.4772340000000 1.0
C      1  0.4624590000000  0.4919250000000  0.4510150000000 1.0
C      1  0.5776070000000  0.5007150000000  0.5101160000000 1.0
C      1  0.4903920000000  0.5071180000000  0.4813180000000 1.0
C      1  0.5444180000000  0.5300400000000  0.4875170000000 1.0
C      1  0.5501120000000  0.4809280000000  0.4717630000000 1.0
C      1  0.4492690000000  0.4727150000000  0.4673470000000 1.0
C      1  0.5561120000000  0.4492860000000  0.4798380000000 1.0
C      1  0.5256900000000  0.5508370000000  0.5043380000000 1.0
C      1  0.5474190000000  0.5264750000000  0.4567120000000 1.0
C      1  0.5143660000000  0.5300600000000  0.4591280000000 1.0
C      1  0.4812960000000  0.4927810000000  0.4298900000000 1.0
END
