TITL C-2778425-5191-1192 -0.00500134169895364 125000 -909.631174279214 0 0 157 (C1) n - 1
REM
REM in /home/nfs/bkarasulu/CARBON/AIRSS/Generating-Clusters/REBO/Only-C1/SD-CG/HFTN-CG
REM
REM
REM
REM
REM
REM ./C.cell (11c1c37f851c82e70ff6c80c92926a4b)
REM
REM compiler GCC version 9.2.1 20190827 (Red Hat 9.2.1-1)
REM options -cpp -mtune=generic -march=x86-64 -g -O0 -fpre-include=/usr/include/finclude/math-vector-fortran.h
REM seed 503627295 751926802 -1197436753 556796613 1965322742 1651337188 303088428 1117258241 846079853 -1176060241 -1500033206 1847789349 1407134272 2073405902 1887765428 1909836738 922028169 2068100924 1007773299 -263584749 1116896614 1356483071 766766387 -1376583288 1444513914 -757740074 -195180993 834707468 406434424 -1923710656 379430877 359083234 724864798
REM
CELL 1.54180   50.00000   50.00000   50.00000   90.00000   90.00000   90.00000
LATT -1
SFAC C  
C      1  0.4744190000000  0.4326870000000  0.4269930000000 1.0
C      1  0.5968190000000  0.4826860000000  0.5356370000000 1.0
C      1  0.5429870000000  0.5773430000000  0.4340230000000 1.0
C      1  0.4524470000000  0.5263290000000  0.5083810000000 1.0
C      1  0.5800290000000  0.4359310000000  0.4759790000000 1.0
C      1  0.4783910000000  0.4448080000000  0.5422210000000 1.0
C      1  0.5546740000000  0.4965000000000  0.5177800000000 1.0
C      1  0.4417830000000  0.5761450000000  0.4553000000000 1.0
C      1  0.4745440000000  0.5451590000000  0.5690570000000 1.0
C      1  0.4805330000000  0.5462830000000  0.4395210000000 1.0
C      1  0.5085340000000  0.4976420000000  0.6078030000000 1.0
C      1  0.4241530000000  0.5554730000000  0.4943310000000 1.0
C      1  0.4368110000000  0.4930590000000  0.4662300000000 1.0
C      1  0.4504030000000  0.5434780000000  0.4140680000000 1.0
C      1  0.4524210000000  0.4657560000000  0.4257990000000 1.0
C      1  0.5657520000000  0.4799710000000  0.4566500000000 1.0
C      1  0.5290010000000  0.4371020000000  0.4612130000000 1.0
C      1  0.4554070000000  0.4146900000000  0.4430570000000 1.0
C      1  0.5688310000000  0.5559360000000  0.4355740000000 1.0
C      1  0.5293880000000  0.4370440000000  0.5222970000000 1.0
C      1  0.5308860000000  0.5458040000000  0.4386500000000 1.0
C      1  0.4988920000000  0.4653970000000  0.6049620000000 1.0
C      1  0.4112670000000  0.5099590000000  0.4776850000000 1.0
C      1  0.5045640000000  0.5875390000000  0.5746560000000 1.0
C      1  0.4095870000000  0.5433810000000  0.5440270000000 1.0
C      1  0.4479510000000  0.4901270000000  0.5350630000000 1.0
C      1  0.5366590000000  0.5645580000000  0.5062670000000 1.0
C      1  0.5892200000000  0.4393010000000  0.5830890000000 1.0
C      1  0.5480680000000  0.4364680000000  0.4870110000000 1.0
C      1  0.5883180000000  0.5504260000000  0.5429510000000 1.0
C      1  0.6059550000000  0.5020050000000  0.4865710000000 1.0
C      1  0.5238120000000  0.5409070000000  0.5083090000000 1.0
C      1  0.4403760000000  0.4635710000000  0.5905750000000 1.0
C      1  0.4674370000000  0.3971070000000  0.5248190000000 1.0
C      1  0.4576870000000  0.4203210000000  0.5367020000000 1.0
C      1  0.5736590000000  0.4253400000000  0.5070210000000 1.0
C      1  0.5270780000000  0.5890340000000  0.5250200000000 1.0
C      1  0.4606500000000  0.5710870000000  0.4308620000000 1.0
C      1  0.5077400000000  0.4899080000000  0.4693130000000 1.0
C      1  0.4585130000000  0.5068970000000  0.4434520000000 1.0
C      1  0.4280120000000  0.4271690000000  0.4519430000000 1.0
C      1  0.4911360000000  0.5970010000000  0.4719090000000 1.0
C      1  0.4759130000000  0.4931090000000  0.5157320000000 1.0
C      1  0.5130000000000  0.5767180000000  0.4212990000000 1.0
C      1  0.3890530000000  0.4600140000000  0.5524470000000 1.0
C      1  0.5152070000000  0.4339180000000  0.5696450000000 1.0
C      1  0.6052780000000  0.5156800000000  0.5703910000000 1.0
C      1  0.5337670000000  0.4778980000000  0.4507230000000 1.0
C      1  0.5303580000000  0.4087630000000  0.5094880000000 1.0
C      1  0.4328330000000  0.5337100000000  0.4744270000000 1.0
C      1  0.4295200000000  0.5623960000000  0.5545580000000 1.0
C      1  0.4106440000000  0.5195050000000  0.4450020000000 1.0
C      1  0.4395160000000  0.5087040000000  0.5622000000000 1.0
C      1  0.5515220000000  0.5919060000000  0.5025080000000 1.0
C      1  0.5479870000000  0.4494010000000  0.4382280000000 1.0
C      1  0.5623480000000  0.5398780000000  0.5505650000000 1.0
C      1  0.4454980000000  0.5843900000000  0.5585940000000 1.0
C      1  0.5955410000000  0.5590070000000  0.5173620000000 1.0
C      1  0.4246020000000  0.4789860000000  0.5186160000000 1.0
C      1  0.6084830000000  0.5415960000000  0.5612230000000 1.0
C      1  0.5177840000000  0.5432660000000  0.4688390000000 1.0
C      1  0.4125050000000  0.4365990000000  0.5566760000000 1.0
C      1  0.5052260000000  0.4974730000000  0.4985120000000 1.0
C      1  0.5142150000000  0.4088690000000  0.4543070000000 1.0
C      1  0.5948350000000  0.5160320000000  0.4649810000000 1.0
C      1  0.5200860000000  0.4724590000000  0.5790380000000 1.0
C      1  0.5192930000000  0.6122300000000  0.4598120000000 1.0
C      1  0.3928250000000  0.4818790000000  0.5296180000000 1.0
C      1  0.4901110000000  0.4307840000000  0.4546300000000 1.0
C      1  0.5291900000000  0.5140790000000  0.5084700000000 1.0
C      1  0.4754670000000  0.4709890000000  0.4480880000000 1.0
C      1  0.5019890000000  0.5438500000000  0.5884540000000 1.0
C      1  0.5431430000000  0.5987680000000  0.4553540000000 1.0
C      1  0.4402800000000  0.4219930000000  0.5661010000000 1.0
C      1  0.3998040000000  0.5547240000000  0.5071040000000 1.0
C      1  0.4897880000000  0.6194770000000  0.4462760000000 1.0
C      1  0.4742630000000  0.4083130000000  0.4886580000000 1.0
C      1  0.5213020000000  0.5146160000000  0.4413260000000 1.0
C      1  0.4330710000000  0.5083990000000  0.4295040000000 1.0
C      1  0.5776160000000  0.5667570000000  0.4670470000000 1.0
C      1  0.4058220000000  0.4104930000000  0.4477330000000 1.0
C      1  0.5093900000000  0.4971260000000  0.5385650000000 1.0
C      1  0.4685220000000  0.4880140000000  0.4767400000000 1.0
C      1  0.5810730000000  0.5015690000000  0.4428420000000 1.0
C      1  0.5712120000000  0.4682460000000  0.5208350000000 1.0
C      1  0.4817000000000  0.4652540000000  0.4968220000000 1.0
C      1  0.4653750000000  0.5349470000000  0.5314880000000 1.0
C      1  0.4672160000000  0.3959880000000  0.4606110000000 1.0
C      1  0.5039510000000  0.5829360000000  0.5422890000000 1.0
C      1  0.5561060000000  0.4472850000000  0.5353110000000 1.0
C      1  0.5033480000000  0.4585190000000  0.4634260000000 1.0
C      1  0.5036390000000  0.5453830000000  0.4199020000000 1.0
C      1  0.4785180000000  0.4375580000000  0.4861100000000 1.0
C      1  0.4887340000000  0.4840660000000  0.5713810000000 1.0
C      1  0.4979180000000  0.3896240000000  0.4742610000000 1.0
C      1  0.4697720000000  0.5294020000000  0.4009090000000 1.0
C      1  0.5403660000000  0.5346570000000  0.5945150000000 1.0
C      1  0.4389670000000  0.5788430000000  0.4877470000000 1.0
C      1  0.5546670000000  0.4579040000000  0.4091170000000 1.0
C      1  0.5270090000000  0.5101090000000  0.5907180000000 1.0
C      1  0.5702400000000  0.5070280000000  0.4169940000000 1.0
C      1  0.4920570000000  0.4855230000000  0.3999830000000 1.0
C      1  0.5497960000000  0.4903480000000  0.4846240000000 1.0
C      1  0.4273690000000  0.4502670000000  0.5082880000000 1.0
C      1  0.4760660000000  0.4981230000000  0.6065160000000 1.0
C      1  0.4765400000000  0.4750840000000  0.5442450000000 1.0
C      1  0.4892330000000  0.5157210000000  0.5774980000000 1.0
C      1  0.5690530000000  0.5345900000000  0.4619290000000 1.0
C      1  0.5420930000000  0.5191940000000  0.4680380000000 1.0
C      1  0.5017830000000  0.4814790000000  0.4307180000000 1.0
C      1  0.4152270000000  0.4649720000000  0.5737650000000 1.0
C      1  0.5064750000000  0.5723450000000  0.4551340000000 1.0
C      1  0.5246510000000  0.5275520000000  0.4036560000000 1.0
C      1  0.5777000000000  0.4509460000000  0.4511390000000 1.0
C      1  0.5407040000000  0.4474350000000  0.5763060000000 1.0
C      1  0.4838290000000  0.5442360000000  0.4730200000000 1.0
C      1  0.5086240000000  0.4706840000000  0.5171780000000 1.0
C      1  0.5728960000000  0.4183750000000  0.5379590000000 1.0
C      1  0.4243810000000  0.4656860000000  0.4618790000000 1.0
C      1  0.4678480000000  0.4346840000000  0.5723680000000 1.0
C      1  0.5074660000000  0.4366070000000  0.5424190000000 1.0
C      1  0.4069530000000  0.5182650000000  0.5349100000000 1.0
C      1  0.4930380000000  0.5435810000000  0.5040860000000 1.0
C      1  0.4908940000000  0.5568990000000  0.5340640000000 1.0
C      1  0.5931370000000  0.4529560000000  0.5003220000000 1.0
C      1  0.4497210000000  0.5041190000000  0.5886350000000 1.0
C      1  0.4124010000000  0.4920440000000  0.5558660000000 1.0
C      1  0.4751170000000  0.5780500000000  0.5638370000000 1.0
C      1  0.5146820000000  0.5676480000000  0.5911490000000 1.0
C      1  0.5206940000000  0.3904980000000  0.4960460000000 1.0
C      1  0.4886860000000  0.5084540000000  0.4488120000000 1.0
C      1  0.4287580000000  0.4556890000000  0.4350980000000 1.0
C      1  0.5538490000000  0.4849700000000  0.4061100000000 1.0
C      1  0.5680230000000  0.4377260000000  0.5655560000000 1.0
C      1  0.4268890000000  0.4441660000000  0.4816970000000 1.0
C      1  0.4968570000000  0.5230810000000  0.5318440000000 1.0
C      1  0.5569190000000  0.5328010000000  0.4135900000000 1.0
C      1  0.4472280000000  0.5365530000000  0.5556610000000 1.0
C      1  0.4672310000000  0.4686370000000  0.5934510000000 1.0
C      1  0.5972570000000  0.5634960000000  0.4910590000000 1.0
C      1  0.4291170000000  0.4315610000000  0.5296310000000 1.0
C      1  0.4041390000000  0.5025490000000  0.5048540000000 1.0
C      1  0.5507650000000  0.5500780000000  0.5743450000000 1.0
C      1  0.5874310000000  0.4988840000000  0.5562310000000 1.0
C      1  0.4774180000000  0.4589740000000  0.4084540000000 1.0
C      1  0.4939340000000  0.5143390000000  0.3959600000000 1.0
C      1  0.5613390000000  0.5919600000000  0.4753700000000 1.0
C      1  0.5314770000000  0.4979670000000  0.5611350000000 1.0
C      1  0.6056800000000  0.4818230000000  0.5061090000000 1.0
C      1  0.5274560000000  0.4966960000000  0.4144270000000 1.0
C      1  0.5367040000000  0.4636340000000  0.5013110000000 1.0
C      1  0.4927420000000  0.4384450000000  0.5873180000000 1.0
C      1  0.4617290000000  0.5208480000000  0.4805460000000 1.0
C      1  0.5584860000000  0.5086660000000  0.5479340000000 1.0
C      1  0.4319810000000  0.5460840000000  0.4426430000000 1.0
C      1  0.4696970000000  0.5750820000000  0.4752860000000 1.0
C      1  0.4855800000000  0.5895130000000  0.4331040000000 1.0
END
