TITL C-2778435-5768-952 0.00157844622621171 125000 -545.311444384232 0 0 94 (C1) n - 1
REM
REM in /home/nfs/bkarasulu/CARBON/AIRSS/Generating-Clusters/REBO/Only-C1/SD-CG/HFTN-CG
REM
REM
REM
REM
REM
REM ./C.cell (11c1c37f851c82e70ff6c80c92926a4b)
REM
REM compiler GCC version 9.2.1 20190827 (Red Hat 9.2.1-1)
REM options -cpp -mtune=generic -march=x86-64 -g -O0 -fpre-include=/usr/include/finclude/math-vector-fortran.h
REM seed 380572796 1526903136 2055606888 -203247398 85176772 1883416041 -1406174679 591584883 -233523336 -2112898757 -1649917679 150516212 1846655891 -1467323080 -2123620630 -958696006 -785701307 415634967 2050989958 -1396680674 -1058846218 755872171 1750927025 -109791726 229978588 -2127104609 1477581492 -1015472303 -66907503 1493377010 113877908 -447511783 -190612168
REM
CELL 1.54180   50.00000   50.00000   50.00000   90.00000   90.00000   90.00000
LATT -1
SFAC C  
C      1  0.4797580000000  0.5131460000000  0.4631970000000 1.0
C      1  0.4236420000000  0.4459290000000  0.5296370000000 1.0
C      1  0.5573890000000  0.4534130000000  0.5218250000000 1.0
C      1  0.4846040000000  0.5237170000000  0.5520000000000 1.0
C      1  0.5291330000000  0.5393650000000  0.5180380000000 1.0
C      1  0.4713500000000  0.5700780000000  0.5229600000000 1.0
C      1  0.5608720000000  0.4623870000000  0.5698130000000 1.0
C      1  0.5361140000000  0.4681900000000  0.5019010000000 1.0
C      1  0.5296070000000  0.4273340000000  0.5414180000000 1.0
C      1  0.4548390000000  0.5013380000000  0.4769460000000 1.0
C      1  0.4965820000000  0.5591420000000  0.4367010000000 1.0
C      1  0.5165980000000  0.5730930000000  0.4556860000000 1.0
C      1  0.5114060000000  0.5042420000000  0.4728690000000 1.0
C      1  0.4978620000000  0.5605720000000  0.5598400000000 1.0
C      1  0.5285550000000  0.4595530000000  0.4349700000000 1.0
C      1  0.5795880000000  0.4689380000000  0.4738440000000 1.0
C      1  0.4526160000000  0.5356430000000  0.5522090000000 1.0
C      1  0.5399620000000  0.4312450000000  0.4774450000000 1.0
C      1  0.4713640000000  0.4262360000000  0.5585180000000 1.0
C      1  0.5525350000000  0.5158680000000  0.5102990000000 1.0
C      1  0.4495830000000  0.5097980000000  0.5090420000000 1.0
C      1  0.4590230000000  0.4520300000000  0.5655180000000 1.0
C      1  0.4925200000000  0.5166760000000  0.4114110000000 1.0
C      1  0.4631640000000  0.4546980000000  0.4406420000000 1.0
C      1  0.4934380000000  0.4407730000000  0.4654980000000 1.0
C      1  0.5584260000000  0.5855220000000  0.4876370000000 1.0
C      1  0.5376890000000  0.5327390000000  0.4351620000000 1.0
C      1  0.4925870000000  0.5385250000000  0.4793770000000 1.0
C      1  0.5115840000000  0.4114950000000  0.5218780000000 1.0
C      1  0.5343610000000  0.4841780000000  0.4247310000000 1.0
C      1  0.4803490000000  0.5177960000000  0.5028220000000 1.0
C      1  0.5471090000000  0.4342660000000  0.5607650000000 1.0
C      1  0.4694160000000  0.4191390000000  0.4764600000000 1.0
C      1  0.5654360000000  0.4443310000000  0.4787720000000 1.0
C      1  0.4329460000000  0.5340830000000  0.5266100000000 1.0
C      1  0.4926310000000  0.5855190000000  0.5134250000000 1.0
C      1  0.5725830000000  0.5515410000000  0.5337800000000 1.0
C      1  0.5283470000000  0.5651230000000  0.5485770000000 1.0
C      1  0.5107910000000  0.5368830000000  0.4233610000000 1.0
C      1  0.4787240000000  0.4190950000000  0.5270720000000 1.0
C      1  0.4660100000000  0.4696520000000  0.5197610000000 1.0
C      1  0.4315200000000  0.5415220000000  0.4930560000000 1.0
C      1  0.5746830000000  0.4959980000000  0.5269130000000 1.0
C      1  0.5820340000000  0.4926980000000  0.4964970000000 1.0
C      1  0.4992820000000  0.4091270000000  0.4750360000000 1.0
C      1  0.4204250000000  0.4687210000000  0.4969850000000 1.0
C      1  0.5839850000000  0.5405390000000  0.5113520000000 1.0
C      1  0.5492010000000  0.4901740000000  0.4882700000000 1.0
C      1  0.5479040000000  0.5055210000000  0.4381200000000 1.0
C      1  0.5687790000000  0.4712950000000  0.5398940000000 1.0
C      1  0.5766840000000  0.4632620000000  0.5922920000000 1.0
C      1  0.4926100000000  0.4889020000000  0.4919090000000 1.0
C      1  0.4358630000000  0.5063480000000  0.4298470000000 1.0
C      1  0.4636880000000  0.4987840000000  0.4142750000000 1.0
C      1  0.4680670000000  0.5533410000000  0.4440750000000 1.0
C      1  0.5290110000000  0.5241650000000  0.4870930000000 1.0
C      1  0.4436550000000  0.4982410000000  0.5400790000000 1.0
C      1  0.4177440000000  0.5156330000000  0.4813400000000 1.0
C      1  0.4776640000000  0.5672550000000  0.4803070000000 1.0
C      1  0.5807570000000  0.5435790000000  0.4842080000000 1.0
C      1  0.5384910000000  0.4834360000000  0.5628970000000 1.0
C      1  0.5175700000000  0.4507740000000  0.5238350000000 1.0
C      1  0.4625470000000  0.5471490000000  0.5035400000000 1.0
C      1  0.4634000000000  0.4755740000000  0.5812830000000 1.0
C      1  0.4480730000000  0.5581430000000  0.4683410000000 1.0
C      1  0.4714780000000  0.5231730000000  0.4362410000000 1.0
C      1  0.5202050000000  0.5707150000000  0.5083020000000 1.0
C      1  0.5214800000000  0.4120670000000  0.4941610000000 1.0
C      1  0.4304880000000  0.5061900000000  0.4561910000000 1.0
C      1  0.4312100000000  0.4368830000000  0.5022310000000 1.0
C      1  0.5135890000000  0.5347510000000  0.5452870000000 1.0
C      1  0.4534870000000  0.5062980000000  0.5697690000000 1.0
C      1  0.4097880000000  0.4954900000000  0.5009650000000 1.0
C      1  0.5201770000000  0.5538480000000  0.4819970000000 1.0
C      1  0.4677820000000  0.4685100000000  0.4178460000000 1.0
C      1  0.5449160000000  0.5563250000000  0.4509360000000 1.0
C      1  0.4566970000000  0.4225960000000  0.5013280000000 1.0
C      1  0.4453320000000  0.4593560000000  0.5413170000000 1.0
C      1  0.5070210000000  0.4909080000000  0.5538640000000 1.0
C      1  0.4514680000000  0.4729370000000  0.4924140000000 1.0
C      1  0.5229020000000  0.4424220000000  0.4562540000000 1.0
C      1  0.4857770000000  0.4994800000000  0.5761700000000 1.0
C      1  0.5524140000000  0.5718580000000  0.5359320000000 1.0
C      1  0.5016860000000  0.5889940000000  0.4817990000000 1.0
C      1  0.5639020000000  0.4950220000000  0.4592730000000 1.0
C      1  0.4714830000000  0.5615800000000  0.5498190000000 1.0
C      1  0.4774180000000  0.4942000000000  0.5374610000000 1.0
C      1  0.5637730000000  0.5624980000000  0.4712580000000 1.0
C      1  0.5274330000000  0.4795580000000  0.5323700000000 1.0
C      1  0.4564990000000  0.4556510000000  0.4665500000000 1.0
C      1  0.4143150000000  0.5058580000000  0.5273110000000 1.0
C      1  0.5541580000000  0.5907470000000  0.5143700000000 1.0
C      1  0.4894390000000  0.4613660000000  0.4885040000000 1.0
C      1  0.4889570000000  0.4472460000000  0.5162220000000 1.0
END
