TITL C-2778435-5768-1173 -0.00263601099297845 125000 -578.798822646703 0 0 98 (C1) n - 1
REM
REM in /home/nfs/bkarasulu/CARBON/AIRSS/Generating-Clusters/REBO/Only-C1/SD-CG/HFTN-CG
REM
REM
REM
REM
REM
REM ./C.cell (11c1c37f851c82e70ff6c80c92926a4b)
REM
REM compiler GCC version 9.2.1 20190827 (Red Hat 9.2.1-1)
REM options -cpp -mtune=generic -march=x86-64 -g -O0 -fpre-include=/usr/include/finclude/math-vector-fortran.h
REM seed 1662874506 1768396845 -1039527979 -718315749 -459677224 601831744 -775907704 947945421 -1348112422 -394642885 213000584 -1250420345 -1454529730 1986377319 1271779710 1132570201 375643620 1255595433 -1544602226 -2107465697 2000890699 1929818313 1692290223 1226161983 -1317562575 854410074 666001235 -157191351 -1063673811 -1478905240 -1660662311 -1261219696 -701260508
REM
CELL 1.54180   50.00000   50.00000   50.00000   90.00000   90.00000   90.00000
LATT -1
SFAC C  
C      1  0.4797110000000  0.5582160000000  0.5595110000000 1.0
C      1  0.5671810000000  0.4523940000000  0.4687550000000 1.0
C      1  0.5481720000000  0.4819200000000  0.4879070000000 1.0
C      1  0.4889480000000  0.4036530000000  0.4939320000000 1.0
C      1  0.5620220000000  0.4783680000000  0.5847270000000 1.0
C      1  0.5238700000000  0.4932330000000  0.4583750000000 1.0
C      1  0.4324360000000  0.5571800000000  0.5154010000000 1.0
C      1  0.5654370000000  0.4560320000000  0.5219720000000 1.0
C      1  0.5246510000000  0.5656350000000  0.4542350000000 1.0
C      1  0.5703740000000  0.5461930000000  0.4687240000000 1.0
C      1  0.4979310000000  0.5550460000000  0.5066410000000 1.0
C      1  0.5821270000000  0.4853230000000  0.4848970000000 1.0
C      1  0.5663550000000  0.4840830000000  0.4298280000000 1.0
C      1  0.4543590000000  0.4970270000000  0.4828770000000 1.0
C      1  0.5285210000000  0.4241200000000  0.5109350000000 1.0
C      1  0.5561670000000  0.5153710000000  0.4896890000000 1.0
C      1  0.4861230000000  0.4844710000000  0.4205840000000 1.0
C      1  0.5218060000000  0.4374070000000  0.4867220000000 1.0
C      1  0.5205720000000  0.5456770000000  0.4269010000000 1.0
C      1  0.4788760000000  0.5740030000000  0.4849410000000 1.0
C      1  0.5413390000000  0.5134590000000  0.4619320000000 1.0
C      1  0.4575320000000  0.5428860000000  0.5674390000000 1.0
C      1  0.4431090000000  0.4445050000000  0.5047180000000 1.0
C      1  0.5353430000000  0.5770430000000  0.4807920000000 1.0
C      1  0.5715300000000  0.5257610000000  0.5284760000000 1.0
C      1  0.4876770000000  0.4598250000000  0.4876780000000 1.0
C      1  0.5795630000000  0.4749930000000  0.4524570000000 1.0
C      1  0.5027410000000  0.5081860000000  0.5019430000000 1.0
C      1  0.5429150000000  0.4396150000000  0.5301960000000 1.0
C      1  0.4298220000000  0.4556470000000  0.4689190000000 1.0
C      1  0.4766560000000  0.5777060000000  0.5356860000000 1.0
C      1  0.5482640000000  0.5392760000000  0.5127440000000 1.0
C      1  0.5440930000000  0.5460520000000  0.5529400000000 1.0
C      1  0.4486240000000  0.5346340000000  0.4372990000000 1.0
C      1  0.5149660000000  0.5832530000000  0.4989370000000 1.0
C      1  0.5365110000000  0.4565340000000  0.4699210000000 1.0
C      1  0.4857230000000  0.4629570000000  0.5202260000000 1.0
C      1  0.4082650000000  0.4557170000000  0.4891380000000 1.0
C      1  0.5047280000000  0.5406350000000  0.5569620000000 1.0
C      1  0.4345420000000  0.4859830000000  0.5553030000000 1.0
C      1  0.4218450000000  0.5336550000000  0.5025170000000 1.0
C      1  0.4325130000000  0.5810970000000  0.4999230000000 1.0
C      1  0.4974780000000  0.4585670000000  0.4358210000000 1.0
C      1  0.4974330000000  0.4737290000000  0.5813040000000 1.0
C      1  0.4297380000000  0.4592570000000  0.5468870000000 1.0
C      1  0.5181150000000  0.4983690000000  0.5904440000000 1.0
C      1  0.5562690000000  0.5600990000000  0.4899200000000 1.0
C      1  0.4606020000000  0.5397230000000  0.4682430000000 1.0
C      1  0.4797380000000  0.5000920000000  0.5801130000000 1.0
C      1  0.4447040000000  0.4168140000000  0.5039070000000 1.0
C      1  0.5218220000000  0.5479940000000  0.5284450000000 1.0
C      1  0.4547370000000  0.5110750000000  0.5663510000000 1.0
C      1  0.5169470000000  0.4955200000000  0.4168560000000 1.0
C      1  0.5462210000000  0.5040450000000  0.5861840000000 1.0
C      1  0.5105940000000  0.4017060000000  0.5128640000000 1.0
C      1  0.5237530000000  0.4568590000000  0.4420040000000 1.0
C      1  0.5430240000000  0.4725400000000  0.5618810000000 1.0
C      1  0.5877610000000  0.5233440000000  0.4807910000000 1.0
C      1  0.5004940000000  0.5215430000000  0.4250580000000 1.0
C      1  0.4214850000000  0.5331610000000  0.4732450000000 1.0
C      1  0.4531370000000  0.4422430000000  0.5509680000000 1.0
C      1  0.4193130000000  0.4567540000000  0.5193860000000 1.0
C      1  0.5020880000000  0.4828600000000  0.4711420000000 1.0
C      1  0.5466350000000  0.5406020000000  0.4469040000000 1.0
C      1  0.4685230000000  0.5135930000000  0.4214910000000 1.0
C      1  0.5890470000000  0.5049200000000  0.5095350000000 1.0
C      1  0.4871920000000  0.5293640000000  0.4531200000000 1.0
C      1  0.4833410000000  0.4897520000000  0.5314470000000 1.0
C      1  0.5016840000000  0.4507300000000  0.5634130000000 1.0
C      1  0.5009390000000  0.5218070000000  0.5819720000000 1.0
C      1  0.4623540000000  0.5512510000000  0.5244930000000 1.0
C      1  0.4546370000000  0.4770490000000  0.4290900000000 1.0
C      1  0.4326000000000  0.5083550000000  0.4633710000000 1.0
C      1  0.4787560000000  0.4445350000000  0.4518390000000 1.0
C      1  0.5494860000000  0.5209440000000  0.5618540000000 1.0
C      1  0.4868400000000  0.5924350000000  0.5129040000000 1.0
C      1  0.4489530000000  0.5787840000000  0.4777020000000 1.0
C      1  0.4875360000000  0.5283340000000  0.5230430000000 1.0
C      1  0.4433660000000  0.5100910000000  0.5100800000000 1.0
C      1  0.5854390000000  0.5079650000000  0.5501320000000 1.0
C      1  0.4624270000000  0.3967860000000  0.4993850000000 1.0
C      1  0.4551410000000  0.5009350000000  0.5349530000000 1.0
C      1  0.5690010000000  0.4859070000000  0.5299520000000 1.0
C      1  0.5778290000000  0.4535160000000  0.4967390000000 1.0
C      1  0.4610340000000  0.5344160000000  0.4961670000000 1.0
C      1  0.4925720000000  0.4292050000000  0.4765840000000 1.0
C      1  0.4808720000000  0.4453080000000  0.5432840000000 1.0
C      1  0.5066310000000  0.5091870000000  0.5435620000000 1.0
C      1  0.4951100000000  0.5588310000000  0.4621670000000 1.0
C      1  0.4570510000000  0.4662630000000  0.4857410000000 1.0
C      1  0.4354720000000  0.5590080000000  0.4567810000000 1.0
C      1  0.5387030000000  0.4981440000000  0.5399350000000 1.0
C      1  0.4827150000000  0.5072780000000  0.4758470000000 1.0
C      1  0.4524420000000  0.4552530000000  0.4476530000000 1.0
C      1  0.4380860000000  0.5032050000000  0.4330530000000 1.0
C      1  0.5291570000000  0.4492340000000  0.5537320000000 1.0
C      1  0.5264860000000  0.4962760000000  0.5081050000000 1.0
C      1  0.5425520000000  0.4896690000000  0.4184590000000 1.0
END
