TITL C-2778437-8639-692 0.00173304557172026 125000 -777.267748838707 0 0 133 (C1) n - 1
REM
REM in /home/nfs/bkarasulu/CARBON/AIRSS/Generating-Clusters/REBO/Only-C1/SD-CG/HFTN-CG
REM
REM
REM
REM
REM
REM ./C.cell (11c1c37f851c82e70ff6c80c92926a4b)
REM
REM compiler GCC version 9.2.1 20190827 (Red Hat 9.2.1-1)
REM options -cpp -mtune=generic -march=x86-64 -g -O0 -fpre-include=/usr/include/finclude/math-vector-fortran.h
REM seed -163455892 1366309150 -616868254 -1337472642 -1769985547 440607619 -812820834 1349951346 12207997 2038669780 1226230229 952777586 1191419474 -1832608261 1922123119 -1747803792 -1755993751 -501605880 -939011548 896507922 711350566 -914573924 1130189862 1978622092 1311822968 -244552963 1786289352 -224181657 -397971967 62665331 -891100413 452944434 -592319800
REM
CELL 1.54180   50.00000   50.00000   50.00000   90.00000   90.00000   90.00000
LATT -1
SFAC C  
C      1  0.4016870000000  0.4637020000000  0.5018450000000 1.0
C      1  0.4497430000000  0.5313720000000  0.4227420000000 1.0
C      1  0.5186610000000  0.5096450000000  0.3878500000000 1.0
C      1  0.5191020000000  0.4814560000000  0.4892210000000 1.0
C      1  0.4907040000000  0.5042260000000  0.3915720000000 1.0
C      1  0.4795850000000  0.5321550000000  0.4353550000000 1.0
C      1  0.4307800000000  0.5279990000000  0.5147290000000 1.0
C      1  0.5718580000000  0.4727150000000  0.5471790000000 1.0
C      1  0.4077220000000  0.4875440000000  0.4680860000000 1.0
C      1  0.4417810000000  0.4997170000000  0.4235180000000 1.0
C      1  0.5321820000000  0.5781320000000  0.5520720000000 1.0
C      1  0.5315420000000  0.4185460000000  0.5494590000000 1.0
C      1  0.4496670000000  0.5074040000000  0.4800700000000 1.0
C      1  0.3968210000000  0.4862840000000  0.5160520000000 1.0
C      1  0.4750090000000  0.5912780000000  0.5070230000000 1.0
C      1  0.4769570000000  0.4630110000000  0.4578890000000 1.0
C      1  0.5270840000000  0.4776780000000  0.6117910000000 1.0
C      1  0.5234660000000  0.5547240000000  0.5048010000000 1.0
C      1  0.5504120000000  0.5831040000000  0.4982930000000 1.0
C      1  0.5696280000000  0.5587830000000  0.4976060000000 1.0
C      1  0.5407710000000  0.4478430000000  0.4662490000000 1.0
C      1  0.5221690000000  0.5113390000000  0.5335650000000 1.0
C      1  0.4086510000000  0.5078580000000  0.5293170000000 1.0
C      1  0.5469010000000  0.4737580000000  0.4449270000000 1.0
C      1  0.4184910000000  0.4859920000000  0.4225230000000 1.0
C      1  0.4892360000000  0.5052460000000  0.4316450000000 1.0
C      1  0.4664140000000  0.5493980000000  0.4893960000000 1.0
C      1  0.5186890000000  0.4069380000000  0.5255680000000 1.0
C      1  0.5480300000000  0.4755480000000  0.5916920000000 1.0
C      1  0.4202900000000  0.4457540000000  0.4909400000000 1.0
C      1  0.4761820000000  0.5457950000000  0.5454250000000 1.0
C      1  0.5273580000000  0.4475040000000  0.4356980000000 1.0
C      1  0.4695810000000  0.4643870000000  0.4971620000000 1.0
C      1  0.5052460000000  0.4530850000000  0.5249700000000 1.0
C      1  0.4827800000000  0.4526230000000  0.5844970000000 1.0
C      1  0.5861110000000  0.5224390000000  0.4976960000000 1.0
C      1  0.5439780000000  0.4866570000000  0.5330980000000 1.0
C      1  0.4677330000000  0.4844270000000  0.4352430000000 1.0
C      1  0.5500640000000  0.3999520000000  0.5711880000000 1.0
C      1  0.5149930000000  0.4923150000000  0.5767610000000 1.0
C      1  0.4760270000000  0.4205910000000  0.4484160000000 1.0
C      1  0.5729710000000  0.5142970000000  0.5735760000000 1.0
C      1  0.4707860000000  0.5238820000000  0.3973240000000 1.0
C      1  0.4129400000000  0.5183370000000  0.4655590000000 1.0
C      1  0.5048920000000  0.5099120000000  0.4859930000000 1.0
C      1  0.4932650000000  0.5402570000000  0.5263000000000 1.0
C      1  0.4486370000000  0.4194290000000  0.4572690000000 1.0
C      1  0.4681300000000  0.5374330000000  0.5762900000000 1.0
C      1  0.5085480000000  0.5694870000000  0.4778300000000 1.0
C      1  0.5573790000000  0.5380920000000  0.4734050000000 1.0
C      1  0.4300380000000  0.4436320000000  0.4461380000000 1.0
C      1  0.5700740000000  0.4860130000000  0.5742330000000 1.0
C      1  0.5024500000000  0.5154400000000  0.5578470000000 1.0
C      1  0.5751160000000  0.4373050000000  0.5020740000000 1.0
C      1  0.5376810000000  0.5372970000000  0.5284560000000 1.0
C      1  0.5814050000000  0.5921610000000  0.5652600000000 1.0
C      1  0.4464720000000  0.4813310000000  0.5368980000000 1.0
C      1  0.5600920000000  0.5761960000000  0.5601980000000 1.0
C      1  0.5592720000000  0.5537960000000  0.4303370000000 1.0
C      1  0.4030990000000  0.5599730000000  0.4880600000000 1.0
C      1  0.4737560000000  0.4322630000000  0.4975740000000 1.0
C      1  0.4342440000000  0.4095040000000  0.5307420000000 1.0
C      1  0.4235770000000  0.5300190000000  0.4419040000000 1.0
C      1  0.5120030000000  0.4925330000000  0.4233340000000 1.0
C      1  0.5729410000000  0.4670810000000  0.5141730000000 1.0
C      1  0.5223620000000  0.5226720000000  0.5913950000000 1.0
C      1  0.4329630000000  0.5048830000000  0.5470130000000 1.0
C      1  0.5552930000000  0.5457960000000  0.5564860000000 1.0
C      1  0.4507310000000  0.5340210000000  0.4719440000000 1.0
C      1  0.5372500000000  0.4090810000000  0.4971380000000 1.0
C      1  0.4288010000000  0.4901350000000  0.4890530000000 1.0
C      1  0.4391160000000  0.4483540000000  0.4154500000000 1.0
C      1  0.5361110000000  0.5832820000000  0.4728030000000 1.0
C      1  0.5797920000000  0.5072930000000  0.4350930000000 1.0
C      1  0.5703290000000  0.5353020000000  0.5212980000000 1.0
C      1  0.4754550000000  0.4978710000000  0.4957640000000 1.0
C      1  0.4952170000000  0.5536920000000  0.4482980000000 1.0
C      1  0.4890950000000  0.5353210000000  0.4990630000000 1.0
C      1  0.5450650000000  0.5743650000000  0.4465330000000 1.0
C      1  0.4854760000000  0.5916420000000  0.4807130000000 1.0
C      1  0.4368690000000  0.5569410000000  0.5287430000000 1.0
C      1  0.6028760000000  0.4956440000000  0.5043130000000 1.0
C      1  0.5262980000000  0.5337850000000  0.4800030000000 1.0
C      1  0.5913860000000  0.5449230000000  0.4751350000000 1.0
C      1  0.4946480000000  0.5937170000000  0.5274670000000 1.0
C      1  0.5344290000000  0.4716630000000  0.5607210000000 1.0
C      1  0.4997350000000  0.4695740000000  0.5969420000000 1.0
C      1  0.5500320000000  0.5301440000000  0.5847180000000 1.0
C      1  0.4448350000000  0.5340070000000  0.5517140000000 1.0
C      1  0.5084450000000  0.4580010000000  0.4707150000000 1.0
C      1  0.5820990000000  0.4887190000000  0.4550380000000 1.0
C      1  0.5649200000000  0.4196310000000  0.5511130000000 1.0
C      1  0.4485500000000  0.4181020000000  0.4855890000000 1.0
C      1  0.5015410000000  0.5437120000000  0.5762510000000 1.0
C      1  0.5786700000000  0.5347530000000  0.4466960000000 1.0
C      1  0.4614570000000  0.5146320000000  0.5209110000000 1.0
C      1  0.5536640000000  0.4288260000000  0.4856560000000 1.0
C      1  0.5841870000000  0.5289200000000  0.5493910000000 1.0
C      1  0.4605020000000  0.4050590000000  0.5381370000000 1.0
C      1  0.4876440000000  0.5866690000000  0.5544870000000 1.0
C      1  0.4795550000000  0.5813410000000  0.4534950000000 1.0
C      1  0.4410680000000  0.4740580000000  0.5098410000000 1.0
C      1  0.5372250000000  0.4983020000000  0.4340610000000 1.0
C      1  0.4735110000000  0.5064720000000  0.5517280000000 1.0
C      1  0.4945230000000  0.4291240000000  0.4733040000000 1.0
C      1  0.4146040000000  0.5346170000000  0.4889870000000 1.0
C      1  0.4812110000000  0.5024230000000  0.6098390000000 1.0
C      1  0.5097800000000  0.5040160000000  0.6143770000000 1.0
C      1  0.5750170000000  0.4937110000000  0.4847290000000 1.0
C      1  0.5258130000000  0.5837010000000  0.5218060000000 1.0
C      1  0.5448580000000  0.5072640000000  0.3951170000000 1.0
C      1  0.4116380000000  0.4704680000000  0.4454140000000 1.0
C      1  0.5205000000000  0.4457770000000  0.5528360000000 1.0
C      1  0.4945530000000  0.4435840000000  0.4361490000000 1.0
C      1  0.5257360000000  0.5464090000000  0.4504010000000 1.0
C      1  0.5085430000000  0.5711090000000  0.5664600000000 1.0
C      1  0.5485860000000  0.4830090000000  0.4997580000000 1.0
C      1  0.5050860000000  0.4855320000000  0.5193140000000 1.0
C      1  0.4581060000000  0.4664940000000  0.4087850000000 1.0
C      1  0.4569190000000  0.5690970000000  0.5088630000000 1.0
C      1  0.4263540000000  0.4194780000000  0.5052700000000 1.0
C      1  0.4872690000000  0.4502680000000  0.5541450000000 1.0
C      1  0.5680540000000  0.5043450000000  0.4093500000000 1.0
C      1  0.4472150000000  0.4560030000000  0.4729560000000 1.0
C      1  0.5051320000000  0.4081530000000  0.4939990000000 1.0
C      1  0.4693480000000  0.5070940000000  0.5856900000000 1.0
C      1  0.4843180000000  0.4773060000000  0.3988480000000 1.0
C      1  0.4782550000000  0.4776650000000  0.5391820000000 1.0
C      1  0.4144130000000  0.5754500000000  0.5370850000000 1.0
C      1  0.5772110000000  0.4410230000000  0.5358720000000 1.0
C      1  0.5077150000000  0.4625330000000  0.4132970000000 1.0
C      1  0.4853410000000  0.4127420000000  0.5215330000000 1.0
C      1  0.5428460000000  0.5257070000000  0.4318230000000 1.0
END
