TITL C-2778426-5645-600 -0.00467740305002298 125000 -1119.66612869516 0 0 195 (C1) n - 1
REM
REM in /home/nfs/bkarasulu/CARBON/AIRSS/Generating-Clusters/REBO/Only-C1/SD-CG/HFTN-CG
REM
REM
REM
REM
REM
REM ./C.cell (11c1c37f851c82e70ff6c80c92926a4b)
REM
REM compiler GCC version 9.2.1 20190827 (Red Hat 9.2.1-1)
REM options -cpp -mtune=generic -march=x86-64 -g -O0 -fpre-include=/usr/include/finclude/math-vector-fortran.h
REM seed 1738562822 -2127744558 1344439643 -179277703 -138858841 1757968656 1691494223 -434473162 1882944984 1697090135 1201120102 2105105770 2114408268 1803624602 -1509168727 -1568920956 845820662 429102063 177023998 -707975263 2146362557 -508526655 1320986491 1655602763 -1615446559 -1139977863 1280598189 -1321025104 -1473271331 -1099403010 -2036623100 1598648395 695170419
REM
CELL 1.54180   50.00000   50.00000   50.00000   90.00000   90.00000   90.00000
LATT -1
SFAC C  
C      1  0.5757010000000  0.4729380000000  0.4802950000000 1.0
C      1  0.5637240000000  0.4322940000000  0.4520580000000 1.0
C      1  0.5120570000000  0.4994090000000  0.6074650000000 1.0
C      1  0.5487440000000  0.5307380000000  0.5101190000000 1.0
C      1  0.4810710000000  0.5921680000000  0.5281360000000 1.0
C      1  0.4260500000000  0.4840720000000  0.4776070000000 1.0
C      1  0.5259540000000  0.5526370000000  0.4823620000000 1.0
C      1  0.4753140000000  0.4179360000000  0.4351960000000 1.0
C      1  0.4071470000000  0.5668840000000  0.5242680000000 1.0
C      1  0.4509170000000  0.4035910000000  0.5711810000000 1.0
C      1  0.4094150000000  0.4424360000000  0.5118440000000 1.0
C      1  0.4603850000000  0.4122640000000  0.4718510000000 1.0
C      1  0.5052880000000  0.5295260000000  0.4498170000000 1.0
C      1  0.5938410000000  0.5295870000000  0.5565340000000 1.0
C      1  0.4783390000000  0.4832650000000  0.5547940000000 1.0
C      1  0.4074260000000  0.4923080000000  0.5663270000000 1.0
C      1  0.4297850000000  0.5824070000000  0.5315550000000 1.0
C      1  0.5489170000000  0.4682410000000  0.4641330000000 1.0
C      1  0.5059340000000  0.4779240000000  0.4549600000000 1.0
C      1  0.5035330000000  0.3926080000000  0.4911470000000 1.0
C      1  0.4409330000000  0.4500970000000  0.4098180000000 1.0
C      1  0.5764820000000  0.4381100000000  0.4764480000000 1.0
C      1  0.5030980000000  0.5617410000000  0.4613810000000 1.0
C      1  0.5545240000000  0.6057330000000  0.4749540000000 1.0
C      1  0.5086840000000  0.4534800000000  0.5865060000000 1.0
C      1  0.5199920000000  0.5031170000000  0.5312390000000 1.0
C      1  0.4480760000000  0.4304200000000  0.4357730000000 1.0
C      1  0.5213750000000  0.5366860000000  0.4015460000000 1.0
C      1  0.5640550000000  0.4469800000000  0.5668500000000 1.0
C      1  0.4451940000000  0.5334090000000  0.5445900000000 1.0
C      1  0.4612180000000  0.4287960000000  0.5873100000000 1.0
C      1  0.5251290000000  0.6044530000000  0.4920720000000 1.0
C      1  0.4964240000000  0.5437180000000  0.5400830000000 1.0
C      1  0.5905110000000  0.4432180000000  0.5022200000000 1.0
C      1  0.5378300000000  0.4729890000000  0.5123140000000 1.0
C      1  0.5381970000000  0.5818780000000  0.5364920000000 1.0
C      1  0.4505310000000  0.4005020000000  0.5161390000000 1.0
C      1  0.3902110000000  0.5248100000000  0.4758380000000 1.0
C      1  0.4266700000000  0.4955000000000  0.4143950000000 1.0
C      1  0.4054460000000  0.4723970000000  0.5028820000000 1.0
C      1  0.4942460000000  0.4261500000000  0.5793330000000 1.0
C      1  0.5521720000000  0.5014620000000  0.5421490000000 1.0
C      1  0.5657850000000  0.5707910000000  0.4310990000000 1.0
C      1  0.4675160000000  0.5306660000000  0.4789770000000 1.0
C      1  0.5349910000000  0.3901440000000  0.4828940000000 1.0
C      1  0.5879420000000  0.4739160000000  0.4422920000000 1.0
C      1  0.4926900000000  0.4232660000000  0.4940660000000 1.0
C      1  0.5428550000000  0.4883290000000  0.6036190000000 1.0
C      1  0.5865940000000  0.4990880000000  0.4994850000000 1.0
C      1  0.4389340000000  0.5242500000000  0.4922360000000 1.0
C      1  0.4323560000000  0.4061700000000  0.4903750000000 1.0
C      1  0.5232540000000  0.5048530000000  0.3909030000000 1.0
C      1  0.5220400000000  0.5383640000000  0.5618200000000 1.0
C      1  0.4402750000000  0.5815680000000  0.4774660000000 1.0
C      1  0.5914450000000  0.5617680000000  0.4486560000000 1.0
C      1  0.4297790000000  0.4658280000000  0.5478110000000 1.0
C      1  0.5533240000000  0.5602040000000  0.5504230000000 1.0
C      1  0.6013720000000  0.5294250000000  0.4908160000000 1.0
C      1  0.4667980000000  0.5992410000000  0.4702670000000 1.0
C      1  0.5921560000000  0.5607010000000  0.4792300000000 1.0
C      1  0.4571630000000  0.5065800000000  0.5303200000000 1.0
C      1  0.5169590000000  0.5021330000000  0.5776470000000 1.0
C      1  0.6031800000000  0.4966840000000  0.5554130000000 1.0
C      1  0.4217200000000  0.4392610000000  0.5360440000000 1.0
C      1  0.4813870000000  0.5042090000000  0.6101920000000 1.0
C      1  0.4252260000000  0.4664960000000  0.5801740000000 1.0
C      1  0.5518850000000  0.5956980000000  0.5116870000000 1.0
C      1  0.4396280000000  0.4385630000000  0.4661070000000 1.0
C      1  0.5427170000000  0.5068130000000  0.4726500000000 1.0
C      1  0.5651880000000  0.5531810000000  0.5794430000000 1.0
C      1  0.4497670000000  0.5825000000000  0.4384040000000 1.0
C      1  0.4783720000000  0.4577980000000  0.4550560000000 1.0
C      1  0.5357710000000  0.4274980000000  0.4156120000000 1.0
C      1  0.4954220000000  0.5918650000000  0.4531980000000 1.0
C      1  0.5435590000000  0.4944160000000  0.4447190000000 1.0
C      1  0.4192770000000  0.4504870000000  0.4345400000000 1.0
C      1  0.5062240000000  0.5087630000000  0.5057230000000 1.0
C      1  0.5830550000000  0.5083860000000  0.5805690000000 1.0
C      1  0.5775770000000  0.5251730000000  0.4687170000000 1.0
C      1  0.4725950000000  0.5885510000000  0.5608660000000 1.0
C      1  0.5149230000000  0.5457160000000  0.5921310000000 1.0
C      1  0.5144020000000  0.4121930000000  0.5557020000000 1.0
C      1  0.3880850000000  0.4729890000000  0.4751070000000 1.0
C      1  0.4893510000000  0.4739380000000  0.5832640000000 1.0
C      1  0.5375470000000  0.4780730000000  0.5710520000000 1.0
C      1  0.3857200000000  0.5435340000000  0.5234030000000 1.0
C      1  0.5541040000000  0.5268640000000  0.5597260000000 1.0
C      1  0.6086630000000  0.4659930000000  0.5016300000000 1.0
C      1  0.4669750000000  0.4747290000000  0.6031980000000 1.0
C      1  0.5965780000000  0.5130430000000  0.5266770000000 1.0
C      1  0.4897390000000  0.4696780000000  0.4055900000000 1.0
C      1  0.5014580000000  0.4492910000000  0.5475810000000 1.0
C      1  0.5448610000000  0.4864500000000  0.3947900000000 1.0
C      1  0.5214770000000  0.4699970000000  0.5421520000000 1.0
C      1  0.5162400000000  0.4326140000000  0.5149130000000 1.0
C      1  0.4771460000000  0.5612570000000  0.4826710000000 1.0
C      1  0.5479700000000  0.5377180000000  0.4670220000000 1.0
C      1  0.5332090000000  0.5424210000000  0.5298650000000 1.0
C      1  0.4434500000000  0.5744520000000  0.5604480000000 1.0
C      1  0.5509490000000  0.6107380000000  0.4485690000000 1.0
C      1  0.5523650000000  0.4233690000000  0.5476890000000 1.0
C      1  0.4816990000000  0.4960570000000  0.4440230000000 1.0
C      1  0.5467970000000  0.5370310000000  0.5976630000000 1.0
C      1  0.5453040000000  0.5039610000000  0.5002470000000 1.0
C      1  0.4531830000000  0.4659480000000  0.4768760000000 1.0
C      1  0.5678510000000  0.4791420000000  0.5612260000000 1.0
C      1  0.4287750000000  0.5459280000000  0.5718930000000 1.0
C      1  0.6075570000000  0.5096940000000  0.4634170000000 1.0
C      1  0.4061470000000  0.4459080000000  0.4651120000000 1.0
C      1  0.3989570000000  0.4867790000000  0.5333040000000 1.0
C      1  0.4852420000000  0.5368180000000  0.6002260000000 1.0
C      1  0.4170690000000  0.5362310000000  0.4485830000000 1.0
C      1  0.4430010000000  0.4284160000000  0.5517660000000 1.0
C      1  0.4476670000000  0.4919290000000  0.5593500000000 1.0
C      1  0.5276180000000  0.4581830000000  0.4399260000000 1.0
C      1  0.4250180000000  0.4720420000000  0.3957750000000 1.0
C      1  0.4610730000000  0.5174160000000  0.5869590000000 1.0
C      1  0.5007390000000  0.4593800000000  0.5089240000000 1.0
C      1  0.4147890000000  0.4818510000000  0.4469100000000 1.0
C      1  0.5279840000000  0.5730250000000  0.5048110000000 1.0
C      1  0.4563240000000  0.4567900000000  0.5070670000000 1.0
C      1  0.4478420000000  0.4548780000000  0.5946510000000 1.0
C      1  0.4109570000000  0.4248370000000  0.4899150000000 1.0
C      1  0.5685990000000  0.4457270000000  0.5271360000000 1.0
C      1  0.3900840000000  0.5144560000000  0.5153700000000 1.0
C      1  0.4461180000000  0.5932790000000  0.5088790000000 1.0
C      1  0.4006880000000  0.5467300000000  0.4943330000000 1.0
C      1  0.4650130000000  0.5222540000000  0.4484300000000 1.0
C      1  0.4510470000000  0.5510960000000  0.5192270000000 1.0
C      1  0.4969830000000  0.4246930000000  0.4103320000000 1.0
C      1  0.5011560000000  0.5293260000000  0.4839700000000 1.0
C      1  0.5723380000000  0.4963740000000  0.4323580000000 1.0
C      1  0.4894310000000  0.4012860000000  0.4610180000000 1.0
C      1  0.5387760000000  0.3968330000000  0.5374000000000 1.0
C      1  0.5682650000000  0.5023390000000  0.4034060000000 1.0
C      1  0.5764990000000  0.5857340000000  0.4947860000000 1.0
C      1  0.5002190000000  0.5055100000000  0.5552340000000 1.0
C      1  0.4631980000000  0.5571200000000  0.5832310000000 1.0
C      1  0.4649000000000  0.5646300000000  0.4508940000000 1.0
C      1  0.4542920000000  0.4939630000000  0.4251150000000 1.0
C      1  0.5233000000000  0.4006290000000  0.4574600000000 1.0
C      1  0.4944020000000  0.5702610000000  0.5805250000000 1.0
C      1  0.6065110000000  0.4797670000000  0.4703700000000 1.0
C      1  0.5939270000000  0.5469260000000  0.5280820000000 1.0
C      1  0.3833560000000  0.4992840000000  0.4683340000000 1.0
C      1  0.5056770000000  0.4325760000000  0.4413350000000 1.0
C      1  0.5191620000000  0.5092920000000  0.4304450000000 1.0
C      1  0.5611440000000  0.5399290000000  0.4359060000000 1.0
C      1  0.4634250000000  0.4277710000000  0.5024870000000 1.0
C      1  0.6104650000000  0.4756520000000  0.5295530000000 1.0
C      1  0.5444250000000  0.5890180000000  0.4314890000000 1.0
C      1  0.4230670000000  0.5075600000000  0.5096830000000 1.0
C      1  0.5316480000000  0.4373940000000  0.5709410000000 1.0
C      1  0.4983230000000  0.4465870000000  0.3939280000000 1.0
C      1  0.4215410000000  0.5616130000000  0.4571660000000 1.0
C      1  0.4308970000000  0.5129580000000  0.5800360000000 1.0
C      1  0.5070670000000  0.5562480000000  0.4168000000000 1.0
C      1  0.5049270000000  0.4818260000000  0.4875210000000 1.0
C      1  0.5608890000000  0.5112040000000  0.5994210000000 1.0
C      1  0.4804540000000  0.5619980000000  0.5160970000000 1.0
C      1  0.5463160000000  0.4332500000000  0.5060360000000 1.0
C      1  0.4740930000000  0.6125560000000  0.5067810000000 1.0
C      1  0.4673250000000  0.4638170000000  0.4255140000000 1.0
C      1  0.5913250000000  0.4589700000000  0.5501360000000 1.0
C      1  0.4970960000000  0.6088420000000  0.4826310000000 1.0
C      1  0.5471750000000  0.5232530000000  0.4168530000000 1.0
C      1  0.4355940000000  0.5133660000000  0.4624500000000 1.0
C      1  0.5419280000000  0.4159920000000  0.4417000000000 1.0
C      1  0.4780690000000  0.4729610000000  0.5258700000000 1.0
C      1  0.5687630000000  0.4800940000000  0.5213480000000 1.0
C      1  0.4695740000000  0.6416220000000  0.5143000000000 1.0
C      1  0.5007000000000  0.5747170000000  0.5481480000000 1.0
C      1  0.4317900000000  0.5557140000000  0.4952050000000 1.0
C      1  0.5166350000000  0.5806750000000  0.4290650000000 1.0
C      1  0.5446370000000  0.4600280000000  0.4111890000000 1.0
C      1  0.4747230000000  0.5334050000000  0.5607740000000 1.0
C      1  0.5038110000000  0.4424400000000  0.4726430000000 1.0
C      1  0.5985030000000  0.5747720000000  0.5160450000000 1.0
C      1  0.5321520000000  0.4533840000000  0.4849330000000 1.0
C      1  0.5081010000000  0.4014760000000  0.5237460000000 1.0
C      1  0.4810640000000  0.5453960000000  0.4323670000000 1.0
C      1  0.4391620000000  0.4804810000000  0.5221480000000 1.0
C      1  0.4747450000000  0.4915750000000  0.4759140000000 1.0
C      1  0.4631890000000  0.3962160000000  0.5410790000000 1.0
C      1  0.5936800000000  0.5293800000000  0.4391940000000 1.0
C      1  0.5713990000000  0.5489250000000  0.5034540000000 1.0
C      1  0.4187430000000  0.5134690000000  0.5422570000000 1.0
C      1  0.5698410000000  0.4529320000000  0.4331230000000 1.0
C      1  0.4759130000000  0.5167990000000  0.4031020000000 1.0
C      1  0.4755930000000  0.5004520000000  0.5068030000000 1.0
C      1  0.4076510000000  0.5114720000000  0.4340480000000 1.0
C      1  0.5539660000000  0.4050450000000  0.4955840000000 1.0
C      1  0.4975630000000  0.4984840000000  0.4074020000000 1.0
C      1  0.5257670000000  0.6025770000000  0.5553540000000 1.0
C      1  0.4770770000000  0.4258150000000  0.5508020000000 1.0
END
