TITL C-2778430-5657-81 0.00459134112247257 125000 -464.05163939045 0 0 81 (C1) n - 1
REM
REM in /home/nfs/bkarasulu/CARBON/AIRSS/Generating-Clusters/REBO/Only-C1/SD-CG/HFTN-CG
REM
REM
REM
REM
REM
REM ./C.cell (11c1c37f851c82e70ff6c80c92926a4b)
REM
REM compiler GCC version 9.2.1 20190827 (Red Hat 9.2.1-1)
REM options -cpp -mtune=generic -march=x86-64 -g -O0 -fpre-include=/usr/include/finclude/math-vector-fortran.h
REM seed -1760137740 61859887 -440868543 -441629889 1769076681 735911603 -1152248018 -1926152883 951673684 1737385917 1143195502 1387768232 -1191200430 -233688216 1997098760 1903722190 -678209702 -1357750754 915469773 1006523482 817664984 -839822462 2005149763 849755241 701523069 -117210882 1220719318 -400913070 -227985258 -600995267 -1487835157 173819467 -460940956
REM
CELL 1.54180   50.00000   50.00000   50.00000   90.00000   90.00000   90.00000
LATT -1
SFAC C  
C      1  0.5644250000000  0.5058430000000  0.5044820000000 1.0
C      1  0.4567960000000  0.5450450000000  0.4800740000000 1.0
C      1  0.4966340000000  0.5296390000000  0.5084270000000 1.0
C      1  0.5653090000000  0.5546150000000  0.4921970000000 1.0
C      1  0.5057830000000  0.4177740000000  0.5087440000000 1.0
C      1  0.4965570000000  0.5613570000000  0.4359460000000 1.0
C      1  0.5225450000000  0.5609340000000  0.5506100000000 1.0
C      1  0.4812920000000  0.5832330000000  0.4562610000000 1.0
C      1  0.4318830000000  0.4836560000000  0.5494470000000 1.0
C      1  0.4830520000000  0.4920770000000  0.4534750000000 1.0
C      1  0.5147650000000  0.4326480000000  0.4728680000000 1.0
C      1  0.4946130000000  0.4648860000000  0.5811120000000 1.0
C      1  0.4602570000000  0.4676440000000  0.4865070000000 1.0
C      1  0.4307400000000  0.5201840000000  0.4341350000000 1.0
C      1  0.5043210000000  0.5821590000000  0.4800290000000 1.0
C      1  0.5083390000000  0.4926200000000  0.4225640000000 1.0
C      1  0.4465550000000  0.4811610000000  0.5123940000000 1.0
C      1  0.5157480000000  0.5894770000000  0.5056960000000 1.0
C      1  0.5420750000000  0.4691770000000  0.5357490000000 1.0
C      1  0.5454950000000  0.5064200000000  0.4565890000000 1.0
C      1  0.5551960000000  0.5511080000000  0.4691220000000 1.0
C      1  0.5216060000000  0.5208030000000  0.5474100000000 1.0
C      1  0.5202550000000  0.4687880000000  0.5130590000000 1.0
C      1  0.5596630000000  0.4610820000000  0.4803090000000 1.0
C      1  0.4318630000000  0.5024370000000  0.4578900000000 1.0
C      1  0.4502710000000  0.5058450000000  0.4895560000000 1.0
C      1  0.4454660000000  0.5306870000000  0.5262410000000 1.0
C      1  0.4667130000000  0.5489400000000  0.5393670000000 1.0
C      1  0.5297400000000  0.4597510000000  0.4373830000000 1.0
C      1  0.4851470000000  0.4938580000000  0.5862860000000 1.0
C      1  0.4789570000000  0.5378740000000  0.4294860000000 1.0
C      1  0.4851040000000  0.4842770000000  0.5037660000000 1.0
C      1  0.5573320000000  0.4373680000000  0.5046790000000 1.0
C      1  0.5329620000000  0.4335660000000  0.4513650000000 1.0
C      1  0.4586550000000  0.4378670000000  0.4892820000000 1.0
C      1  0.4894720000000  0.5138200000000  0.4205760000000 1.0
C      1  0.4775780000000  0.5224670000000  0.4862990000000 1.0
C      1  0.5220370000000  0.4935670000000  0.4896490000000 1.0
C      1  0.5796310000000  0.4599510000000  0.5074910000000 1.0
C      1  0.4309120000000  0.5079510000000  0.5444770000000 1.0
C      1  0.4458520000000  0.4583980000000  0.5353430000000 1.0
C      1  0.4754410000000  0.4270610000000  0.4689980000000 1.0
C      1  0.4344420000000  0.5409770000000  0.4992210000000 1.0
C      1  0.5328690000000  0.4922850000000  0.5727850000000 1.0
C      1  0.5065200000000  0.4848040000000  0.5544800000000 1.0
C      1  0.5053430000000  0.5486340000000  0.5706820000000 1.0
C      1  0.5329980000000  0.6103430000000  0.5082760000000 1.0
C      1  0.4874000000000  0.5548780000000  0.5211510000000 1.0
C      1  0.4791320000000  0.5362940000000  0.5616480000000 1.0
C      1  0.4998960000000  0.5096260000000  0.4692600000000 1.0
C      1  0.4541720000000  0.4792870000000  0.4582170000000 1.0
C      1  0.4972840000000  0.4085730000000  0.4811040000000 1.0
C      1  0.5526950000000  0.5179760000000  0.5625640000000 1.0
C      1  0.4860220000000  0.4511080000000  0.4521220000000 1.0
C      1  0.4660220000000  0.5032080000000  0.5260200000000 1.0
C      1  0.4767350000000  0.4446620000000  0.5380000000000 1.0
C      1  0.4793520000000  0.5056420000000  0.5548630000000 1.0
C      1  0.4479370000000  0.4590660000000  0.4393380000000 1.0
C      1  0.5471510000000  0.5420970000000  0.5416820000000 1.0
C      1  0.5411860000000  0.4303370000000  0.5262610000000 1.0
C      1  0.5000020000000  0.4456770000000  0.5588720000000 1.0
C      1  0.5308720000000  0.4690200000000  0.4695150000000 1.0
C      1  0.5088450000000  0.5723350000000  0.5276800000000 1.0
C      1  0.5546180000000  0.5349620000000  0.5133970000000 1.0
C      1  0.5015370000000  0.4438850000000  0.5175850000000 1.0
C      1  0.5277990000000  0.5242470000000  0.5004450000000 1.0
C      1  0.4194670000000  0.5181860000000  0.4841300000000 1.0
C      1  0.4539420000000  0.4315900000000  0.5168590000000 1.0
C      1  0.5602340000000  0.4946010000000  0.4778980000000 1.0
C      1  0.4994420000000  0.4618980000000  0.4819410000000 1.0
C      1  0.5004480000000  0.4642570000000  0.4302640000000 1.0
C      1  0.4606440000000  0.5567580000000  0.4523100000000 1.0
C      1  0.5704400000000  0.4837830000000  0.5247520000000 1.0
C      1  0.5119280000000  0.5586870000000  0.4618140000000 1.0
C      1  0.5056740000000  0.5018930000000  0.5250790000000 1.0
C      1  0.4396020000000  0.5436750000000  0.4317920000000 1.0
C      1  0.5262760000000  0.4433520000000  0.5489040000000 1.0
C      1  0.5275740000000  0.5310290000000  0.4675010000000 1.0
C      1  0.5352460000000  0.4987880000000  0.4311830000000 1.0
C      1  0.5093080000000  0.5162070000000  0.5789970000000 1.0
C      1  0.5619110000000  0.4873540000000  0.5560630000000 1.0
END
