TITL C-2778429-3646-312 -0.000310002827083127 125000 -962.165426103639 0 0 167 (C1) n - 1
REM
REM in /home/nfs/bkarasulu/CARBON/AIRSS/Generating-Clusters/REBO/Only-C1/SD-CG/HFTN-CG
REM
REM
REM
REM
REM
REM ./C.cell (11c1c37f851c82e70ff6c80c92926a4b)
REM
REM compiler GCC version 9.2.1 20190827 (Red Hat 9.2.1-1)
REM options -cpp -mtune=generic -march=x86-64 -g -O0 -fpre-include=/usr/include/finclude/math-vector-fortran.h
REM seed -538682274 688879159 -1254072689 1617642005 -932476736 2085565815 673582366 -447471312 -822480718 1749926741 1526523024 1069828145 382845094 -612808214 -961544658 -145868455 724339378 283245378 1373699364 1711467488 353431531 812610580 -1432717120 -136537409 -129468792 2084902228 -833653999 1321334580 739186580 1207583857 2107493486 544329132 -1650295057
REM
CELL 1.54180   50.00000   50.00000   50.00000   90.00000   90.00000   90.00000
LATT -1
SFAC C  
C      1  0.4404810000000  0.5419410000000  0.4171790000000 1.0
C      1  0.4078900000000  0.5064180000000  0.5078880000000 1.0
C      1  0.5230170000000  0.5002970000000  0.4263260000000 1.0
C      1  0.5222610000000  0.5858050000000  0.5622580000000 1.0
C      1  0.4802620000000  0.5639230000000  0.5310460000000 1.0
C      1  0.4220730000000  0.4895500000000  0.5339760000000 1.0
C      1  0.4458740000000  0.5183370000000  0.5865500000000 1.0
C      1  0.4467300000000  0.5807370000000  0.4641810000000 1.0
C      1  0.5853990000000  0.5551460000000  0.4815810000000 1.0
C      1  0.5571320000000  0.5400260000000  0.4932040000000 1.0
C      1  0.5483200000000  0.4304840000000  0.4727660000000 1.0
C      1  0.5453810000000  0.4883240000000  0.4487610000000 1.0
C      1  0.5911340000000  0.4735760000000  0.5266800000000 1.0
C      1  0.4957650000000  0.5033660000000  0.3933360000000 1.0
C      1  0.4170060000000  0.4303910000000  0.5090450000000 1.0
C      1  0.4213990000000  0.5604220000000  0.5366420000000 1.0
C      1  0.4226610000000  0.5466780000000  0.5065670000000 1.0
C      1  0.5959040000000  0.5235960000000  0.4830320000000 1.0
C      1  0.4810160000000  0.4755510000000  0.5482240000000 1.0
C      1  0.3900550000000  0.4834750000000  0.4636460000000 1.0
C      1  0.4754760000000  0.5276110000000  0.4516210000000 1.0
C      1  0.5255580000000  0.5628850000000  0.5298090000000 1.0
C      1  0.5219800000000  0.4969850000000  0.5161970000000 1.0
C      1  0.5235220000000  0.4730010000000  0.3974720000000 1.0
C      1  0.5846880000000  0.5374420000000  0.4536580000000 1.0
C      1  0.4053090000000  0.4684680000000  0.4464160000000 1.0
C      1  0.4421930000000  0.4588040000000  0.4682090000000 1.0
C      1  0.4565430000000  0.5901110000000  0.4997890000000 1.0
C      1  0.4397210000000  0.4822480000000  0.5710600000000 1.0
C      1  0.4856510000000  0.5559180000000  0.4658080000000 1.0
C      1  0.4984910000000  0.4659320000000  0.5241930000000 1.0
C      1  0.4103800000000  0.4338000000000  0.4824590000000 1.0
C      1  0.4745510000000  0.5351960000000  0.5948500000000 1.0
C      1  0.4776920000000  0.5754860000000  0.4395930000000 1.0
C      1  0.5283410000000  0.4318570000000  0.5809070000000 1.0
C      1  0.4601720000000  0.4502680000000  0.5182860000000 1.0
C      1  0.4684850000000  0.4728170000000  0.6119860000000 1.0
C      1  0.4516520000000  0.4816820000000  0.5220670000000 1.0
C      1  0.4842720000000  0.6038720000000  0.4982890000000 1.0
C      1  0.5208320000000  0.4811860000000  0.5451430000000 1.0
C      1  0.4778010000000  0.5953950000000  0.4663520000000 1.0
C      1  0.5410600000000  0.4499490000000  0.5233120000000 1.0
C      1  0.5275170000000  0.4627540000000  0.4385590000000 1.0
C      1  0.4945530000000  0.5421960000000  0.5162310000000 1.0
C      1  0.5352830000000  0.5995130000000  0.4855830000000 1.0
C      1  0.4853700000000  0.4890550000000  0.6313610000000 1.0
C      1  0.5512830000000  0.5757600000000  0.5446470000000 1.0
C      1  0.5430710000000  0.4004390000000  0.4848060000000 1.0
C      1  0.4017810000000  0.5570030000000  0.4621510000000 1.0
C      1  0.5833950000000  0.5136400000000  0.4318450000000 1.0
C      1  0.4656800000000  0.4188190000000  0.5299450000000 1.0
C      1  0.5020470000000  0.5706240000000  0.5756210000000 1.0
C      1  0.5123850000000  0.4566020000000  0.5642040000000 1.0
C      1  0.4923320000000  0.5270160000000  0.5674060000000 1.0
C      1  0.5909660000000  0.5109090000000  0.5403060000000 1.0
C      1  0.5585390000000  0.5596480000000  0.4524960000000 1.0
C      1  0.4497240000000  0.5340800000000  0.4988900000000 1.0
C      1  0.4738730000000  0.4813060000000  0.4331150000000 1.0
C      1  0.4625420000000  0.5142030000000  0.5214280000000 1.0
C      1  0.4144540000000  0.4220220000000  0.4354450000000 1.0
C      1  0.4596330000000  0.4911140000000  0.4840710000000 1.0
C      1  0.4851150000000  0.4029380000000  0.5068630000000 1.0
C      1  0.4946130000000  0.5259830000000  0.4152450000000 1.0
C      1  0.5458220000000  0.5937590000000  0.5146170000000 1.0
C      1  0.5498050000000  0.4905310000000  0.4973010000000 1.0
C      1  0.4799280000000  0.5641530000000  0.5592500000000 1.0
C      1  0.4361350000000  0.4964930000000  0.4973080000000 1.0
C      1  0.4870980000000  0.4541200000000  0.4699810000000 1.0
C      1  0.5411000000000  0.5025210000000  0.3974630000000 1.0
C      1  0.5601110000000  0.5778970000000  0.4811730000000 1.0
C      1  0.5263600000000  0.5353090000000  0.5967170000000 1.0
C      1  0.5120230000000  0.5657130000000  0.4809400000000 1.0
C      1  0.5531360000000  0.4979830000000  0.5289830000000 1.0
C      1  0.5672740000000  0.5492880000000  0.5650650000000 1.0
C      1  0.5073570000000  0.4821930000000  0.4663630000000 1.0
C      1  0.5522000000000  0.4680640000000  0.4143050000000 1.0
C      1  0.4448960000000  0.5702150000000  0.4332990000000 1.0
C      1  0.4492600000000  0.5400200000000  0.5384040000000 1.0
C      1  0.4464850000000  0.4492770000000  0.4898000000000 1.0
C      1  0.5007610000000  0.4769680000000  0.4229420000000 1.0
C      1  0.5599070000000  0.4687280000000  0.5385690000000 1.0
C      1  0.5150560000000  0.4451370000000  0.5023710000000 1.0
C      1  0.4897270000000  0.4999180000000  0.5625120000000 1.0
C      1  0.5092330000000  0.6051790000000  0.4759450000000 1.0
C      1  0.5667270000000  0.4377940000000  0.4502300000000 1.0
C      1  0.4099000000000  0.4624900000000  0.5428180000000 1.0
C      1  0.5548820000000  0.4377080000000  0.4244840000000 1.0
C      1  0.5266480000000  0.4544190000000  0.4717110000000 1.0
C      1  0.5493100000000  0.5105260000000  0.6007340000000 1.0
C      1  0.5585640000000  0.5424210000000  0.5924480000000 1.0
C      1  0.4864490000000  0.4373910000000  0.4445110000000 1.0
C      1  0.5261800000000  0.5611370000000  0.4529130000000 1.0
C      1  0.4007530000000  0.5092920000000  0.4776970000000 1.0
C      1  0.4267400000000  0.5084940000000  0.4575560000000 1.0
C      1  0.4758840000000  0.4352020000000  0.5769830000000 1.0
C      1  0.5654560000000  0.5665520000000  0.5136030000000 1.0
C      1  0.5619190000000  0.4225750000000  0.5031750000000 1.0
C      1  0.4827070000000  0.4347770000000  0.4977100000000 1.0
C      1  0.5124350000000  0.5326760000000  0.4436380000000 1.0
C      1  0.5419600000000  0.4775960000000  0.5948860000000 1.0
C      1  0.4904480000000  0.5027830000000  0.5109370000000 1.0
C      1  0.5684470000000  0.4652490000000  0.5772350000000 1.0
C      1  0.5030660000000  0.4823750000000  0.5808760000000 1.0
C      1  0.4211300000000  0.4878950000000  0.4239390000000 1.0
C      1  0.4145760000000  0.5543360000000  0.4351080000000 1.0
C      1  0.5593430000000  0.5224180000000  0.5459630000000 1.0
C      1  0.5235680000000  0.4128750000000  0.5073360000000 1.0
C      1  0.5974560000000  0.5025450000000  0.5099690000000 1.0
C      1  0.5186760000000  0.5137260000000  0.4686700000000 1.0
C      1  0.5807420000000  0.4602210000000  0.4587400000000 1.0
C      1  0.5172110000000  0.3944430000000  0.5290600000000 1.0
C      1  0.5138590000000  0.5491550000000  0.4073950000000 1.0
C      1  0.5140260000000  0.6000110000000  0.5384470000000 1.0
C      1  0.4117000000000  0.5279700000000  0.5335590000000 1.0
C      1  0.5086950000000  0.4168400000000  0.4407550000000 1.0
C      1  0.5279750000000  0.4264940000000  0.4198420000000 1.0
C      1  0.4913230000000  0.4017140000000  0.5412330000000 1.0
C      1  0.4847190000000  0.4520820000000  0.5992490000000 1.0
C      1  0.5188290000000  0.4539160000000  0.6034730000000 1.0
C      1  0.3862350000000  0.5359810000000  0.4706590000000 1.0
C      1  0.5065370000000  0.4847850000000  0.6107520000000 1.0
C      1  0.5534070000000  0.4427660000000  0.5605710000000 1.0
C      1  0.4833420000000  0.4744560000000  0.4968310000000 1.0
C      1  0.5507590000000  0.5181360000000  0.4327800000000 1.0
C      1  0.5074490000000  0.5839940000000  0.5096950000000 1.0
C      1  0.4565460000000  0.5442440000000  0.5684200000000 1.0
C      1  0.5636980000000  0.5542930000000  0.4224030000000 1.0
C      1  0.5783380000000  0.4486620000000  0.5088930000000 1.0
C      1  0.5056250000000  0.3930500000000  0.4553820000000 1.0
C      1  0.5947130000000  0.5384100000000  0.5543320000000 1.0
C      1  0.4637730000000  0.5236180000000  0.4208340000000 1.0
C      1  0.4749320000000  0.4892260000000  0.3900750000000 1.0
C      1  0.5376570000000  0.4953850000000  0.5657570000000 1.0
C      1  0.4620470000000  0.5597080000000  0.4857530000000 1.0
C      1  0.5302870000000  0.5524770000000  0.5015400000000 1.0
C      1  0.4165870000000  0.5211330000000  0.4284110000000 1.0
C      1  0.4482800000000  0.4876000000000  0.5990350000000 1.0
C      1  0.4508680000000  0.4343390000000  0.5537080000000 1.0
C      1  0.5072280000000  0.5693060000000  0.4285590000000 1.0
C      1  0.4837380000000  0.4418880000000  0.4150610000000 1.0
C      1  0.4514300000000  0.4936310000000  0.4117340000000 1.0
C      1  0.4266200000000  0.5110560000000  0.5590510000000 1.0
C      1  0.4228660000000  0.4389970000000  0.5358580000000 1.0
C      1  0.5413620000000  0.5358140000000  0.4056910000000 1.0
C      1  0.5322460000000  0.5271630000000  0.5653910000000 1.0
C      1  0.5024570000000  0.5256240000000  0.4922020000000 1.0
C      1  0.5000690000000  0.4188000000000  0.5666740000000 1.0
C      1  0.4210640000000  0.5663330000000  0.4812960000000 1.0
C      1  0.5915140000000  0.4823290000000  0.5587720000000 1.0
C      1  0.4506740000000  0.5703330000000  0.5224600000000 1.0
C      1  0.4486960000000  0.5261800000000  0.4686910000000 1.0
C      1  0.5494130000000  0.5149850000000  0.4780840000000 1.0
C      1  0.5731990000000  0.4998980000000  0.4602500000000 1.0
C      1  0.5103710000000  0.4437720000000  0.4028840000000 1.0
C      1  0.5715270000000  0.4936110000000  0.4091260000000 1.0
C      1  0.5975440000000  0.4903860000000  0.4788140000000 1.0
C      1  0.5021710000000  0.5516390000000  0.5972170000000 1.0
C      1  0.4778190000000  0.4970680000000  0.4602010000000 1.0
C      1  0.4092290000000  0.4409900000000  0.4543760000000 1.0
C      1  0.4434060000000  0.4804830000000  0.4483690000000 1.0
C      1  0.4572720000000  0.4647930000000  0.5577140000000 1.0
C      1  0.5103370000000  0.5415080000000  0.5465720000000 1.0
C      1  0.5511420000000  0.4201320000000  0.5351390000000 1.0
C      1  0.5698060000000  0.4992460000000  0.5767990000000 1.0
C      1  0.5096710000000  0.3920440000000  0.4858420000000 1.0
C      1  0.5196960000000  0.4320010000000  0.5421920000000 1.0
C      1  0.5720950000000  0.4715810000000  0.4883760000000 1.0
END
