TITL C-2778427-5640-1205 -0.00515468933027552 125000 -1110.46975522695 0 0 192 (C1) n - 1
REM
REM in /home/nfs/bkarasulu/CARBON/AIRSS/Generating-Clusters/REBO/Only-C1/SD-CG/HFTN-CG
REM
REM
REM
REM
REM
REM ./C.cell (11c1c37f851c82e70ff6c80c92926a4b)
REM
REM compiler GCC version 9.2.1 20190827 (Red Hat 9.2.1-1)
REM options -cpp -mtune=generic -march=x86-64 -g -O0 -fpre-include=/usr/include/finclude/math-vector-fortran.h
REM seed 737114785 -245062821 -1188601271 -1782193068 1057694647 -536506696 -978065080 -2022709724 748537183 -1982574378 1117047024 991994933 494661503 891058203 -2068293804 767831190 199639915 -975655941 -974110280 -544522530 -2006990414 -135771187 983873746 1308767107 1236173103 -2099655735 1074729899 684245180 -588552693 1716072095 -525144946 1598092381 405971410
REM
CELL 1.54180   50.00000   50.00000   50.00000   90.00000   90.00000   90.00000
LATT -1
SFAC C  
C      1  0.4979550000000  0.5337990000000  0.5989700000000 1.0
C      1  0.4810350000000  0.6032230000000  0.4661760000000 1.0
C      1  0.4873450000000  0.5422110000000  0.5187430000000 1.0
C      1  0.4903270000000  0.4393630000000  0.4073940000000 1.0
C      1  0.4670080000000  0.4515560000000  0.4212870000000 1.0
C      1  0.4819770000000  0.4440140000000  0.5651070000000 1.0
C      1  0.5211310000000  0.4943270000000  0.5725670000000 1.0
C      1  0.5388730000000  0.4549510000000  0.4796880000000 1.0
C      1  0.4622840000000  0.4396820000000  0.5008340000000 1.0
C      1  0.5444670000000  0.6060970000000  0.5005000000000 1.0
C      1  0.4921480000000  0.5712730000000  0.5121450000000 1.0
C      1  0.4431540000000  0.5011940000000  0.5494650000000 1.0
C      1  0.4637520000000  0.4088680000000  0.5595340000000 1.0
C      1  0.4872470000000  0.4600820000000  0.4694010000000 1.0
C      1  0.5456940000000  0.4775490000000  0.5995760000000 1.0
C      1  0.5469280000000  0.5547060000000  0.5123330000000 1.0
C      1  0.5106080000000  0.5556770000000  0.4052850000000 1.0
C      1  0.4263840000000  0.4328410000000  0.4528520000000 1.0
C      1  0.5140690000000  0.4087000000000  0.4475050000000 1.0
C      1  0.4171780000000  0.4979250000000  0.4085770000000 1.0
C      1  0.4471030000000  0.5565700000000  0.5898790000000 1.0
C      1  0.5576230000000  0.4395140000000  0.5452950000000 1.0
C      1  0.4458080000000  0.5060940000000  0.6003610000000 1.0
C      1  0.4768550000000  0.5162180000000  0.5700370000000 1.0
C      1  0.4602570000000  0.4053660000000  0.5055720000000 1.0
C      1  0.5277230000000  0.4244840000000  0.5816180000000 1.0
C      1  0.4677090000000  0.5307450000000  0.4915800000000 1.0
C      1  0.5483990000000  0.4383940000000  0.4195240000000 1.0
C      1  0.5807390000000  0.5756840000000  0.4960170000000 1.0
C      1  0.4713330000000  0.5369820000000  0.4243530000000 1.0
C      1  0.4261310000000  0.4653900000000  0.4831090000000 1.0
C      1  0.5063120000000  0.6011090000000  0.4453520000000 1.0
C      1  0.4293590000000  0.4658540000000  0.4435680000000 1.0
C      1  0.4422520000000  0.5732780000000  0.4517190000000 1.0
C      1  0.5968610000000  0.5468760000000  0.5055250000000 1.0
C      1  0.5321810000000  0.3999950000000  0.5393370000000 1.0
C      1  0.5254040000000  0.5538840000000  0.5980870000000 1.0
C      1  0.5436540000000  0.4181590000000  0.5582880000000 1.0
C      1  0.4658220000000  0.4879480000000  0.4055270000000 1.0
C      1  0.5356210000000  0.5392400000000  0.4168390000000 1.0
C      1  0.5497700000000  0.5139880000000  0.4904710000000 1.0
C      1  0.5047570000000  0.5038200000000  0.6003100000000 1.0
C      1  0.5174500000000  0.5883640000000  0.5568780000000 1.0
C      1  0.5597660000000  0.4691020000000  0.4999390000000 1.0
C      1  0.4507700000000  0.4867840000000  0.5752660000000 1.0
C      1  0.5351830000000  0.5096610000000  0.4053360000000 1.0
C      1  0.5761210000000  0.5648070000000  0.4424860000000 1.0
C      1  0.4653720000000  0.5315540000000  0.5969120000000 1.0
C      1  0.4750160000000  0.4896790000000  0.6069030000000 1.0
C      1  0.3946400000000  0.4856140000000  0.5358360000000 1.0
C      1  0.4387890000000  0.4173980000000  0.5502990000000 1.0
C      1  0.4428530000000  0.4585410000000  0.5879280000000 1.0
C      1  0.5358020000000  0.4621000000000  0.4050210000000 1.0
C      1  0.4694000000000  0.5309250000000  0.5419620000000 1.0
C      1  0.4530080000000  0.5643580000000  0.4210230000000 1.0
C      1  0.5420690000000  0.5891320000000  0.4647610000000 1.0
C      1  0.4830150000000  0.4829820000000  0.5739030000000 1.0
C      1  0.4299550000000  0.5229950000000  0.4775430000000 1.0
C      1  0.4870590000000  0.4514220000000  0.5191680000000 1.0
C      1  0.4732360000000  0.4801970000000  0.4378030000000 1.0
C      1  0.4971060000000  0.5504020000000  0.5704460000000 1.0
C      1  0.5488290000000  0.4076920000000  0.4944080000000 1.0
C      1  0.5142720000000  0.5383600000000  0.5481380000000 1.0
C      1  0.5671640000000  0.4909370000000  0.4745900000000 1.0
C      1  0.5638890000000  0.5908790000000  0.5130320000000 1.0
C      1  0.5430130000000  0.4755380000000  0.5544520000000 1.0
C      1  0.5932180000000  0.5068080000000  0.4582900000000 1.0
C      1  0.5873240000000  0.5423530000000  0.4753740000000 1.0
C      1  0.5483970000000  0.4430510000000  0.4541250000000 1.0
C      1  0.5684540000000  0.5610210000000  0.5598060000000 1.0
C      1  0.4734400000000  0.5780940000000  0.5862970000000 1.0
C      1  0.5745590000000  0.5517180000000  0.5274040000000 1.0
C      1  0.5490820000000  0.5426950000000  0.5763560000000 1.0
C      1  0.4598390000000  0.4277160000000  0.4502770000000 1.0
C      1  0.4569280000000  0.5583540000000  0.4987210000000 1.0
C      1  0.4677760000000  0.5276130000000  0.4629350000000 1.0
C      1  0.4866490000000  0.4097020000000  0.5451010000000 1.0
C      1  0.5041960000000  0.5196500000000  0.5033920000000 1.0
C      1  0.5753080000000  0.4951980000000  0.5146930000000 1.0
C      1  0.5075690000000  0.5090650000000  0.3957140000000 1.0
C      1  0.5940370000000  0.4391600000000  0.5013140000000 1.0
C      1  0.4692900000000  0.5888960000000  0.4379800000000 1.0
C      1  0.5004680000000  0.4807730000000  0.5109240000000 1.0
C      1  0.5672140000000  0.4816250000000  0.4415250000000 1.0
C      1  0.4767470000000  0.3991680000000  0.4577210000000 1.0
C      1  0.5757060000000  0.4323840000000  0.4366740000000 1.0
C      1  0.5204990000000  0.4376190000000  0.4371260000000 1.0
C      1  0.4350270000000  0.4156900000000  0.5206820000000 1.0
C      1  0.6022350000000  0.5139770000000  0.5056900000000 1.0
C      1  0.5407840000000  0.3969090000000  0.4649450000000 1.0
C      1  0.5616830000000  0.4131110000000  0.5157600000000 1.0
C      1  0.5472350000000  0.5099430000000  0.5221010000000 1.0
C      1  0.5024590000000  0.3944890000000  0.4756580000000 1.0
C      1  0.5236280000000  0.3685550000000  0.4725670000000 1.0
C      1  0.4364130000000  0.4922920000000  0.3929400000000 1.0
C      1  0.5139260000000  0.5572210000000  0.4448440000000 1.0
C      1  0.5480860000000  0.4862250000000  0.4137600000000 1.0
C      1  0.4896190000000  0.6086430000000  0.4986390000000 1.0
C      1  0.4845170000000  0.5044100000000  0.4537450000000 1.0
C      1  0.5430220000000  0.4507320000000  0.5231770000000 1.0
C      1  0.5706750000000  0.5065470000000  0.5671430000000 1.0
C      1  0.4980580000000  0.5778770000000  0.4234290000000 1.0
C      1  0.4928240000000  0.5329490000000  0.4027150000000 1.0
C      1  0.4511000000000  0.5108670000000  0.4251570000000 1.0
C      1  0.5953040000000  0.4717170000000  0.5400890000000 1.0
C      1  0.5345690000000  0.6105990000000  0.5387630000000 1.0
C      1  0.4544650000000  0.4579780000000  0.4652520000000 1.0
C      1  0.5735310000000  0.5791720000000  0.4684020000000 1.0
C      1  0.4936440000000  0.4849800000000  0.3936880000000 1.0
C      1  0.4415780000000  0.5846740000000  0.5402940000000 1.0
C      1  0.5073310000000  0.5788470000000  0.5836730000000 1.0
C      1  0.3904790000000  0.5020200000000  0.4877260000000 1.0
C      1  0.5075650000000  0.4065140000000  0.5264710000000 1.0
C      1  0.4772790000000  0.4871410000000  0.5339310000000 1.0
C      1  0.4661340000000  0.5927380000000  0.5180870000000 1.0
C      1  0.4972070000000  0.4223810000000  0.5814750000000 1.0
C      1  0.3782140000000  0.4874690000000  0.5097310000000 1.0
C      1  0.4241890000000  0.4962870000000  0.4403290000000 1.0
C      1  0.4321320000000  0.5376940000000  0.4176550000000 1.0
C      1  0.5402370000000  0.5169990000000  0.5551190000000 1.0
C      1  0.4514290000000  0.3984340000000  0.4759390000000 1.0
C      1  0.5304360000000  0.5043230000000  0.4662900000000 1.0
C      1  0.4637240000000  0.5102590000000  0.5165070000000 1.0
C      1  0.5917570000000  0.5376170000000  0.4441600000000 1.0
C      1  0.5114440000000  0.4878240000000  0.4293810000000 1.0
C      1  0.5708820000000  0.5138230000000  0.4349260000000 1.0
C      1  0.5160860000000  0.4510370000000  0.5322010000000 1.0
C      1  0.6023850000000  0.4631210000000  0.5143720000000 1.0
C      1  0.4466790000000  0.5583700000000  0.5239630000000 1.0
C      1  0.5114000000000  0.5311960000000  0.4661490000000 1.0
C      1  0.4261300000000  0.5091190000000  0.5298180000000 1.0
C      1  0.4820920000000  0.5542930000000  0.4524260000000 1.0
C      1  0.6093460000000  0.4847780000000  0.4965670000000 1.0
C      1  0.4083870000000  0.4451450000000  0.4294660000000 1.0
C      1  0.4236600000000  0.4443210000000  0.5093090000000 1.0
C      1  0.5461620000000  0.5282700000000  0.6068370000000 1.0
C      1  0.4416130000000  0.5005930000000  0.4940780000000 1.0
C      1  0.4096690000000  0.4894600000000  0.4696240000000 1.0
C      1  0.5527620000000  0.5672920000000  0.4245250000000 1.0
C      1  0.4177810000000  0.4838160000000  0.5105790000000 1.0
C      1  0.5737960000000  0.4613450000000  0.5588200000000 1.0
C      1  0.5052440000000  0.5981730000000  0.5266890000000 1.0
C      1  0.4042750000000  0.5343190000000  0.4326870000000 1.0
C      1  0.5175600000000  0.4765720000000  0.4720060000000 1.0
C      1  0.5451540000000  0.5269980000000  0.4453540000000 1.0
C      1  0.4181780000000  0.5516360000000  0.4920130000000 1.0
C      1  0.4276450000000  0.5768410000000  0.4793580000000 1.0
C      1  0.5058390000000  0.4144170000000  0.4984560000000 1.0
C      1  0.4340000000000  0.4494290000000  0.5414340000000 1.0
C      1  0.5105960000000  0.4534080000000  0.5603340000000 1.0
C      1  0.5539500000000  0.5827730000000  0.5415720000000 1.0
C      1  0.5015860000000  0.5067830000000  0.5478200000000 1.0
C      1  0.4663920000000  0.5541270000000  0.5627960000000 1.0
C      1  0.3945570000000  0.5288670000000  0.4951710000000 1.0
C      1  0.5847650000000  0.4331070000000  0.4753300000000 1.0
C      1  0.5189800000000  0.5475250000000  0.4944150000000 1.0
C      1  0.5572490000000  0.5428980000000  0.4838870000000 1.0
C      1  0.4862320000000  0.4180150000000  0.4309390000000 1.0
C      1  0.4135510000000  0.5365240000000  0.5223110000000 1.0
C      1  0.5697520000000  0.4099750000000  0.4607420000000 1.0
C      1  0.4040450000000  0.5267480000000  0.4566130000000 1.0
C      1  0.4585140000000  0.5880510000000  0.4851290000000 1.0
C      1  0.4949710000000  0.4630710000000  0.5976730000000 1.0
C      1  0.4756620000000  0.3847760000000  0.5159980000000 1.0
C      1  0.6052250000000  0.4806990000000  0.4686940000000 1.0
C      1  0.5078500000000  0.4601660000000  0.3977450000000 1.0
C      1  0.5923150000000  0.5028730000000  0.5425860000000 1.0
C      1  0.4231340000000  0.5424150000000  0.5732890000000 1.0
C      1  0.5255610000000  0.4564110000000  0.5907980000000 1.0
C      1  0.4411490000000  0.5401910000000  0.4503530000000 1.0
C      1  0.4951390000000  0.4968360000000  0.4833990000000 1.0
C      1  0.5090670000000  0.4413380000000  0.4877480000000 1.0
C      1  0.5174360000000  0.5968960000000  0.4834660000000 1.0
C      1  0.5347170000000  0.5016910000000  0.6092990000000 1.0
C      1  0.5265990000000  0.5628790000000  0.5363160000000 1.0
C      1  0.4195200000000  0.5124260000000  0.5795110000000 1.0
C      1  0.4602110000000  0.4736790000000  0.5009290000000 1.0
C      1  0.4362000000000  0.4269370000000  0.4824720000000 1.0
C      1  0.5418520000000  0.5562310000000  0.4612340000000 1.0
C      1  0.5099390000000  0.5175520000000  0.4349680000000 1.0
C      1  0.5848900000000  0.5330770000000  0.5529170000000 1.0
C      1  0.4077820000000  0.4880140000000  0.5625360000000 1.0
C      1  0.5882220000000  0.4582550000000  0.4545410000000 1.0
C      1  0.5690340000000  0.4808010000000  0.5839460000000 1.0
C      1  0.5015590000000  0.4603290000000  0.4393780000000 1.0
C      1  0.5350180000000  0.5891720000000  0.4335090000000 1.0
C      1  0.4646930000000  0.4478880000000  0.6009210000000 1.0
C      1  0.4219530000000  0.5568930000000  0.5462010000000 1.0
C      1  0.5248500000000  0.4899550000000  0.5300050000000 1.0
C      1  0.4642140000000  0.4582800000000  0.5431290000000 1.0
C      1  0.4977510000000  0.5693140000000  0.4790140000000 1.0
C      1  0.4209430000000  0.4619720000000  0.5667090000000 1.0
END
