TITL C-2778436-5916-1137 -0.00108934783789656 125000 -499.168835149717 0 0 86 (C1) n - 1
REM
REM in /home/nfs/bkarasulu/CARBON/AIRSS/Generating-Clusters/REBO/Only-C1/SD-CG/HFTN-CG
REM
REM
REM
REM
REM
REM ./C.cell (11c1c37f851c82e70ff6c80c92926a4b)
REM
REM compiler GCC version 9.2.1 20190827 (Red Hat 9.2.1-1)
REM options -cpp -mtune=generic -march=x86-64 -g -O0 -fpre-include=/usr/include/finclude/math-vector-fortran.h
REM seed 617256040 1547438546 -1842914372 2022077489 1940546636 1227239297 -1420432174 -835924783 1186272355 -1349274771 1635969763 -854216136 -809388023 -578233297 -1972046092 1951626638 -114869787 -859636067 128616957 -262269791 977216637 1561706828 -1480185009 427183430 -1869104506 -2102133154 2119426884 691686818 -1798302736 -1539388365 1407456354 2045647329 6875913
REM
CELL 1.54180   50.00000   50.00000   50.00000   90.00000   90.00000   90.00000
LATT -1
SFAC C  
C      1  0.4941450000000  0.5635790000000  0.4593350000000 1.0
C      1  0.4389830000000  0.5392070000000  0.5422900000000 1.0
C      1  0.5386960000000  0.5928560000000  0.5256800000000 1.0
C      1  0.5605380000000  0.4317760000000  0.5045880000000 1.0
C      1  0.4981170000000  0.4271410000000  0.5501060000000 1.0
C      1  0.5100020000000  0.4106800000000  0.4825640000000 1.0
C      1  0.5260080000000  0.4828130000000  0.4699090000000 1.0
C      1  0.4553970000000  0.4957550000000  0.5059230000000 1.0
C      1  0.4554550000000  0.5297390000000  0.4289470000000 1.0
C      1  0.4121620000000  0.5256560000000  0.5257260000000 1.0
C      1  0.4669480000000  0.3999130000000  0.5230910000000 1.0
C      1  0.4684520000000  0.5756370000000  0.4540230000000 1.0
C      1  0.4861660000000  0.4664980000000  0.5778160000000 1.0
C      1  0.5031800000000  0.5150040000000  0.4758360000000 1.0
C      1  0.5698280000000  0.4740090000000  0.5390810000000 1.0
C      1  0.4806840000000  0.5265350000000  0.5077640000000 1.0
C      1  0.5467780000000  0.4708280000000  0.4455870000000 1.0
C      1  0.5548800000000  0.5551370000000  0.4872990000000 1.0
C      1  0.5296460000000  0.4670010000000  0.5418970000000 1.0
C      1  0.4475300000000  0.4934500000000  0.5554960000000 1.0
C      1  0.4546550000000  0.5861470000000  0.4807830000000 1.0
C      1  0.4599120000000  0.4701140000000  0.5258420000000 1.0
C      1  0.4731320000000  0.4476190000000  0.5124870000000 1.0
C      1  0.5733620000000  0.5195580000000  0.5170530000000 1.0
C      1  0.5720110000000  0.4920580000000  0.4455440000000 1.0
C      1  0.4650450000000  0.4961200000000  0.4742660000000 1.0
C      1  0.4117400000000  0.4943150000000  0.5158340000000 1.0
C      1  0.4243720000000  0.4981460000000  0.4655970000000 1.0
C      1  0.5711500000000  0.5298970000000  0.4870720000000 1.0
C      1  0.5551970000000  0.4454350000000  0.5342710000000 1.0
C      1  0.4482700000000  0.4857130000000  0.4495370000000 1.0
C      1  0.4946320000000  0.4593880000000  0.4434770000000 1.0
C      1  0.4888090000000  0.4940240000000  0.5122360000000 1.0
C      1  0.4491120000000  0.4518000000000  0.4707070000000 1.0
C      1  0.4716550000000  0.4527860000000  0.4557920000000 1.0
C      1  0.4166520000000  0.4370560000000  0.5040330000000 1.0
C      1  0.5183220000000  0.5211850000000  0.5406250000000 1.0
C      1  0.5078650000000  0.5438030000000  0.5173910000000 1.0
C      1  0.4631020000000  0.4789230000000  0.4267650000000 1.0
C      1  0.4942700000000  0.4821130000000  0.4763550000000 1.0
C      1  0.4784840000000  0.4821940000000  0.5513680000000 1.0
C      1  0.4951490000000  0.5158540000000  0.5726310000000 1.0
C      1  0.5053200000000  0.4901460000000  0.5798980000000 1.0
C      1  0.5731380000000  0.4773270000000  0.4894160000000 1.0
C      1  0.5395410000000  0.5656540000000  0.5354240000000 1.0
C      1  0.5795270000000  0.4884250000000  0.5159600000000 1.0
C      1  0.4267730000000  0.4563790000000  0.4877580000000 1.0
C      1  0.4868180000000  0.4916720000000  0.4215770000000 1.0
C      1  0.5239790000000  0.4350880000000  0.5431660000000 1.0
C      1  0.5740910000000  0.4324280000000  0.4791160000000 1.0
C      1  0.5194110000000  0.5585760000000  0.5547580000000 1.0
C      1  0.5418430000000  0.4779140000000  0.4956720000000 1.0
C      1  0.5110910000000  0.5702810000000  0.5077020000000 1.0
C      1  0.5092960000000  0.5791980000000  0.4775050000000 1.0
C      1  0.5071710000000  0.4892250000000  0.5374050000000 1.0
C      1  0.5313170000000  0.4829390000000  0.5707540000000 1.0
C      1  0.5190290000000  0.5209660000000  0.4983200000000 1.0
C      1  0.4457920000000  0.5565790000000  0.4802700000000 1.0
C      1  0.4439580000000  0.5552960000000  0.4460380000000 1.0
C      1  0.5706820000000  0.4583940000000  0.4665270000000 1.0
C      1  0.4406580000000  0.5238040000000  0.4588910000000 1.0
C      1  0.4787240000000  0.4238900000000  0.5282370000000 1.0
C      1  0.4645840000000  0.5436820000000  0.5541880000000 1.0
C      1  0.5260340000000  0.5980250000000  0.4987440000000 1.0
C      1  0.5355110000000  0.4480340000000  0.4998690000000 1.0
C      1  0.5373600000000  0.5036800000000  0.5104450000000 1.0
C      1  0.5369550000000  0.5082740000000  0.4554970000000 1.0
C      1  0.5123460000000  0.4368220000000  0.4895250000000 1.0
C      1  0.5334160000000  0.5403340000000  0.4460680000000 1.0
C      1  0.5553120000000  0.5486750000000  0.5183850000000 1.0
C      1  0.4847300000000  0.5227110000000  0.4286060000000 1.0
C      1  0.5177790000000  0.4809640000000  0.4310110000000 1.0
C      1  0.4900210000000  0.4542080000000  0.4912560000000 1.0
C      1  0.4882370000000  0.4386100000000  0.5745510000000 1.0
C      1  0.4842480000000  0.5216420000000  0.5405310000000 1.0
C      1  0.5683370000000  0.5140740000000  0.4644590000000 1.0
C      1  0.5173800000000  0.5152320000000  0.4296690000000 1.0
C      1  0.4625820000000  0.5286040000000  0.4843450000000 1.0
C      1  0.4293220000000  0.4817930000000  0.5350890000000 1.0
C      1  0.5564880000000  0.4920120000000  0.5574950000000 1.0
C      1  0.4954500000000  0.5344620000000  0.4569300000000 1.0
C      1  0.4425960000000  0.5193210000000  0.5174870000000 1.0
C      1  0.4956260000000  0.5483930000000  0.5674610000000 1.0
C      1  0.4165220000000  0.4837820000000  0.4887640000000 1.0
C      1  0.5410870000000  0.5597000000000  0.4630900000000 1.0
C      1  0.5494320000000  0.5153240000000  0.5395170000000 1.0
END
