TITL C-2778436-5916-736 0.00351724372575876 125000 -559.394903861836 0 0 96 (C1) n - 1
REM
REM in /home/nfs/bkarasulu/CARBON/AIRSS/Generating-Clusters/REBO/Only-C1/SD-CG/HFTN-CG
REM
REM
REM
REM
REM
REM ./C.cell (11c1c37f851c82e70ff6c80c92926a4b)
REM
REM compiler GCC version 9.2.1 20190827 (Red Hat 9.2.1-1)
REM options -cpp -mtune=generic -march=x86-64 -g -O0 -fpre-include=/usr/include/finclude/math-vector-fortran.h
REM seed -939520521 1225598524 -1788258847 1020169694 -1509993380 -2029902800 -1835079617 543731899 423568700 2067603654 -303067816 -731341530 -1750270618 -135513654 -971704997 -1802196771 -218736781 787894829 -261146142 1564966318 1177546312 -1290156107 -2095852464 -38686871 -1900737088 2026160575 -337220429 -955316817 29272854 2048848295 1034215153 159505657 -1183977832
REM
CELL 1.54180   50.00000   50.00000   50.00000   90.00000   90.00000   90.00000
LATT -1
SFAC C  
C      1  0.5536750000000  0.5752940000000  0.5340140000000 1.0
C      1  0.5631690000000  0.4929620000000  0.4291810000000 1.0
C      1  0.5108860000000  0.5565460000000  0.4436600000000 1.0
C      1  0.5450400000000  0.5176680000000  0.5193790000000 1.0
C      1  0.4733480000000  0.4627070000000  0.5413110000000 1.0
C      1  0.5616110000000  0.5641460000000  0.5071230000000 1.0
C      1  0.5410160000000  0.5668520000000  0.4884140000000 1.0
C      1  0.4249880000000  0.5212560000000  0.4844280000000 1.0
C      1  0.5025070000000  0.4913600000000  0.5851950000000 1.0
C      1  0.4485860000000  0.5085280000000  0.5298180000000 1.0
C      1  0.5828450000000  0.5147150000000  0.4703250000000 1.0
C      1  0.4686590000000  0.4301730000000  0.4688800000000 1.0
C      1  0.5336930000000  0.4869530000000  0.5759860000000 1.0
C      1  0.4740840000000  0.5834650000000  0.5367990000000 1.0
C      1  0.4559480000000  0.4437320000000  0.5242710000000 1.0
C      1  0.4374710000000  0.5340320000000  0.5677250000000 1.0
C      1  0.5470880000000  0.4828930000000  0.5537300000000 1.0
C      1  0.4415110000000  0.4688700000000  0.4523070000000 1.0
C      1  0.4549540000000  0.4178180000000  0.5294190000000 1.0
C      1  0.4673270000000  0.5754800000000  0.5095970000000 1.0
C      1  0.4419110000000  0.4448910000000  0.5768200000000 1.0
C      1  0.5568830000000  0.4540360000000  0.4354890000000 1.0
C      1  0.4493950000000  0.5881740000000  0.4937770000000 1.0
C      1  0.4827250000000  0.4230190000000  0.4930270000000 1.0
C      1  0.4339400000000  0.4677540000000  0.5632840000000 1.0
C      1  0.4700150000000  0.4420870000000  0.5810750000000 1.0
C      1  0.5590870000000  0.4988230000000  0.4684950000000 1.0
C      1  0.4864590000000  0.5457890000000  0.5418640000000 1.0
C      1  0.5913130000000  0.4866030000000  0.4972150000000 1.0
C      1  0.5617600000000  0.5205010000000  0.4265600000000 1.0
C      1  0.5336040000000  0.5397770000000  0.5637810000000 1.0
C      1  0.4862240000000  0.4246560000000  0.4466880000000 1.0
C      1  0.5781410000000  0.5388630000000  0.5139210000000 1.0
C      1  0.5030190000000  0.4522510000000  0.5379030000000 1.0
C      1  0.4098690000000  0.4697700000000  0.5092050000000 1.0
C      1  0.5278230000000  0.4404990000000  0.4259770000000 1.0
C      1  0.5355390000000  0.5187650000000  0.4652940000000 1.0
C      1  0.4211690000000  0.5299510000000  0.5494990000000 1.0
C      1  0.4429110000000  0.5472220000000  0.4713140000000 1.0
C      1  0.4852660000000  0.4659710000000  0.4312580000000 1.0
C      1  0.5540800000000  0.4913970000000  0.5279410000000 1.0
C      1  0.4573790000000  0.4722380000000  0.4272890000000 1.0
C      1  0.4922650000000  0.4791580000000  0.4578920000000 1.0
C      1  0.5080590000000  0.4298370000000  0.5552130000000 1.0
C      1  0.4554430000000  0.4896050000000  0.5519140000000 1.0
C      1  0.4591570000000  0.5651450000000  0.5595520000000 1.0
C      1  0.5521770000000  0.4493130000000  0.4664510000000 1.0
C      1  0.5359340000000  0.5357140000000  0.4377430000000 1.0
C      1  0.4727910000000  0.5252120000000  0.5187900000000 1.0
C      1  0.5821970000000  0.4747670000000  0.4448530000000 1.0
C      1  0.5910220000000  0.5185950000000  0.4993760000000 1.0
C      1  0.5496900000000  0.4271060000000  0.4994740000000 1.0
C      1  0.5036510000000  0.5867340000000  0.5397530000000 1.0
C      1  0.5106110000000  0.5528380000000  0.4949980000000 1.0
C      1  0.5259900000000  0.4756160000000  0.4969920000000 1.0
C      1  0.4893720000000  0.4223660000000  0.5745260000000 1.0
C      1  0.5169760000000  0.5699470000000  0.4675500000000 1.0
C      1  0.4415430000000  0.5169990000000  0.4370550000000 1.0
C      1  0.5237190000000  0.5166150000000  0.5850480000000 1.0
C      1  0.4545550000000  0.4994570000000  0.4168060000000 1.0
C      1  0.4842920000000  0.5477960000000  0.4383490000000 1.0
C      1  0.4464130000000  0.4485970000000  0.4719360000000 1.0
C      1  0.5300210000000  0.4260610000000  0.4722570000000 1.0
C      1  0.4817740000000  0.4696090000000  0.5738870000000 1.0
C      1  0.5106100000000  0.5186710000000  0.4311790000000 1.0
C      1  0.5150590000000  0.4244240000000  0.4456870000000 1.0
C      1  0.4787560000000  0.5124230000000  0.4880610000000 1.0
C      1  0.5099810000000  0.4306490000000  0.4962370000000 1.0
C      1  0.4883010000000  0.5118450000000  0.4553360000000 1.0
C      1  0.5095150000000  0.4627350000000  0.4166500000000 1.0
C      1  0.4728740000000  0.5027420000000  0.5750450000000 1.0
C      1  0.5542580000000  0.5416330000000  0.5391280000000 1.0
C      1  0.4549150000000  0.5412910000000  0.4466690000000 1.0
C      1  0.5944360000000  0.4764740000000  0.4701760000000 1.0
C      1  0.5642930000000  0.4468240000000  0.5107020000000 1.0
C      1  0.4222110000000  0.5253970000000  0.5180890000000 1.0
C      1  0.4683940000000  0.5333660000000  0.5750720000000 1.0
C      1  0.4358420000000  0.4889330000000  0.5094070000000 1.0
C      1  0.4820630000000  0.5519080000000  0.5026900000000 1.0
C      1  0.4317710000000  0.4994680000000  0.4608920000000 1.0
C      1  0.4525010000000  0.4922310000000  0.4844430000000 1.0
C      1  0.5149730000000  0.4538110000000  0.5119850000000 1.0
C      1  0.4759510000000  0.4730800000000  0.4824320000000 1.0
C      1  0.4883310000000  0.5668730000000  0.5701680000000 1.0
C      1  0.5020520000000  0.5397110000000  0.5781100000000 1.0
C      1  0.5217540000000  0.4902380000000  0.4571550000000 1.0
C      1  0.5343610000000  0.4793800000000  0.4311610000000 1.0
C      1  0.5496430000000  0.4736600000000  0.4804860000000 1.0
C      1  0.5265780000000  0.5257710000000  0.4958040000000 1.0
C      1  0.4787810000000  0.5179810000000  0.4229190000000 1.0
C      1  0.5327980000000  0.5930330000000  0.5390280000000 1.0
C      1  0.4401590000000  0.4561300000000  0.5015080000000 1.0
C      1  0.4283660000000  0.5524430000000  0.4990870000000 1.0
C      1  0.5085050000000  0.5002460000000  0.4877410000000 1.0
C      1  0.5718220000000  0.4738240000000  0.5137370000000 1.0
C      1  0.5155760000000  0.5572340000000  0.5435600000000 1.0
END
