TITL C-2778432-5617-1047 0.00595739312603455 125000 -219.368471753574 0 0 39 (C1) n - 1
REM
REM in /home/nfs/bkarasulu/CARBON/AIRSS/Generating-Clusters/REBO/Only-C1/SD-CG/HFTN-CG
REM
REM
REM
REM
REM
REM ./C.cell (11c1c37f851c82e70ff6c80c92926a4b)
REM
REM compiler GCC version 9.2.1 20190827 (Red Hat 9.2.1-1)
REM options -cpp -mtune=generic -march=x86-64 -g -O0 -fpre-include=/usr/include/finclude/math-vector-fortran.h
REM seed 756280976 -1044845848 977549318 1224053365 -782759867 1879204155 1584728786 -2066140002 623466757 -2024661938 1851617815 -1526194645 1697356235 1940431079 -1761780258 1272770898 970937002 -2004845229 -1386024555 -1096080886 102509873 481047100 1020156564 -1804364719 1519591646 -142447617 -2066777806 -95849754 -468944039 -175278851 1340035452 2010556941 -564859355
REM
CELL 1.54180   50.00000   50.00000   50.00000   90.00000   90.00000   90.00000
LATT -1
SFAC C  
C      1  0.4776050000000  0.4921070000000  0.4219420000000 1.0
C      1  0.5472880000000  0.4853040000000  0.4814060000000 1.0
C      1  0.5297490000000  0.5149400000000  0.4471150000000 1.0
C      1  0.4368370000000  0.5142240000000  0.4881310000000 1.0
C      1  0.4970660000000  0.5501160000000  0.5034950000000 1.0
C      1  0.5136080000000  0.4734650000000  0.5184600000000 1.0
C      1  0.5534150000000  0.5173630000000  0.4911110000000 1.0
C      1  0.4202750000000  0.5266570000000  0.5410950000000 1.0
C      1  0.5369010000000  0.5346660000000  0.4699600000000 1.0
C      1  0.5188760000000  0.4357880000000  0.4825890000000 1.0
C      1  0.4949860000000  0.5264310000000  0.5249300000000 1.0
C      1  0.5113660000000  0.5018220000000  0.5333710000000 1.0
C      1  0.5402530000000  0.4710910000000  0.5062320000000 1.0
C      1  0.5687600000000  0.5164320000000  0.5688270000000 1.0
C      1  0.4492250000000  0.5237590000000  0.4635480000000 1.0
C      1  0.5612360000000  0.4764450000000  0.5275340000000 1.0
C      1  0.5062340000000  0.5017240000000  0.4765190000000 1.0
C      1  0.5383550000000  0.4882750000000  0.4539680000000 1.0
C      1  0.5793390000000  0.4909990000000  0.5711440000000 1.0
C      1  0.4998010000000  0.5273700000000  0.4575420000000 1.0
C      1  0.4702140000000  0.5293430000000  0.4518440000000 1.0
C      1  0.5117080000000  0.5487030000000  0.4799550000000 1.0
C      1  0.4722450000000  0.4507470000000  0.4964240000000 1.0
C      1  0.4760620000000  0.4785020000000  0.4453430000000 1.0
C      1  0.4688330000000  0.5427290000000  0.5178980000000 1.0
C      1  0.4974740000000  0.4775830000000  0.4650470000000 1.0
C      1  0.4523650000000  0.4657320000000  0.4552340000000 1.0
C      1  0.4259450000000  0.5018140000000  0.5208110000000 1.0
C      1  0.5756020000000  0.4724150000000  0.5510690000000 1.0
C      1  0.4082520000000  0.5358810000000  0.5618150000000 1.0
C      1  0.5495190000000  0.5064880000000  0.5223280000000 1.0
C      1  0.5195040000000  0.5016190000000  0.5597920000000 1.0
C      1  0.4906360000000  0.4571730000000  0.5190070000000 1.0
C      1  0.5546050000000  0.5244570000000  0.5467520000000 1.0
C      1  0.4421300000000  0.5317430000000  0.5159230000000 1.0
C      1  0.5221050000000  0.5086000000000  0.5016630000000 1.0
C      1  0.4979510000000  0.4527680000000  0.4799650000000 1.0
C      1  0.4345940000000  0.4823260000000  0.4965560000000 1.0
C      1  0.4490810000000  0.4624010000000  0.4836530000000 1.0
END
