TITL C-2778432-5617-857 0.319754208075341 125000 -400.170841983814 0 0 70 (C1) n - 1
REM
REM in /home/nfs/bkarasulu/CARBON/AIRSS/Generating-Clusters/REBO/Only-C1/SD-CG/HFTN-CG
REM
REM
REM
REM
REM
REM ./C.cell (11c1c37f851c82e70ff6c80c92926a4b)
REM
REM compiler GCC version 9.2.1 20190827 (Red Hat 9.2.1-1)
REM options -cpp -mtune=generic -march=x86-64 -g -O0 -fpre-include=/usr/include/finclude/math-vector-fortran.h
REM seed 889769200 2032192741 -1976918019 594582645 -1313860385 1462254874 -1786305982 -1894483857 -1575526929 -826184732 602751876 1107914304 -626769217 -793295048 1108176822 1415729048 1240334357 -1793382965 -1510625297 568898660 -123646003 -2094775799 666668722 1094835521 886793612 700967533 -1406794910 2107765793 -1394382507 -2039955174 871804093 -1974236830 1009524439
REM
CELL 1.54180   50.00000   50.00000   50.00000   90.00000   90.00000   90.00000
LATT -1
SFAC C  
C      1  0.4299040000000  0.4587060000000  0.4693790000000 1.0
C      1  0.4403140000000  0.4428150000000  0.4448130000000 1.0
C      1  0.5270420000000  0.4709510000000  0.5069770000000 1.0
C      1  0.5533510000000  0.4241960000000  0.5082400000000 1.0
C      1  0.4599270000000  0.4251220000000  0.4922820000000 1.0
C      1  0.4815500000000  0.5525960000000  0.5817910000000 1.0
C      1  0.5019610000000  0.4378870000000  0.4399450000000 1.0
C      1  0.5506790000000  0.4826430000000  0.4550230000000 1.0
C      1  0.4627400000000  0.5318850000000  0.5744120000000 1.0
C      1  0.5694410000000  0.4918700000000  0.4886840000000 1.0
C      1  0.4983890000000  0.4703010000000  0.4319810000000 1.0
C      1  0.4672170000000  0.4437140000000  0.5198180000000 1.0
C      1  0.5798260000000  0.5070760000000  0.5122790000000 1.0
C      1  0.4532040000000  0.4818300000000  0.4754030000000 1.0
C      1  0.4982570000000  0.5014730000000  0.5689510000000 1.0
C      1  0.5263350000000  0.5093510000000  0.5171150000000 1.0
C      1  0.4918250000000  0.5807400000000  0.5063600000000 1.0
C      1  0.5808970000000  0.4911790000000  0.4567150000000 1.0
C      1  0.5482640000000  0.5603270000000  0.5018900000000 1.0
C      1  0.4708040000000  0.4322980000000  0.4339160000000 1.0
C      1  0.4230390000000  0.4920930000000  0.4668390000000 1.0
C      1  0.5013610000000  0.5431150000000  0.4617860000000 1.0
C      1  0.5389950000000  0.4657720000000  0.5331440000000 1.0
C      1  0.5537330000000  0.5175200000000  0.5297760000000 1.0
C      1  0.5011660000000  0.5311290000000  0.5177940000000 1.0
C      1  0.5300930000000  0.5075260000000  0.4452170000000 1.0
C      1  0.5224520000000  0.5792690000000  0.4927960000000 1.0
C      1  0.5519020000000  0.5337020000000  0.4823300000000 1.0
C      1  0.4892610000000  0.5227460000000  0.4824500000000 1.0
C      1  0.5262030000000  0.4304610000000  0.4628230000000 1.0
C      1  0.4424020000000  0.5136200000000  0.5276810000000 1.0
C      1  0.4830650000000  0.4935760000000  0.4809860000000 1.0
C      1  0.5536900000000  0.5507350000000  0.5643560000000 1.0
C      1  0.4533780000000  0.5338380000000  0.5469880000000 1.0
C      1  0.4814390000000  0.4799280000000  0.5290470000000 1.0
C      1  0.4431890000000  0.5243740000000  0.4996290000000 1.0
C      1  0.4352900000000  0.4436970000000  0.4957310000000 1.0
C      1  0.5328450000000  0.5348230000000  0.4567840000000 1.0
C      1  0.4952380000000  0.4419190000000  0.5664220000000 1.0
C      1  0.5371480000000  0.5033320000000  0.4864600000000 1.0
C      1  0.5710010000000  0.5391520000000  0.5102230000000 1.0
C      1  0.4718330000000  0.5745940000000  0.4882730000000 1.0
C      1  0.5290660000000  0.5390410000000  0.5660320000000 1.0
C      1  0.5476470000000  0.4350160000000  0.4820960000000 1.0
C      1  0.5235770000000  0.5667770000000  0.4642810000000 1.0
C      1  0.4507590000000  0.4862480000000  0.5286190000000 1.0
C      1  0.4961600000000  0.5664950000000  0.5372870000000 1.0
C      1  0.4845850000000  0.4518000000000  0.5451300000000 1.0
C      1  0.5023880000000  0.5008010000000  0.4320480000000 1.0
C      1  0.5404120000000  0.4874050000000  0.5521650000000 1.0
C      1  0.4599640000000  0.5304440000000  0.4551880000000 1.0
C      1  0.5053310000000  0.4556460000000  0.4683600000000 1.0
C      1  0.4856840000000  0.4465610000000  0.4912390000000 1.0
C      1  0.4964490000000  0.4751390000000  0.5020340000000 1.0
C      1  0.4736120000000  0.5064020000000  0.5810350000000 1.0
C      1  0.4993600000000  0.5030670000000  0.5369550000000 1.0
C      1  0.4710700000000  0.5375920000000  0.5033520000000 1.0
C      1  0.4791010000000  0.5174820000000  0.4372950000000 1.0
C      1  0.5184750000000  0.4828910000000  0.4664370000000 1.0
C      1  0.4383250000000  0.5186900000000  0.4719630000000 1.0
C      1  0.5208600000000  0.5571530000000  0.5187330000000 1.0
C      1  0.5513610000000  0.4394980000000  0.5318550000000 1.0
C      1  0.4391200000000  0.4611540000000  0.5200610000000 1.0
C      1  0.5268100000000  0.5096210000000  0.5651490000000 1.0
C      1  0.4740400000000  0.4805630000000  0.4513230000000 1.0
C      1  0.5046740000000  0.5562490000000  0.5652040000000 1.0
C      1  0.4601270000000  0.4620760000000  0.4295670000000 1.0
C      1  0.4695400000000  0.5517100000000  0.5309370000000 1.0
C      1  0.5490420000000  0.4653400000000  0.4846590000000 1.0
C      1  0.4718130000000  0.5552610000000  0.4674850000000 1.0
END
