TITL C-2778432-5617-36 0.000126739882203829 125000 -224.787239547021 0 0 41 (C1) n - 1
REM
REM in /home/nfs/bkarasulu/CARBON/AIRSS/Generating-Clusters/REBO/Only-C1/SD-CG/HFTN-CG
REM
REM
REM
REM
REM
REM ./C.cell (11c1c37f851c82e70ff6c80c92926a4b)
REM
REM compiler GCC version 9.2.1 20190827 (Red Hat 9.2.1-1)
REM options -cpp -mtune=generic -march=x86-64 -g -O0 -fpre-include=/usr/include/finclude/math-vector-fortran.h
REM seed 599468052 141569711 -1212805019 1094608071 1169479333 -735846730 1975893450 -506984151 -455871257 -1936391926 -150855874 -1115619721 -131715002 -175786875 1996017039 -2010669947 1766168263 -1611848172 942221284 2037221076 733776812 340763288 -1054393429 1230068316 316919326 -1680379782 -1988211495 -1077957657 564495342 -1877361242 -463928269 983175946 577552414
REM
CELL 1.54180   50.00000   50.00000   50.00000   90.00000   90.00000   90.00000
LATT -1
SFAC C  
C      1  0.5023580000000  0.4950790000000  0.5260340000000 1.0
C      1  0.4981460000000  0.5039830000000  0.4787670000000 1.0
C      1  0.4776900000000  0.4884660000000  0.5108070000000 1.0
C      1  0.4458920000000  0.4827430000000  0.5287020000000 1.0
C      1  0.4467510000000  0.4999400000000  0.4558490000000 1.0
C      1  0.5291890000000  0.4598530000000  0.5008400000000 1.0
C      1  0.5241700000000  0.4743330000000  0.5384100000000 1.0
C      1  0.4918570000000  0.4264720000000  0.5074240000000 1.0
C      1  0.5529870000000  0.5260240000000  0.4835900000000 1.0
C      1  0.5712980000000  0.4819600000000  0.5248090000000 1.0
C      1  0.5258940000000  0.5196150000000  0.4662490000000 1.0
C      1  0.4976190000000  0.5143730000000  0.4476400000000 1.0
C      1  0.5127340000000  0.4470210000000  0.5249580000000 1.0
C      1  0.4727900000000  0.4292290000000  0.4853680000000 1.0
C      1  0.4997320000000  0.5202440000000  0.5429910000000 1.0
C      1  0.5325320000000  0.5518030000000  0.4886770000000 1.0
C      1  0.4551490000000  0.4565920000000  0.5193740000000 1.0
C      1  0.5732110000000  0.5041200000000  0.4986190000000 1.0
C      1  0.5283600000000  0.4939540000000  0.5040130000000 1.0
C      1  0.4516080000000  0.5323930000000  0.4649630000000 1.0
C      1  0.5564340000000  0.4758200000000  0.4964210000000 1.0
C      1  0.4792010000000  0.4445550000000  0.5302110000000 1.0
C      1  0.4533910000000  0.4511090000000  0.4899950000000 1.0
C      1  0.5096270000000  0.5562690000000  0.5132780000000 1.0
C      1  0.5491560000000  0.4880520000000  0.5437140000000 1.0
C      1  0.5192160000000  0.4476100000000  0.4748110000000 1.0
C      1  0.4793840000000  0.5508740000000  0.4586200000000 1.0
C      1  0.4818550000000  0.4775330000000  0.4810870000000 1.0
C      1  0.4513520000000  0.5081390000000  0.5125600000000 1.0
C      1  0.5026040000000  0.5434480000000  0.4746030000000 1.0
C      1  0.4700680000000  0.5165380000000  0.4406910000000 1.0
C      1  0.4550550000000  0.5338840000000  0.4964440000000 1.0
C      1  0.4602580000000  0.5610020000000  0.5119120000000 1.0
C      1  0.4862010000000  0.5271740000000  0.4990500000000 1.0
C      1  0.4505060000000  0.4771790000000  0.4716220000000 1.0
C      1  0.4860140000000  0.5670170000000  0.5187330000000 1.0
C      1  0.5483160000000  0.5174840000000  0.5414670000000 1.0
C      1  0.4975320000000  0.5413280000000  0.5571980000000 1.0
C      1  0.4967690000000  0.4550900000000  0.4666160000000 1.0
C      1  0.5575360000000  0.5271660000000  0.5174840000000 1.0
C      1  0.5195590000000  0.5245290000000  0.5054000000000 1.0
END
