TITL C-2778428-5639-1427 0.000643284009446604 125000 -773.69453740741 0 0 133 (C1) n - 1
REM
REM in /home/nfs/bkarasulu/CARBON/AIRSS/Generating-Clusters/REBO/Only-C1/SD-CG/HFTN-CG
REM
REM
REM
REM
REM
REM ./C.cell (11c1c37f851c82e70ff6c80c92926a4b)
REM
REM compiler GCC version 9.2.1 20190827 (Red Hat 9.2.1-1)
REM options -cpp -mtune=generic -march=x86-64 -g -O0 -fpre-include=/usr/include/finclude/math-vector-fortran.h
REM seed 148188393 -358674349 -882907488 763644335 1724183223 -412612554 762618197 1082469584 1074932440 -294469749 1733594991 -734458201 784449102 1995787498 -1440524938 -528694546 -428921997 -932919207 411961417 1772904217 -1395978513 61763871 292101962 843096630 -127023288 502081461 -1932257934 1048437545 -970739821 -117042872 -270666382 -632114631 273644030
REM
CELL 1.54180   50.00000   50.00000   50.00000   90.00000   90.00000   90.00000
LATT -1
SFAC C  
C      1  0.5028940000000  0.4231250000000  0.5275980000000 1.0
C      1  0.4393220000000  0.4203550000000  0.4722800000000 1.0
C      1  0.5468800000000  0.4928120000000  0.4880770000000 1.0
C      1  0.4530020000000  0.4267850000000  0.5032290000000 1.0
C      1  0.5862320000000  0.4619980000000  0.4939370000000 1.0
C      1  0.5323750000000  0.4844590000000  0.5490040000000 1.0
C      1  0.4465970000000  0.4784820000000  0.4704490000000 1.0
C      1  0.5432210000000  0.4495190000000  0.4282550000000 1.0
C      1  0.4352490000000  0.4844020000000  0.4207060000000 1.0
C      1  0.4610440000000  0.5249450000000  0.6147550000000 1.0
C      1  0.4546990000000  0.4476230000000  0.5604300000000 1.0
C      1  0.4703270000000  0.5609390000000  0.5553960000000 1.0
C      1  0.5363410000000  0.4035710000000  0.5373730000000 1.0
C      1  0.5466270000000  0.4615980000000  0.4792380000000 1.0
C      1  0.5415690000000  0.5661560000000  0.5355150000000 1.0
C      1  0.4755500000000  0.4022890000000  0.4950290000000 1.0
C      1  0.4752780000000  0.5689970000000  0.4638770000000 1.0
C      1  0.5373820000000  0.5581600000000  0.4446250000000 1.0
C      1  0.4650610000000  0.4963600000000  0.5157830000000 1.0
C      1  0.4252850000000  0.4810020000000  0.4452980000000 1.0
C      1  0.5453290000000  0.4993850000000  0.4134300000000 1.0
C      1  0.4720440000000  0.5257180000000  0.4109380000000 1.0
C      1  0.5067230000000  0.5718320000000  0.4664370000000 1.0
C      1  0.5223540000000  0.5192570000000  0.4133500000000 1.0
C      1  0.4324870000000  0.5200070000000  0.4633430000000 1.0
C      1  0.4478750000000  0.4728240000000  0.5016810000000 1.0
C      1  0.4238840000000  0.5879790000000  0.5629830000000 1.0
C      1  0.5286820000000  0.5929590000000  0.4839700000000 1.0
C      1  0.4463140000000  0.5749320000000  0.5593110000000 1.0
C      1  0.5777650000000  0.5516390000000  0.4702680000000 1.0
C      1  0.5414700000000  0.4591910000000  0.5306160000000 1.0
C      1  0.5238240000000  0.4287860000000  0.4341890000000 1.0
C      1  0.5795790000000  0.4909280000000  0.4877540000000 1.0
C      1  0.5635440000000  0.5333140000000  0.5240930000000 1.0
C      1  0.5075090000000  0.4375520000000  0.4829040000000 1.0
C      1  0.4595860000000  0.4941830000000  0.4151540000000 1.0
C      1  0.5340140000000  0.4703980000000  0.4099340000000 1.0
C      1  0.4768250000000  0.4476570000000  0.4906640000000 1.0
C      1  0.5354100000000  0.4558960000000  0.5844030000000 1.0
C      1  0.5171920000000  0.5768020000000  0.5515790000000 1.0
C      1  0.4742600000000  0.5453700000000  0.5296750000000 1.0
C      1  0.5928460000000  0.5184920000000  0.5242470000000 1.0
C      1  0.4968160000000  0.5035920000000  0.4068040000000 1.0
C      1  0.5352360000000  0.4944450000000  0.4418590000000 1.0
C      1  0.4371130000000  0.5677760000000  0.5079380000000 1.0
C      1  0.4302560000000  0.5254950000000  0.5336650000000 1.0
C      1  0.5432970000000  0.5103120000000  0.5340260000000 1.0
C      1  0.5236110000000  0.4178940000000  0.5606400000000 1.0
C      1  0.5141320000000  0.5604160000000  0.5756430000000 1.0
C      1  0.4435750000000  0.5584320000000  0.4626990000000 1.0
C      1  0.5355820000000  0.5393740000000  0.5758370000000 1.0
C      1  0.4858700000000  0.5533550000000  0.5784520000000 1.0
C      1  0.4505240000000  0.4311810000000  0.4496830000000 1.0
C      1  0.4866680000000  0.4628720000000  0.5432030000000 1.0
C      1  0.6214100000000  0.5180140000000  0.4822400000000 1.0
C      1  0.4737630000000  0.5248440000000  0.5904500000000 1.0
C      1  0.4971060000000  0.4377590000000  0.4350010000000 1.0
C      1  0.5259660000000  0.5358570000000  0.5372030000000 1.0
C      1  0.5217630000000  0.5545430000000  0.4916190000000 1.0
C      1  0.5687720000000  0.4671250000000  0.5178570000000 1.0
C      1  0.5721650000000  0.4936710000000  0.5319510000000 1.0
C      1  0.5530970000000  0.5487800000000  0.5016170000000 1.0
C      1  0.5138630000000  0.5415110000000  0.4328920000000 1.0
C      1  0.5573870000000  0.4347780000000  0.4973660000000 1.0
C      1  0.5306860000000  0.5891060000000  0.4503730000000 1.0
C      1  0.4652790000000  0.5250790000000  0.4662680000000 1.0
C      1  0.4093420000000  0.4585200000000  0.5294030000000 1.0
C      1  0.4638350000000  0.4729420000000  0.5812810000000 1.0
C      1  0.5140670000000  0.4757860000000  0.4450770000000 1.0
C      1  0.5203220000000  0.4559010000000  0.4633690000000 1.0
C      1  0.4559580000000  0.5899870000000  0.5087100000000 1.0
C      1  0.5826780000000  0.5218230000000  0.5567360000000 1.0
C      1  0.5478110000000  0.5815730000000  0.5062290000000 1.0
C      1  0.4766070000000  0.4761710000000  0.4629320000000 1.0
C      1  0.4493380000000  0.5263010000000  0.4363110000000 1.0
C      1  0.4866400000000  0.4795600000000  0.4953510000000 1.0
C      1  0.4858730000000  0.4862630000000  0.4342700000000 1.0
C      1  0.5990040000000  0.5099510000000  0.4959900000000 1.0
C      1  0.4111990000000  0.5249100000000  0.4891100000000 1.0
C      1  0.5149820000000  0.5330340000000  0.4661040000000 1.0
C      1  0.5140150000000  0.4894320000000  0.5841280000000 1.0
C      1  0.4934530000000  0.3994720000000  0.5169450000000 1.0
C      1  0.4780630000000  0.4442770000000  0.4568680000000 1.0
C      1  0.5037050000000  0.5023960000000  0.5232380000000 1.0
C      1  0.5599310000000  0.5458450000000  0.5556280000000 1.0
C      1  0.5503300000000  0.4375180000000  0.5524450000000 1.0
C      1  0.4785400000000  0.5903720000000  0.4876930000000 1.0
C      1  0.5794410000000  0.4405320000000  0.4728900000000 1.0
C      1  0.4916790000000  0.4109250000000  0.4738900000000 1.0
C      1  0.5393580000000  0.3806790000000  0.4534120000000 1.0
C      1  0.4443190000000  0.5485280000000  0.5277060000000 1.0
C      1  0.4871540000000  0.4525030000000  0.4108710000000 1.0
C      1  0.5679930000000  0.4922040000000  0.5652210000000 1.0
C      1  0.4869580000000  0.5272010000000  0.4798480000000 1.0
C      1  0.5111390000000  0.4628500000000  0.5627490000000 1.0
C      1  0.4930830000000  0.4696840000000  0.5975650000000 1.0
C      1  0.4902020000000  0.4925980000000  0.5465100000000 1.0
C      1  0.5194360000000  0.4809420000000  0.5044400000000 1.0
C      1  0.5011820000000  0.5167760000000  0.5762280000000 1.0
C      1  0.5625130000000  0.4619680000000  0.5727810000000 1.0
C      1  0.4268520000000  0.5544980000000  0.4844210000000 1.0
C      1  0.4859010000000  0.6071390000000  0.4590710000000 1.0
C      1  0.4260480000000  0.4477250000000  0.5066660000000 1.0
C      1  0.5054690000000  0.4725010000000  0.4023450000000 1.0
C      1  0.4907650000000  0.4261440000000  0.5576210000000 1.0
C      1  0.5618710000000  0.4528630000000  0.4496090000000 1.0
C      1  0.4170520000000  0.4636310000000  0.4789710000000 1.0
C      1  0.5399670000000  0.5122860000000  0.4655100000000 1.0
C      1  0.4807780000000  0.4430560000000  0.5818420000000 1.0
C      1  0.5546560000000  0.4225680000000  0.5216170000000 1.0
C      1  0.4107160000000  0.4961310000000  0.4712090000000 1.0
C      1  0.5763690000000  0.5714200000000  0.4913590000000 1.0
C      1  0.4478500000000  0.5012500000000  0.5425330000000 1.0
C      1  0.5318310000000  0.4039900000000  0.4440970000000 1.0
C      1  0.5047750000000  0.5814730000000  0.5047850000000 1.0
C      1  0.4639980000000  0.4256110000000  0.5358670000000 1.0
C      1  0.4977240000000  0.5865080000000  0.5340870000000 1.0
C      1  0.4080480000000  0.5170660000000  0.5181720000000 1.0
C      1  0.4891070000000  0.5542820000000  0.4185330000000 1.0
C      1  0.5046780000000  0.5293870000000  0.5524920000000 1.0
C      1  0.4700340000000  0.5947730000000  0.5340730000000 1.0
C      1  0.5029470000000  0.5997550000000  0.4382230000000 1.0
C      1  0.4947100000000  0.5853210000000  0.4160360000000 1.0
C      1  0.5176410000000  0.4476690000000  0.5126370000000 1.0
C      1  0.4244790000000  0.4809240000000  0.5459280000000 1.0
C      1  0.4596890000000  0.4416780000000  0.4215170000000 1.0
C      1  0.4583410000000  0.4577360000000  0.5279580000000 1.0
C      1  0.4656810000000  0.5010650000000  0.5678800000000 1.0
C      1  0.4847480000000  0.5235740000000  0.5099520000000 1.0
C      1  0.4002360000000  0.4903720000000  0.5267580000000 1.0
C      1  0.5546280000000  0.5405370000000  0.4589580000000 1.0
C      1  0.4640480000000  0.5552710000000  0.4365140000000 1.0
C      1  0.5398290000000  0.5074830000000  0.5737680000000 1.0
END
