TITL C-2778432-5617-657 -8.66555823285599e-08 125000 -181.897543255952 0 0 32 (C1) n - 1
REM
REM in /home/nfs/bkarasulu/CARBON/AIRSS/Generating-Clusters/REBO/Only-C1/SD-CG/HFTN-CG
REM
REM
REM
REM
REM
REM ./C.cell (11c1c37f851c82e70ff6c80c92926a4b)
REM
REM compiler GCC version 9.2.1 20190827 (Red Hat 9.2.1-1)
REM options -cpp -mtune=generic -march=x86-64 -g -O0 -fpre-include=/usr/include/finclude/math-vector-fortran.h
REM seed -349221379 625028327 1399771909 1526124727 -2127002960 916303610 -1258916159 1743217518 218283967 -1939743432 1415573500 314993759 1725812363 2020163885 -1131189606 -1130735630 1968378246 -1862338686 1273406290 81453460 1109330115 2041446693 829480210 -1003757228 -445464598 706037271 -1941358648 775394239 -1042602199 492063655 -491644222 1144436479 -636334
REM
CELL 1.54180   50.00000   50.00000   50.00000   90.00000   90.00000   90.00000
LATT -1
SFAC C  
C      1  0.5038550000000  0.5056370000000  0.4484050000000 1.0
C      1  0.5636190000000  0.4939010000000  0.4584470000000 1.0
C      1  0.4560180000000  0.4770850000000  0.4986600000000 1.0
C      1  0.4922520000000  0.4960980000000  0.5531750000000 1.0
C      1  0.5347620000000  0.5659950000000  0.4661820000000 1.0
C      1  0.4820690000000  0.5229190000000  0.5451050000000 1.0
C      1  0.5162050000000  0.4814890000000  0.5435340000000 1.0
C      1  0.4986210000000  0.5442640000000  0.5372130000000 1.0
C      1  0.5677940000000  0.4942980000000  0.4099680000000 1.0
C      1  0.5401000000000  0.4927910000000  0.5313870000000 1.0
C      1  0.4238430000000  0.5506130000000  0.4907010000000 1.0
C      1  0.5105210000000  0.5455170000000  0.5125180000000 1.0
C      1  0.4570890000000  0.5190440000000  0.5299440000000 1.0
C      1  0.5389690000000  0.5014750000000  0.5042910000000 1.0
C      1  0.4694450000000  0.4772160000000  0.5484930000000 1.0
C      1  0.4420650000000  0.5340390000000  0.5119120000000 1.0
C      1  0.4621700000000  0.4480040000000  0.5137300000000 1.0
C      1  0.4970440000000  0.5038560000000  0.4756980000000 1.0
C      1  0.5251620000000  0.5026030000000  0.4319260000000 1.0
C      1  0.4843780000000  0.4800680000000  0.4847910000000 1.0
C      1  0.4532560000000  0.4904320000000  0.5283040000000 1.0
C      1  0.5638360000000  0.4916770000000  0.5447750000000 1.0
C      1  0.5014440000000  0.4573740000000  0.4864600000000 1.0
C      1  0.5582400000000  0.4953120000000  0.4848960000000 1.0
C      1  0.4786370000000  0.4515830000000  0.5377860000000 1.0
C      1  0.4280370000000  0.5185970000000  0.4867230000000 1.0
C      1  0.5528310000000  0.4968260000000  0.4325060000000 1.0
C      1  0.4339490000000  0.4916040000000  0.4822500000000 1.0
C      1  0.5160890000000  0.5183860000000  0.4941520000000 1.0
C      1  0.5077200000000  0.4545870000000  0.5338050000000 1.0
C      1  0.5158190000000  0.4469760000000  0.5075310000000 1.0
C      1  0.5241620000000  0.5497350000000  0.4847310000000 1.0
END
