TITL C-2778432-5617-1157 0.00155763690678825 125000 -483.834982152838 0 0 87 (C1) n - 1
REM
REM in /home/nfs/bkarasulu/CARBON/AIRSS/Generating-Clusters/REBO/Only-C1/SD-CG/HFTN-CG
REM
REM
REM
REM
REM
REM ./C.cell (11c1c37f851c82e70ff6c80c92926a4b)
REM
REM compiler GCC version 9.2.1 20190827 (Red Hat 9.2.1-1)
REM options -cpp -mtune=generic -march=x86-64 -g -O0 -fpre-include=/usr/include/finclude/math-vector-fortran.h
REM seed -2136327760 -2010121751 -47950122 1151603940 -836250464 272584910 -174981963 146616323 -1318086723 327527025 -1617458093 1974460283 1769592621 -1391429861 -2141466637 -274766118 1985135242 -580161741 1212017858 -164403766 866132416 295969276 2002849650 -1216874879 -1997571026 -627118980 2100886398 -1339871004 73678196 1479682330 735808788 495684174 1501840596
REM
CELL 1.54180   50.00000   50.00000   50.00000   90.00000   90.00000   90.00000
LATT -1
SFAC C  
C      1  0.5226120000000  0.4279760000000  0.5094250000000 1.0
C      1  0.4344330000000  0.4683240000000  0.5680140000000 1.0
C      1  0.4906880000000  0.4959160000000  0.4755470000000 1.0
C      1  0.5390640000000  0.4847550000000  0.5276920000000 1.0
C      1  0.5379310000000  0.4542250000000  0.5250400000000 1.0
C      1  0.4525820000000  0.5145960000000  0.4475850000000 1.0
C      1  0.5169740000000  0.5253400000000  0.4526840000000 1.0
C      1  0.4598380000000  0.4605640000000  0.4344220000000 1.0
C      1  0.5834510000000  0.5102270000000  0.5212680000000 1.0
C      1  0.4733510000000  0.4168480000000  0.4873870000000 1.0
C      1  0.4437970000000  0.4560530000000  0.5133740000000 1.0
C      1  0.5674420000000  0.5182190000000  0.4583870000000 1.0
C      1  0.4814990000000  0.5654500000000  0.4576040000000 1.0
C      1  0.4508870000000  0.5611790000000  0.5028450000000 1.0
C      1  0.4856420000000  0.5267690000000  0.4661010000000 1.0
C      1  0.5105740000000  0.5637500000000  0.4602530000000 1.0
C      1  0.4724350000000  0.5742460000000  0.4841200000000 1.0
C      1  0.6144370000000  0.5155400000000  0.4800280000000 1.0
C      1  0.5335300000000  0.4909990000000  0.4250740000000 1.0
C      1  0.4429830000000  0.4620730000000  0.4608960000000 1.0
C      1  0.5498790000000  0.5281620000000  0.5560120000000 1.0
C      1  0.5258550000000  0.4341600000000  0.4603920000000 1.0
C      1  0.4714530000000  0.5394960000000  0.4379280000000 1.0
C      1  0.5180340000000  0.5122450000000  0.4838080000000 1.0
C      1  0.4512240000000  0.4429930000000  0.4839450000000 1.0
C      1  0.4727330000000  0.4871400000000  0.4284280000000 1.0
C      1  0.5424430000000  0.5403150000000  0.4519220000000 1.0
C      1  0.5442340000000  0.5528240000000  0.5342200000000 1.0
C      1  0.4563240000000  0.5484520000000  0.5297820000000 1.0
C      1  0.5074750000000  0.4408620000000  0.5654930000000 1.0
C      1  0.5544490000000  0.4373100000000  0.5011370000000 1.0
C      1  0.5137400000000  0.5677570000000  0.5740570000000 1.0
C      1  0.5036780000000  0.5417850000000  0.5693210000000 1.0
C      1  0.5323430000000  0.4839770000000  0.5771740000000 1.0
C      1  0.5663750000000  0.5488200000000  0.4735650000000 1.0
C      1  0.4893450000000  0.4684230000000  0.5210210000000 1.0
C      1  0.5068740000000  0.4223850000000  0.4839430000000 1.0
C      1  0.5135630000000  0.4540340000000  0.4381550000000 1.0
C      1  0.5616290000000  0.5370780000000  0.5019660000000 1.0
C      1  0.4547410000000  0.4678140000000  0.5406530000000 1.0
C      1  0.4805930000000  0.4476220000000  0.5002760000000 1.0
C      1  0.4933540000000  0.4830540000000  0.5501030000000 1.0
C      1  0.5131410000000  0.5099870000000  0.4273770000000 1.0
C      1  0.4440790000000  0.4968770000000  0.5157570000000 1.0
C      1  0.4969070000000  0.5737650000000  0.5072910000000 1.0
C      1  0.5669330000000  0.5101680000000  0.5510640000000 1.0
C      1  0.5354890000000  0.5236190000000  0.5189710000000 1.0
C      1  0.5770870000000  0.4548420000000  0.5171830000000 1.0
C      1  0.4769030000000  0.5365560000000  0.5770980000000 1.0
C      1  0.5847390000000  0.5163340000000  0.4877200000000 1.0
C      1  0.5146700000000  0.4626040000000  0.5855630000000 1.0
C      1  0.4764910000000  0.4441360000000  0.5517980000000 1.0
C      1  0.4162980000000  0.5116500000000  0.5168520000000 1.0
C      1  0.5144700000000  0.5439610000000  0.4877850000000 1.0
C      1  0.4096180000000  0.5201420000000  0.4918730000000 1.0
C      1  0.4550690000000  0.5362160000000  0.5615170000000 1.0
C      1  0.4335400000000  0.5194110000000  0.4736670000000 1.0
C      1  0.5610440000000  0.4939570000000  0.4426190000000 1.0
C      1  0.5224870000000  0.4961150000000  0.5493860000000 1.0
C      1  0.5249270000000  0.5756560000000  0.5269810000000 1.0
C      1  0.5186940000000  0.5867240000000  0.5549390000000 1.0
C      1  0.5119620000000  0.5258660000000  0.5435100000000 1.0
C      1  0.5034040000000  0.4394450000000  0.5320410000000 1.0
C      1  0.4512110000000  0.4903120000000  0.4715520000000 1.0
C      1  0.4821200000000  0.4410880000000  0.4355900000000 1.0
C      1  0.5447390000000  0.4648370000000  0.4440270000000 1.0
C      1  0.5707260000000  0.4810000000000  0.5244490000000 1.0
C      1  0.5276280000000  0.5749770000000  0.4942490000000 1.0
C      1  0.4592030000000  0.5366770000000  0.4822430000000 1.0
C      1  0.3615350000000  0.4561650000000  0.4446930000000 1.0
C      1  0.5431520000000  0.5710260000000  0.4665380000000 1.0
C      1  0.4860370000000  0.4718590000000  0.5786580000000 1.0
C      1  0.5537000000000  0.4799340000000  0.4799440000000 1.0
C      1  0.4847680000000  0.5122240000000  0.4223660000000 1.0
C      1  0.5400900000000  0.4972420000000  0.4979010000000 1.0
C      1  0.4712010000000  0.4864230000000  0.4988630000000 1.0
C      1  0.4884530000000  0.4460080000000  0.4678530000000 1.0
C      1  0.3871740000000  0.4580250000000  0.4497940000000 1.0
C      1  0.4689250000000  0.4988520000000  0.5367060000000 1.0
C      1  0.5768110000000  0.5427800000000  0.5304120000000 1.0
C      1  0.4917060000000  0.4755680000000  0.4531220000000 1.0
C      1  0.4599040000000  0.4570150000000  0.5785820000000 1.0
C      1  0.4129930000000  0.4598980000000  0.4549300000000 1.0
C      1  0.4826500000000  0.5265170000000  0.5308950000000 1.0
C      1  0.5523610000000  0.4479050000000  0.4721880000000 1.0
C      1  0.4349500000000  0.5240920000000  0.5391160000000 1.0
C      1  0.4855210000000  0.5417850000000  0.5032880000000 1.0
END
