TITL C-2778429-3646-225 -0.0352791705459203 125000 -560.668171223928 0 0 98 (C1) n - 1
REM
REM in /home/nfs/bkarasulu/CARBON/AIRSS/Generating-Clusters/REBO/Only-C1/SD-CG/HFTN-CG
REM
REM
REM
REM
REM
REM ./C.cell (11c1c37f851c82e70ff6c80c92926a4b)
REM
REM compiler GCC version 9.2.1 20190827 (Red Hat 9.2.1-1)
REM options -cpp -mtune=generic -march=x86-64 -g -O0 -fpre-include=/usr/include/finclude/math-vector-fortran.h
REM seed -1270502069 -511551809 249094889 1131199365 1327184515 175062874 -299237619 1818271235 -1711308482 1291730319 1083784994 778632223 -627140190 1406595367 1382307993 82330035 967555965 -1978853460 416655826 927361580 838434431 -1149907099 70981158 -629822761 2110046075 -1564525241 1406967908 1390246583 1983162555 2118705499 -370665184 -1370086361 1566016817
REM
CELL 1.54180   50.00000   50.00000   50.00000   90.00000   90.00000   90.00000
LATT -1
SFAC C  
C      1  0.5322070000000  0.5542630000000  0.5599230000000 1.0
C      1  0.4428290000000  0.4519890000000  0.4405560000000 1.0
C      1  0.5822770000000  0.4577260000000  0.5245510000000 1.0
C      1  0.5384580000000  0.4468850000000  0.4401840000000 1.0
C      1  0.5256990000000  0.5294530000000  0.4200440000000 1.0
C      1  0.4479200000000  0.4348440000000  0.5042160000000 1.0
C      1  0.4724840000000  0.5735570000000  0.5155990000000 1.0
C      1  0.4674350000000  0.4732990000000  0.5863140000000 1.0
C      1  0.4372300000000  0.4620960000000  0.5161920000000 1.0
C      1  0.4448820000000  0.5573660000000  0.4751720000000 1.0
C      1  0.5226450000000  0.4896990000000  0.4189670000000 1.0
C      1  0.4686200000000  0.4224130000000  0.5219230000000 1.0
C      1  0.5338090000000  0.5383910000000  0.4690320000000 1.0
C      1  0.5213430000000  0.5033070000000  0.5532530000000 1.0
C      1  0.5203720000000  0.5734430000000  0.5105440000000 1.0
C      1  0.4834320000000  0.5183330000000  0.5353060000000 1.0
C      1  0.6087400000000  0.5194480000000  0.4866390000000 1.0
C      1  0.5268810000000  0.5173150000000  0.4477660000000 1.0
C      1  0.4959890000000  0.5027200000000  0.4184810000000 1.0
C      1  0.4483670000000  0.5504670000000  0.5079390000000 1.0
C      1  0.4776080000000  0.4987290000000  0.5811280000000 1.0
C      1  0.4351490000000  0.5636250000000  0.4284540000000 1.0
C      1  0.3964360000000  0.5461750000000  0.5475300000000 1.0
C      1  0.5021980000000  0.5050160000000  0.4682660000000 1.0
C      1  0.5011920000000  0.5603680000000  0.5566580000000 1.0
C      1  0.4717000000000  0.4954270000000  0.5051290000000 1.0
C      1  0.5384060000000  0.4791550000000  0.5456220000000 1.0
C      1  0.4285090000000  0.4940130000000  0.5552230000000 1.0
C      1  0.5678980000000  0.4528650000000  0.5493380000000 1.0
C      1  0.4513270000000  0.5182210000000  0.4795490000000 1.0
C      1  0.4548990000000  0.4726600000000  0.4268040000000 1.0
C      1  0.5210940000000  0.5314420000000  0.5365600000000 1.0
C      1  0.5204590000000  0.4587940000000  0.4217340000000 1.0
C      1  0.4972650000000  0.4234620000000  0.5148520000000 1.0
C      1  0.4992620000000  0.5352970000000  0.5106640000000 1.0
C      1  0.4616730000000  0.4193100000000  0.4788900000000 1.0
C      1  0.4331140000000  0.5191050000000  0.5675670000000 1.0
C      1  0.5397780000000  0.5248170000000  0.5710730000000 1.0
C      1  0.5846160000000  0.5388370000000  0.4927810000000 1.0
C      1  0.4688990000000  0.5493250000000  0.5557820000000 1.0
C      1  0.4045550000000  0.5002650000000  0.4737510000000 1.0
C      1  0.4843890000000  0.5568850000000  0.4693680000000 1.0
C      1  0.4591530000000  0.5229980000000  0.4406440000000 1.0
C      1  0.4229590000000  0.4917960000000  0.5249070000000 1.0
C      1  0.5241060000000  0.4294260000000  0.4627420000000 1.0
C      1  0.4769880000000  0.4315320000000  0.4534690000000 1.0
C      1  0.4427830000000  0.4447350000000  0.4692650000000 1.0
C      1  0.5589380000000  0.5446520000000  0.4826000000000 1.0
C      1  0.4649850000000  0.4590810000000  0.5608710000000 1.0
C      1  0.4975500000000  0.5715590000000  0.5274580000000 1.0
C      1  0.4848000000000  0.5506000000000  0.5849580000000 1.0
C      1  0.5536950000000  0.5428730000000  0.5358840000000 1.0
C      1  0.4550840000000  0.5200080000000  0.5190010000000 1.0
C      1  0.5618410000000  0.5078950000000  0.5598720000000 1.0
C      1  0.4774090000000  0.4824040000000  0.4742340000000 1.0
C      1  0.5228490000000  0.5952070000000  0.4933730000000 1.0
C      1  0.5247080000000  0.5397280000000  0.3967040000000 1.0
C      1  0.5528340000000  0.4607820000000  0.4873170000000 1.0
C      1  0.5251820000000  0.6157000000000  0.4772040000000 1.0
C      1  0.5296720000000  0.4193170000000  0.5246500000000 1.0
C      1  0.5168420000000  0.4619330000000  0.4699490000000 1.0
C      1  0.5847610000000  0.4862140000000  0.5199840000000 1.0
C      1  0.4464940000000  0.5484790000000  0.4481910000000 1.0
C      1  0.4881240000000  0.4702370000000  0.4224690000000 1.0
C      1  0.6247340000000  0.5118700000000  0.4667900000000 1.0
C      1  0.4928950000000  0.4955970000000  0.5549250000000 1.0
C      1  0.5550440000000  0.4652300000000  0.4590920000000 1.0
C      1  0.4309700000000  0.4950960000000  0.4946250000000 1.0
C      1  0.5090050000000  0.4532370000000  0.5249430000000 1.0
C      1  0.4226050000000  0.5414440000000  0.5524510000000 1.0
C      1  0.5422640000000  0.5171380000000  0.5061220000000 1.0
C      1  0.5403250000000  0.5513100000000  0.5079450000000 1.0
C      1  0.5187480000000  0.5039830000000  0.4955120000000 1.0
C      1  0.5367800000000  0.4453240000000  0.5426070000000 1.0
C      1  0.4886180000000  0.4664590000000  0.5440170000000 1.0
C      1  0.4752340000000  0.5304510000000  0.4861950000000 1.0
C      1  0.5577180000000  0.5004560000000  0.5273880000000 1.0
C      1  0.4627590000000  0.5251500000000  0.5794870000000 1.0
C      1  0.4456130000000  0.4997650000000  0.4300620000000 1.0
C      1  0.5004400000000  0.4957290000000  0.5156730000000 1.0
C      1  0.4874780000000  0.5177630000000  0.4412430000000 1.0
C      1  0.5005660000000  0.4130060000000  0.4497100000000 1.0
C      1  0.5999800000000  0.5106890000000  0.5160110000000 1.0
C      1  0.5664450000000  0.4777900000000  0.5670520000000 1.0
C      1  0.5104860000000  0.5474840000000  0.4818540000000 1.0
C      1  0.4402990000000  0.4654880000000  0.5482340000000 1.0
C      1  0.5702500000000  0.4433010000000  0.5025000000000 1.0
C      1  0.5315130000000  0.4850610000000  0.4497970000000 1.0
C      1  0.4824270000000  0.4596800000000  0.4525650000000 1.0
C      1  0.4675000000000  0.5773950000000  0.4856670000000 1.0
C      1  0.5242110000000  0.4647640000000  0.4997050000000 1.0
C      1  0.4448140000000  0.5537300000000  0.5396140000000 1.0
C      1  0.5574020000000  0.4180230000000  0.5060360000000 1.0
C      1  0.4258850000000  0.5172980000000  0.4620630000000 1.0
C      1  0.4946670000000  0.4122700000000  0.4835550000000 1.0
C      1  0.5278570000000  0.4143560000000  0.4909190000000 1.0
C      1  0.5819770000000  0.5357200000000  0.5249190000000 1.0
C      1  0.4486900000000  0.4699780000000  0.4856530000000 1.0
END
