TITL C-2778428-5639-1450 0.00469479695907255 125000 -913.499783512478 0 0 159 (C1) n - 1
REM
REM in /home/nfs/bkarasulu/CARBON/AIRSS/Generating-Clusters/REBO/Only-C1/SD-CG/HFTN-CG
REM
REM
REM
REM
REM
REM ./C.cell (11c1c37f851c82e70ff6c80c92926a4b)
REM
REM compiler GCC version 9.2.1 20190827 (Red Hat 9.2.1-1)
REM options -cpp -mtune=generic -march=x86-64 -g -O0 -fpre-include=/usr/include/finclude/math-vector-fortran.h
REM seed 683982952 -1442424503 1715784458 -1498272765 908455570 2009199247 1607080146 1548182302 1030103569 329088897 1955009683 533879041 -147110798 829370719 702796803 679269022 238688745 -721977743 -1307500786 -514398490 753210469 1626033060 582735738 878016531 1392703165 1563812841 1572032859 -133459265 -165460922 998083230 -938694635 898681890 -393092022
REM
CELL 1.54180   50.00000   50.00000   50.00000   90.00000   90.00000   90.00000
LATT -1
SFAC C  
C      1  0.4408730000000  0.4122140000000  0.4923150000000 1.0
C      1  0.5764940000000  0.5126190000000  0.4194560000000 1.0
C      1  0.4729330000000  0.5486590000000  0.5493080000000 1.0
C      1  0.5197770000000  0.6140290000000  0.4957660000000 1.0
C      1  0.5058660000000  0.4326240000000  0.4062320000000 1.0
C      1  0.5265750000000  0.5692890000000  0.4373390000000 1.0
C      1  0.4816040000000  0.4932540000000  0.5225500000000 1.0
C      1  0.4549870000000  0.5804660000000  0.4766700000000 1.0
C      1  0.5550410000000  0.4226020000000  0.5182420000000 1.0
C      1  0.5919240000000  0.5472700000000  0.5191390000000 1.0
C      1  0.4761730000000  0.5894050000000  0.4959850000000 1.0
C      1  0.5062530000000  0.4054450000000  0.5369570000000 1.0
C      1  0.5429800000000  0.4930120000000  0.4416020000000 1.0
C      1  0.5207130000000  0.4515910000000  0.5856800000000 1.0
C      1  0.4346160000000  0.4754880000000  0.5026290000000 1.0
C      1  0.5694500000000  0.4769300000000  0.5678020000000 1.0
C      1  0.4408390000000  0.5103500000000  0.5903150000000 1.0
C      1  0.5418710000000  0.4331930000000  0.5572650000000 1.0
C      1  0.5778970000000  0.4514380000000  0.4963290000000 1.0
C      1  0.4944470000000  0.4877850000000  0.3905150000000 1.0
C      1  0.5687400000000  0.4813270000000  0.4305630000000 1.0
C      1  0.4984640000000  0.4263980000000  0.5122940000000 1.0
C      1  0.4982160000000  0.5677040000000  0.5095930000000 1.0
C      1  0.5130750000000  0.4658190000000  0.4078470000000 1.0
C      1  0.4129530000000  0.5147780000000  0.5845670000000 1.0
C      1  0.5646170000000  0.3986170000000  0.4997150000000 1.0
C      1  0.5646630000000  0.5189110000000  0.5639840000000 1.0
C      1  0.4678530000000  0.5843880000000  0.5286940000000 1.0
C      1  0.5858920000000  0.5736880000000  0.5132590000000 1.0
C      1  0.4999550000000  0.5316880000000  0.4600590000000 1.0
C      1  0.5240070000000  0.4817490000000  0.4620790000000 1.0
C      1  0.4761270000000  0.4738700000000  0.5892620000000 1.0
C      1  0.4367250000000  0.5233840000000  0.4455020000000 1.0
C      1  0.6011990000000  0.4992990000000  0.4861510000000 1.0
C      1  0.4527220000000  0.5441190000000  0.4250890000000 1.0
C      1  0.5403150000000  0.5569250000000  0.5020750000000 1.0
C      1  0.4655730000000  0.4179340000000  0.4475420000000 1.0
C      1  0.4910200000000  0.5012770000000  0.6014340000000 1.0
C      1  0.5805820000000  0.4424590000000  0.5291000000000 1.0
C      1  0.5330920000000  0.4410710000000  0.4998010000000 1.0
C      1  0.5865520000000  0.4514830000000  0.4502620000000 1.0
C      1  0.5401310000000  0.5827060000000  0.5407130000000 1.0
C      1  0.5330870000000  0.5168680000000  0.5506710000000 1.0
C      1  0.4874950000000  0.5861770000000  0.5803740000000 1.0
C      1  0.4437090000000  0.4790760000000  0.5466720000000 1.0
C      1  0.5591960000000  0.5133040000000  0.4870920000000 1.0
C      1  0.5003340000000  0.5490320000000  0.5379410000000 1.0
C      1  0.4048410000000  0.5191600000000  0.4832500000000 1.0
C      1  0.5465100000000  0.5188400000000  0.4593140000000 1.0
C      1  0.4836480000000  0.5406920000000  0.4237000000000 1.0
C      1  0.5362880000000  0.5416620000000  0.5275710000000 1.0
C      1  0.4716860000000  0.4386260000000  0.5130760000000 1.0
C      1  0.5234730000000  0.4893940000000  0.5424280000000 1.0
C      1  0.5650390000000  0.4828560000000  0.4892280000000 1.0
C      1  0.4996990000000  0.6026550000000  0.4786440000000 1.0
C      1  0.4234840000000  0.5609950000000  0.5446830000000 1.0
C      1  0.4627990000000  0.4688110000000  0.4885610000000 1.0
C      1  0.4472620000000  0.4618950000000  0.4296980000000 1.0
C      1  0.3967430000000  0.4879060000000  0.5187370000000 1.0
C      1  0.5362430000000  0.4063240000000  0.5416180000000 1.0
C      1  0.3972320000000  0.5337720000000  0.5096420000000 1.0
C      1  0.4950360000000  0.4798600000000  0.5508990000000 1.0
C      1  0.5357760000000  0.4053150000000  0.4606450000000 1.0
C      1  0.5452020000000  0.6030960000000  0.4891740000000 1.0
C      1  0.5221060000000  0.4417330000000  0.5314180000000 1.0
C      1  0.4979180000000  0.4163990000000  0.4562390000000 1.0
C      1  0.4194610000000  0.4350780000000  0.4783730000000 1.0
C      1  0.4126540000000  0.4675880000000  0.4703160000000 1.0
C      1  0.4292910000000  0.4557040000000  0.5756810000000 1.0
C      1  0.5565090000000  0.3902500000000  0.4775010000000 1.0
C      1  0.4642270000000  0.4519400000000  0.5438840000000 1.0
C      1  0.4087620000000  0.4524100000000  0.5056240000000 1.0
C      1  0.5170610000000  0.5691980000000  0.5573920000000 1.0
C      1  0.4871700000000  0.5579950000000  0.4693090000000 1.0
C      1  0.4664770000000  0.5193250000000  0.5564050000000 1.0
C      1  0.4541330000000  0.5036140000000  0.5322030000000 1.0
C      1  0.5873840000000  0.5278450000000  0.4978820000000 1.0
C      1  0.4890390000000  0.5047630000000  0.5676590000000 1.0
C      1  0.4140750000000  0.5566610000000  0.5136130000000 1.0
C      1  0.5080530000000  0.5625630000000  0.5882200000000 1.0
C      1  0.5362890000000  0.4423290000000  0.4166330000000 1.0
C      1  0.5467540000000  0.4976980000000  0.5826290000000 1.0
C      1  0.4942910000000  0.4541510000000  0.5697370000000 1.0
C      1  0.4361990000000  0.5318890000000  0.5570110000000 1.0
C      1  0.5384110000000  0.4679960000000  0.5911210000000 1.0
C      1  0.4566860000000  0.5032910000000  0.4653320000000 1.0
C      1  0.4479100000000  0.5264100000000  0.5114410000000 1.0
C      1  0.5657840000000  0.4473070000000  0.5582680000000 1.0
C      1  0.5415100000000  0.4672070000000  0.5336290000000 1.0
C      1  0.4208510000000  0.5402430000000  0.4663540000000 1.0
C      1  0.5885300000000  0.4749000000000  0.4658050000000 1.0
C      1  0.5739240000000  0.5466700000000  0.4520060000000 1.0
C      1  0.4421040000000  0.3704340000000  0.5156500000000 1.0
C      1  0.5272370000000  0.5156860000000  0.4245410000000 1.0
C      1  0.4138360000000  0.4674980000000  0.5357850000000 1.0
C      1  0.5664680000000  0.5390910000000  0.4247910000000 1.0
C      1  0.5523080000000  0.5568750000000  0.4699320000000 1.0
C      1  0.4589630000000  0.4379870000000  0.4814310000000 1.0
C      1  0.4387160000000  0.4440350000000  0.5153460000000 1.0
C      1  0.5025970000000  0.5181590000000  0.5248350000000 1.0
C      1  0.4804390000000  0.5110870000000  0.4414360000000 1.0
C      1  0.5561430000000  0.5839150000000  0.5115730000000 1.0
C      1  0.5924390000000  0.5259070000000  0.4653490000000 1.0
C      1  0.5558170000000  0.5492670000000  0.5517540000000 1.0
C      1  0.4519940000000  0.3959470000000  0.5134140000000 1.0
C      1  0.4352180000000  0.4939280000000  0.4282480000000 1.0
C      1  0.5982440000000  0.4759080000000  0.5093660000000 1.0
C      1  0.3947660000000  0.5140910000000  0.5302120000000 1.0
C      1  0.4700740000000  0.4812700000000  0.4133420000000 1.0
C      1  0.5056820000000  0.5052600000000  0.4761960000000 1.0
C      1  0.5053120000000  0.4918170000000  0.4284710000000 1.0
C      1  0.5239990000000  0.5294940000000  0.3968050000000 1.0
C      1  0.4431220000000  0.5603100000000  0.5731190000000 1.0
C      1  0.4577590000000  0.5123210000000  0.4137880000000 1.0
C      1  0.5288680000000  0.5687530000000  0.6094200000000 1.0
C      1  0.5631620000000  0.4499350000000  0.4299530000000 1.0
C      1  0.4721310000000  0.5768870000000  0.4475970000000 1.0
C      1  0.5421340000000  0.5509040000000  0.4130820000000 1.0
C      1  0.5660010000000  0.4787790000000  0.5223550000000 1.0
C      1  0.5847180000000  0.5388860000000  0.5449720000000 1.0
C      1  0.4057080000000  0.5188740000000  0.5556820000000 1.0
C      1  0.5026010000000  0.5895500000000  0.4506960000000 1.0
C      1  0.4916470000000  0.5346560000000  0.5937220000000 1.0
C      1  0.5190610000000  0.5638710000000  0.4763010000000 1.0
C      1  0.5179300000000  0.4686700000000  0.4922610000000 1.0
C      1  0.4359360000000  0.5577590000000  0.4900060000000 1.0
C      1  0.5007620000000  0.5372990000000  0.4999240000000 1.0
C      1  0.5184500000000  0.5171940000000  0.5804100000000 1.0
C      1  0.4576020000000  0.5355170000000  0.5915510000000 1.0
C      1  0.5663370000000  0.4328470000000  0.4791840000000 1.0
C      1  0.4724420000000  0.4034310000000  0.5319400000000 1.0
C      1  0.5921350000000  0.4722910000000  0.5426680000000 1.0
C      1  0.5131190000000  0.6149520000000  0.5237140000000 1.0
C      1  0.3992500000000  0.4873810000000  0.4887990000000 1.0
C      1  0.5252680000000  0.5381750000000  0.4466380000000 1.0
C      1  0.4509010000000  0.5555000000000  0.5279890000000 1.0
C      1  0.4874370000000  0.4364870000000  0.4314020000000 1.0
C      1  0.4344740000000  0.5061050000000  0.4915720000000 1.0
C      1  0.5463530000000  0.4357940000000  0.4546730000000 1.0
C      1  0.4854770000000  0.4283720000000  0.5513650000000 1.0
C      1  0.5212630000000  0.4153500000000  0.4314020000000 1.0
C      1  0.4413200000000  0.5625990000000  0.4507560000000 1.0
C      1  0.5196540000000  0.4915940000000  0.5109180000000 1.0
C      1  0.5406850000000  0.5872330000000  0.4626410000000 1.0
C      1  0.4366910000000  0.4773030000000  0.4566050000000 1.0
C      1  0.5292460000000  0.5191010000000  0.4953730000000 1.0
C      1  0.4669160000000  0.5787750000000  0.5623370000000 1.0
C      1  0.4683560000000  0.5467280000000  0.4933480000000 1.0
C      1  0.5138320000000  0.4192870000000  0.4830000000000 1.0
C      1  0.5065070000000  0.5114220000000  0.3824120000000 1.0
C      1  0.4318620000000  0.4413720000000  0.5486920000000 1.0
C      1  0.4860880000000  0.4659300000000  0.4393500000000 1.0
C      1  0.4485280000000  0.4820350000000  0.5799310000000 1.0
C      1  0.5194280000000  0.4501000000000  0.4573030000000 1.0
C      1  0.4415000000000  0.4378790000000  0.4523290000000 1.0
C      1  0.5009650000000  0.5888880000000  0.5355210000000 1.0
C      1  0.4804410000000  0.4962460000000  0.4892310000000 1.0
C      1  0.5925740000000  0.5003540000000  0.4464800000000 1.0
C      1  0.4909750000000  0.4619250000000  0.4721270000000 1.0
END
