TITL C-2778436-5916-10 -0.00120022416521408 125000 -1112.27668472668 0 0 193 (C1) n - 1
REM
REM in /home/nfs/bkarasulu/CARBON/AIRSS/Generating-Clusters/REBO/Only-C1/SD-CG/HFTN-CG
REM
REM
REM
REM
REM
REM ./C.cell (11c1c37f851c82e70ff6c80c92926a4b)
REM
REM compiler GCC version 9.2.1 20190827 (Red Hat 9.2.1-1)
REM options -cpp -mtune=generic -march=x86-64 -g -O0 -fpre-include=/usr/include/finclude/math-vector-fortran.h
REM seed -1023877926 -452981666 -514113 248052919 -1514960139 -657531276 -1894425721 -718873578 1427595704 1450402580 1750554775 1718841517 56327268 1610518777 1274768598 -509357076 2035577704 1092080739 -258928587 -1589596065 -532504278 1407876177 -1420479024 282635117 1757359912 -1612325836 -1553782143 -1948421592 1403079311 240687684 -105222584 292014003 786305916
REM
CELL 1.54180   50.00000   50.00000   50.00000   90.00000   90.00000   90.00000
LATT -1
SFAC C  
C      1  0.4691450000000  0.5279760000000  0.4320200000000 1.0
C      1  0.4333620000000  0.4450590000000  0.4757370000000 1.0
C      1  0.4868010000000  0.4165360000000  0.4906480000000 1.0
C      1  0.5594590000000  0.5658370000000  0.4271540000000 1.0
C      1  0.4741210000000  0.5764060000000  0.4853950000000 1.0
C      1  0.5502260000000  0.5459380000000  0.5230600000000 1.0
C      1  0.5793900000000  0.4470130000000  0.4779420000000 1.0
C      1  0.5769060000000  0.5072260000000  0.4992670000000 1.0
C      1  0.4784890000000  0.5276110000000  0.5394270000000 1.0
C      1  0.4163040000000  0.5072480000000  0.5043380000000 1.0
C      1  0.4763810000000  0.6156800000000  0.5146950000000 1.0
C      1  0.5815460000000  0.4806710000000  0.5616740000000 1.0
C      1  0.5036980000000  0.4615190000000  0.4764450000000 1.0
C      1  0.4799640000000  0.4409450000000  0.5800400000000 1.0
C      1  0.5047670000000  0.6002300000000  0.4378920000000 1.0
C      1  0.3962510000000  0.5366920000000  0.4645730000000 1.0
C      1  0.5814150000000  0.5428740000000  0.4224670000000 1.0
C      1  0.4656750000000  0.5026580000000  0.4473980000000 1.0
C      1  0.5367400000000  0.5918030000000  0.4843910000000 1.0
C      1  0.4840050000000  0.4764170000000  0.4235030000000 1.0
C      1  0.5685400000000  0.4409300000000  0.5290940000000 1.0
C      1  0.5031480000000  0.3800150000000  0.5305160000000 1.0
C      1  0.3728700000000  0.5258770000000  0.5410660000000 1.0
C      1  0.5293410000000  0.5287240000000  0.4303630000000 1.0
C      1  0.5268090000000  0.5152180000000  0.5551500000000 1.0
C      1  0.4981200000000  0.5817240000000  0.4121640000000 1.0
C      1  0.4459390000000  0.5524180000000  0.4713170000000 1.0
C      1  0.6009550000000  0.5036190000000  0.5691690000000 1.0
C      1  0.5560750000000  0.5253110000000  0.5612590000000 1.0
C      1  0.5182600000000  0.5455360000000  0.4577850000000 1.0
C      1  0.4311140000000  0.4300840000000  0.5733570000000 1.0
C      1  0.5475080000000  0.4080990000000  0.5837430000000 1.0
C      1  0.3980370000000  0.4602130000000  0.4948860000000 1.0
C      1  0.5598100000000  0.5554450000000  0.5770490000000 1.0
C      1  0.5235550000000  0.4744700000000  0.5097250000000 1.0
C      1  0.6165830000000  0.5185580000000  0.4687020000000 1.0
C      1  0.4903080000000  0.4559120000000  0.5406230000000 1.0
C      1  0.4810560000000  0.5834600000000  0.5164690000000 1.0
C      1  0.4290790000000  0.5807520000000  0.4802420000000 1.0
C      1  0.4969890000000  0.4976690000000  0.4916680000000 1.0
C      1  0.5024160000000  0.3804970000000  0.4839430000000 1.0
C      1  0.5644020000000  0.4242520000000  0.4575140000000 1.0
C      1  0.5191130000000  0.5663030000000  0.5368990000000 1.0
C      1  0.4302160000000  0.4120250000000  0.4804130000000 1.0
C      1  0.3909350000000  0.4858110000000  0.4744880000000 1.0
C      1  0.4833460000000  0.4057420000000  0.4337990000000 1.0
C      1  0.5271410000000  0.4129190000000  0.5646400000000 1.0
C      1  0.5781340000000  0.4915120000000  0.4181020000000 1.0
C      1  0.4971570000000  0.5559630000000  0.4759900000000 1.0
C      1  0.4845680000000  0.5231660000000  0.4043390000000 1.0
C      1  0.4221120000000  0.4531660000000  0.4462750000000 1.0
C      1  0.4912610000000  0.3988490000000  0.5540650000000 1.0
C      1  0.5317400000000  0.4534650000000  0.4712300000000 1.0
C      1  0.5159120000000  0.5988920000000  0.5276340000000 1.0
C      1  0.3824880000000  0.5144890000000  0.4844700000000 1.0
C      1  0.5825620000000  0.5982630000000  0.4620750000000 1.0
C      1  0.5553360000000  0.4689950000000  0.5178160000000 1.0
C      1  0.5935090000000  0.4638600000000  0.5342820000000 1.0
C      1  0.4842680000000  0.4283700000000  0.4588490000000 1.0
C      1  0.5424760000000  0.5656120000000  0.4549980000000 1.0
C      1  0.5355110000000  0.4359930000000  0.5278200000000 1.0
C      1  0.5283480000000  0.4783570000000  0.5773160000000 1.0
C      1  0.4787510000000  0.4778240000000  0.5561060000000 1.0
C      1  0.4957680000000  0.4107410000000  0.4048300000000 1.0
C      1  0.4671380000000  0.5299190000000  0.5944540000000 1.0
C      1  0.5013830000000  0.4642710000000  0.5928500000000 1.0
C      1  0.4947730000000  0.4615800000000  0.5086670000000 1.0
C      1  0.5384690000000  0.5798670000000  0.5722080000000 1.0
C      1  0.4616640000000  0.5101320000000  0.4778620000000 1.0
C      1  0.5013830000000  0.4966860000000  0.5682510000000 1.0
C      1  0.6067740000000  0.4856290000000  0.4309080000000 1.0
C      1  0.5762190000000  0.5299550000000  0.5252430000000 1.0
C      1  0.4142520000000  0.4204440000000  0.4527150000000 1.0
C      1  0.4904270000000  0.5546900000000  0.3973120000000 1.0
C      1  0.5974970000000  0.5383270000000  0.4507370000000 1.0
C      1  0.4398060000000  0.4820010000000  0.3988170000000 1.0
C      1  0.5517880000000  0.4558680000000  0.4886530000000 1.0
C      1  0.5751610000000  0.5527300000000  0.4803940000000 1.0
C      1  0.4891960000000  0.6128710000000  0.4830920000000 1.0
C      1  0.5813920000000  0.4723920000000  0.4584810000000 1.0
C      1  0.4669180000000  0.4348580000000  0.5297870000000 1.0
C      1  0.3973760000000  0.4046790000000  0.4377740000000 1.0
C      1  0.4659610000000  0.5505820000000  0.4515950000000 1.0
C      1  0.4293600000000  0.5798540000000  0.4481410000000 1.0
C      1  0.4956200000000  0.5347430000000  0.5111070000000 1.0
C      1  0.5613250000000  0.4947640000000  0.4641920000000 1.0
C      1  0.5053660000000  0.4016460000000  0.4586880000000 1.0
C      1  0.5639250000000  0.6073560000000  0.4763190000000 1.0
C      1  0.5791000000000  0.5551620000000  0.5486420000000 1.0
C      1  0.4932580000000  0.6092620000000  0.5440430000000 1.0
C      1  0.4806580000000  0.6026920000000  0.4561050000000 1.0
C      1  0.4935480000000  0.5206540000000  0.6008800000000 1.0
C      1  0.4191130000000  0.4769970000000  0.5775310000000 1.0
C      1  0.4624460000000  0.4701700000000  0.5159780000000 1.0
C      1  0.4736380000000  0.4094570000000  0.5732720000000 1.0
C      1  0.4309860000000  0.5355570000000  0.5039580000000 1.0
C      1  0.4754190000000  0.4577640000000  0.4469490000000 1.0
C      1  0.5621000000000  0.4646450000000  0.4208800000000 1.0
C      1  0.6075810000000  0.5290980000000  0.5183000000000 1.0
C      1  0.4661070000000  0.5723740000000  0.5599560000000 1.0
C      1  0.4519870000000  0.4544610000000  0.5744160000000 1.0
C      1  0.5079780000000  0.4945660000000  0.6072440000000 1.0
C      1  0.4947550000000  0.4392960000000  0.3995990000000 1.0
C      1  0.5423340000000  0.4455200000000  0.4424580000000 1.0
C      1  0.4002720000000  0.4433130000000  0.5148620000000 1.0
C      1  0.4205950000000  0.5557910000000  0.5283930000000 1.0
C      1  0.4607970000000  0.4348760000000  0.4905560000000 1.0
C      1  0.4152190000000  0.4369440000000  0.5373890000000 1.0
C      1  0.4666060000000  0.5436960000000  0.5649910000000 1.0
C      1  0.4516110000000  0.4063120000000  0.5063890000000 1.0
C      1  0.4522610000000  0.5590430000000  0.5043480000000 1.0
C      1  0.5456740000000  0.5075200000000  0.5133090000000 1.0
C      1  0.4913710000000  0.4175980000000  0.5301980000000 1.0
C      1  0.3859120000000  0.5367290000000  0.5602620000000 1.0
C      1  0.6098920000000  0.4873370000000  0.4639100000000 1.0
C      1  0.4291510000000  0.5878960000000  0.5194670000000 1.0
C      1  0.5964060000000  0.4795520000000  0.4944820000000 1.0
C      1  0.4458720000000  0.4749040000000  0.5988720000000 1.0
C      1  0.4214810000000  0.4827850000000  0.4884980000000 1.0
C      1  0.5434700000000  0.5585960000000  0.4876870000000 1.0
C      1  0.4402790000000  0.5149070000000  0.4073380000000 1.0
C      1  0.4507110000000  0.4834430000000  0.4881330000000 1.0
C      1  0.5308620000000  0.5834660000000  0.4213730000000 1.0
C      1  0.4767730000000  0.5313560000000  0.4853820000000 1.0
C      1  0.5372610000000  0.4928650000000  0.4851740000000 1.0
C      1  0.4715950000000  0.4917810000000  0.5842280000000 1.0
C      1  0.5414330000000  0.5299100000000  0.5902750000000 1.0
C      1  0.4538820000000  0.5045800000000  0.5343480000000 1.0
C      1  0.5265050000000  0.4041540000000  0.4852450000000 1.0
C      1  0.4380880000000  0.5327940000000  0.5758730000000 1.0
C      1  0.5892150000000  0.5275800000000  0.5636020000000 1.0
C      1  0.5265420000000  0.5306980000000  0.4973560000000 1.0
C      1  0.4686150000000  0.4960490000000  0.4080820000000 1.0
C      1  0.5408220000000  0.5001340000000  0.5997500000000 1.0
C      1  0.4167920000000  0.5492110000000  0.4398990000000 1.0
C      1  0.5666280000000  0.4927940000000  0.5347940000000 1.0
C      1  0.4215330000000  0.5149640000000  0.4430400000000 1.0
C      1  0.5144200000000  0.6038000000000  0.4997060000000 1.0
C      1  0.5120230000000  0.4405940000000  0.5705160000000 1.0
C      1  0.4559570000000  0.5757060000000  0.5329960000000 1.0
C      1  0.5804750000000  0.4194410000000  0.5067640000000 1.0
C      1  0.5071090000000  0.5414250000000  0.5518260000000 1.0
C      1  0.5277820000000  0.4870130000000  0.5400970000000 1.0
C      1  0.5817350000000  0.4451160000000  0.4383290000000 1.0
C      1  0.5575320000000  0.4093380000000  0.4836830000000 1.0
C      1  0.5108600000000  0.5728550000000  0.5770860000000 1.0
C      1  0.4166640000000  0.5387880000000  0.5552720000000 1.0
C      1  0.5503930000000  0.4074170000000  0.5171330000000 1.0
C      1  0.5277440000000  0.4958770000000  0.4390700000000 1.0
C      1  0.4694110000000  0.4350280000000  0.4223460000000 1.0
C      1  0.5122240000000  0.5400400000000  0.5854970000000 1.0
C      1  0.4461530000000  0.4063480000000  0.5654720000000 1.0
C      1  0.4799530000000  0.3873240000000  0.5066920000000 1.0
C      1  0.5142430000000  0.4220920000000  0.5088580000000 1.0
C      1  0.4408910000000  0.4873070000000  0.4379250000000 1.0
C      1  0.5301710000000  0.4699120000000  0.4240730000000 1.0
C      1  0.5802170000000  0.5212900000000  0.4049830000000 1.0
C      1  0.4664050000000  0.5693390000000  0.4164220000000 1.0
C      1  0.4210450000000  0.5137330000000  0.5353670000000 1.0
C      1  0.5984780000000  0.4483340000000  0.5042800000000 1.0
C      1  0.3886650000000  0.5154670000000  0.5179820000000 1.0
C      1  0.5053630000000  0.5657090000000  0.5077950000000 1.0
C      1  0.4062260000000  0.5713210000000  0.5015320000000 1.0
C      1  0.4088980000000  0.4839340000000  0.4491040000000 1.0
C      1  0.5230820000000  0.5147110000000  0.4670060000000 1.0
C      1  0.4395630000000  0.5035760000000  0.5833610000000 1.0
C      1  0.4926680000000  0.4901330000000  0.4627740000000 1.0
C      1  0.5674610000000  0.4513360000000  0.6010180000000 1.0
C      1  0.5770000000000  0.5221120000000  0.4718350000000 1.0
C      1  0.4133870000000  0.4535040000000  0.5633170000000 1.0
C      1  0.5822000000000  0.5688750000000  0.4525430000000 1.0
C      1  0.5573620000000  0.5108170000000  0.4359000000000 1.0
C      1  0.4696330000000  0.4611370000000  0.4777370000000 1.0
C      1  0.4790590000000  0.4984660000000  0.5119400000000 1.0
C      1  0.4513310000000  0.6002740000000  0.4966700000000 1.0
C      1  0.5056900000000  0.4639220000000  0.4090360000000 1.0
C      1  0.5626650000000  0.4249270000000  0.5988080000000 1.0
C      1  0.5509880000000  0.5730260000000  0.5424850000000 1.0
C      1  0.5334720000000  0.5972130000000  0.4524800000000 1.0
C      1  0.4400170000000  0.4187170000000  0.5358330000000 1.0
C      1  0.4443720000000  0.4573890000000  0.4219570000000 1.0
C      1  0.6002590000000  0.4972890000000  0.5296990000000 1.0
C      1  0.5280340000000  0.3982970000000  0.5387920000000 1.0
C      1  0.4890790000000  0.5880140000000  0.5651650000000 1.0
C      1  0.5971360000000  0.5535310000000  0.5009350000000 1.0
C      1  0.5607930000000  0.4765630000000  0.5846760000000 1.0
C      1  0.4574970000000  0.5882610000000  0.4412290000000 1.0
C      1  0.5153330000000  0.5339800000000  0.4050450000000 1.0
C      1  0.6166980000000  0.5050370000000  0.4999080000000 1.0
C      1  0.4485790000000  0.4728950000000  0.5460380000000 1.0
C      1  0.4427640000000  0.5448840000000  0.4195460000000 1.0
C      1  0.4267160000000  0.5286790000000  0.4724130000000 1.0
C      1  0.5216030000000  0.4553560000000  0.5447830000000 1.0
END
