TITL C-2778434-4341-514 -0.00422167009720593 125000 -1132.97243136673 0 0 191 (C1) n - 1
REM
REM in /home/nfs/bkarasulu/CARBON/AIRSS/Generating-Clusters/REBO/Only-C1/SD-CG/HFTN-CG
REM
REM
REM
REM
REM
REM ./C.cell (11c1c37f851c82e70ff6c80c92926a4b)
REM
REM compiler GCC version 9.2.1 20190827 (Red Hat 9.2.1-1)
REM options -cpp -mtune=generic -march=x86-64 -g -O0 -fpre-include=/usr/include/finclude/math-vector-fortran.h
REM seed -1068629353 721640621 133818007 1828529420 -648926336 -1118829942 -438309658 -1598878357 -1297036533 -1704283212 -902967546 18524468 496462574 -854502198 -1725416270 609581675 -1456441892 -1404953484 -976940982 -168564736 1625627480 -1987730655 422042874 1409489970 -583520877 -498553229 1945197544 1186676493 587047604 2139028413 -851898629 -1924655165 -1015894888
REM
CELL 1.54180   50.00000   50.00000   50.00000   90.00000   90.00000   90.00000
LATT -1
SFAC C  
C      1  0.4511140000000  0.5332260000000  0.6068360000000 1.0
C      1  0.6038650000000  0.5563860000000  0.5189740000000 1.0
C      1  0.6228440000000  0.4883540000000  0.4566140000000 1.0
C      1  0.4099260000000  0.5048960000000  0.5453850000000 1.0
C      1  0.4511400000000  0.4471130000000  0.5070560000000 1.0
C      1  0.4939090000000  0.3936340000000  0.4708940000000 1.0
C      1  0.4923320000000  0.4309740000000  0.5628230000000 1.0
C      1  0.4695120000000  0.4850420000000  0.4361910000000 1.0
C      1  0.6093930000000  0.4453880000000  0.4868530000000 1.0
C      1  0.5997730000000  0.5119670000000  0.4988540000000 1.0
C      1  0.4352600000000  0.5743580000000  0.4362080000000 1.0
C      1  0.5176010000000  0.5449670000000  0.4116290000000 1.0
C      1  0.5981980000000  0.5431550000000  0.4565960000000 1.0
C      1  0.5623530000000  0.4981150000000  0.4104570000000 1.0
C      1  0.5286540000000  0.4933190000000  0.5284810000000 1.0
C      1  0.4654170000000  0.4146720000000  0.4166350000000 1.0
C      1  0.4016890000000  0.5399900000000  0.4805100000000 1.0
C      1  0.4430620000000  0.4615920000000  0.5326380000000 1.0
C      1  0.5236320000000  0.5039950000000  0.4903630000000 1.0
C      1  0.4086140000000  0.5667020000000  0.5470300000000 1.0
C      1  0.4236070000000  0.5152750000000  0.4776590000000 1.0
C      1  0.4087980000000  0.5609000000000  0.4349910000000 1.0
C      1  0.4700060000000  0.4990940000000  0.4647630000000 1.0
C      1  0.5827430000000  0.5093320000000  0.5387660000000 1.0
C      1  0.5204070000000  0.5316750000000  0.6042900000000 1.0
C      1  0.4857220000000  0.5087110000000  0.5276400000000 1.0
C      1  0.5776140000000  0.4876360000000  0.5211440000000 1.0
C      1  0.4524630000000  0.3984350000000  0.5081360000000 1.0
C      1  0.4376300000000  0.5210310000000  0.4375900000000 1.0
C      1  0.5847010000000  0.4426340000000  0.4661630000000 1.0
C      1  0.5862370000000  0.4255700000000  0.5022390000000 1.0
C      1  0.4929020000000  0.4426220000000  0.4784660000000 1.0
C      1  0.4503940000000  0.4317210000000  0.4702290000000 1.0
C      1  0.5442640000000  0.3866310000000  0.4647790000000 1.0
C      1  0.4579180000000  0.5340300000000  0.5493250000000 1.0
C      1  0.5194410000000  0.4995140000000  0.6040790000000 1.0
C      1  0.5138890000000  0.4637060000000  0.4809310000000 1.0
C      1  0.5743830000000  0.5167040000000  0.4873610000000 1.0
C      1  0.3826260000000  0.5152530000000  0.4556700000000 1.0
C      1  0.5337690000000  0.6024050000000  0.5343660000000 1.0
C      1  0.4389140000000  0.5255530000000  0.4060610000000 1.0
C      1  0.5179790000000  0.3850050000000  0.5353660000000 1.0
C      1  0.4997960000000  0.5029200000000  0.4693760000000 1.0
C      1  0.4629870000000  0.4060980000000  0.4776390000000 1.0
C      1  0.4948790000000  0.5704600000000  0.4541720000000 1.0
C      1  0.4125490000000  0.5662980000000  0.4883110000000 1.0
C      1  0.5683630000000  0.4270280000000  0.5301320000000 1.0
C      1  0.5176220000000  0.5469380000000  0.4657180000000 1.0
C      1  0.4767960000000  0.6189110000000  0.4940530000000 1.0
C      1  0.4767780000000  0.6025610000000  0.5166990000000 1.0
C      1  0.4709140000000  0.4863760000000  0.5103530000000 1.0
C      1  0.4607370000000  0.5721230000000  0.4533540000000 1.0
C      1  0.5476610000000  0.5047720000000  0.5929940000000 1.0
C      1  0.5233740000000  0.4595040000000  0.5335210000000 1.0
C      1  0.4100070000000  0.4746870000000  0.5715550000000 1.0
C      1  0.4988160000000  0.5489910000000  0.5979670000000 1.0
C      1  0.4515510000000  0.5238470000000  0.4650780000000 1.0
C      1  0.5059330000000  0.5303510000000  0.5324440000000 1.0
C      1  0.4534640000000  0.5381550000000  0.5184340000000 1.0
C      1  0.4775230000000  0.4632240000000  0.5877270000000 1.0
C      1  0.5430920000000  0.5978830000000  0.4565390000000 1.0
C      1  0.5623710000000  0.5336810000000  0.5388410000000 1.0
C      1  0.3980900000000  0.5486620000000  0.5297040000000 1.0
C      1  0.4909500000000  0.4696970000000  0.5324730000000 1.0
C      1  0.4950750000000  0.5782810000000  0.5148410000000 1.0
C      1  0.4232860000000  0.4730090000000  0.4952960000000 1.0
C      1  0.5800820000000  0.5203150000000  0.4265310000000 1.0
C      1  0.6116860000000  0.5158180000000  0.5463590000000 1.0
C      1  0.4337750000000  0.5145540000000  0.5102760000000 1.0
C      1  0.5124620000000  0.5810280000000  0.5408210000000 1.0
C      1  0.5467530000000  0.4193700000000  0.4293470000000 1.0
C      1  0.5415190000000  0.6083660000000  0.5112860000000 1.0
C      1  0.5524090000000  0.4778730000000  0.5134990000000 1.0
C      1  0.4189350000000  0.4872020000000  0.4275270000000 1.0
C      1  0.5977950000000  0.4534240000000  0.5181240000000 1.0
C      1  0.4804420000000  0.4105590000000  0.5132400000000 1.0
C      1  0.5461580000000  0.4925800000000  0.5637430000000 1.0
C      1  0.5940950000000  0.4273400000000  0.5529200000000 1.0
C      1  0.5276270000000  0.4541880000000  0.5868200000000 1.0
C      1  0.3876530000000  0.4979810000000  0.5081680000000 1.0
C      1  0.5200930000000  0.4084410000000  0.4316950000000 1.0
C      1  0.6112950000000  0.5290610000000  0.5188780000000 1.0
C      1  0.4577460000000  0.4322760000000  0.5434200000000 1.0
C      1  0.5643340000000  0.4238940000000  0.5641070000000 1.0
C      1  0.5346400000000  0.5918040000000  0.4847290000000 1.0
C      1  0.4932290000000  0.4232010000000  0.4579350000000 1.0
C      1  0.5804070000000  0.5660130000000  0.4442450000000 1.0
C      1  0.5392470000000  0.4333360000000  0.5185570000000 1.0
C      1  0.4344330000000  0.5873680000000  0.5245950000000 1.0
C      1  0.5033330000000  0.5758470000000  0.5901640000000 1.0
C      1  0.5871460000000  0.4583170000000  0.5464860000000 1.0
C      1  0.4912020000000  0.5495940000000  0.4873560000000 1.0
C      1  0.5716780000000  0.5603080000000  0.5271680000000 1.0
C      1  0.4386550000000  0.4921860000000  0.5331860000000 1.0
C      1  0.5331970000000  0.4902620000000  0.3977240000000 1.0
C      1  0.4101390000000  0.4963370000000  0.4525800000000 1.0
C      1  0.5235340000000  0.5535130000000  0.5488710000000 1.0
C      1  0.4295340000000  0.4677900000000  0.5960900000000 1.0
C      1  0.5653910000000  0.4696690000000  0.5610300000000 1.0
C      1  0.5123400000000  0.5000970000000  0.5576730000000 1.0
C      1  0.4848400000000  0.6223360000000  0.4684990000000 1.0
C      1  0.5088360000000  0.4772800000000  0.4269210000000 1.0
C      1  0.5307360000000  0.4032500000000  0.5118190000000 1.0
C      1  0.5383760000000  0.5203100000000  0.4120310000000 1.0
C      1  0.4537930000000  0.5585390000000  0.5688600000000 1.0
C      1  0.3887920000000  0.5444960000000  0.4525090000000 1.0
C      1  0.5948080000000  0.4863500000000  0.4433070000000 1.0
C      1  0.4880620000000  0.5322610000000  0.4114230000000 1.0
C      1  0.5436750000000  0.5617150000000  0.5730060000000 1.0
C      1  0.4568050000000  0.4618540000000  0.4587370000000 1.0
C      1  0.4759610000000  0.4575050000000  0.5550070000000 1.0
C      1  0.4945070000000  0.5865540000000  0.5654280000000 1.0
C      1  0.4997030000000  0.6155420000000  0.4469560000000 1.0
C      1  0.4920430000000  0.4803090000000  0.3672950000000 1.0
C      1  0.6058520000000  0.4814180000000  0.5032050000000 1.0
C      1  0.3804410000000  0.4934670000000  0.4789270000000 1.0
C      1  0.5509590000000  0.5010640000000  0.4809510000000 1.0
C      1  0.5409850000000  0.4550930000000  0.4936880000000 1.0
C      1  0.5318200000000  0.5250530000000  0.5624720000000 1.0
C      1  0.5510650000000  0.3901000000000  0.4941940000000 1.0
C      1  0.4751880000000  0.4937820000000  0.5954570000000 1.0
C      1  0.5335840000000  0.5393390000000  0.4400620000000 1.0
C      1  0.4120370000000  0.4602930000000  0.5450800000000 1.0
C      1  0.4554420000000  0.5710010000000  0.4137390000000 1.0
C      1  0.5847110000000  0.5699340000000  0.4962060000000 1.0
C      1  0.5688110000000  0.5906030000000  0.4488580000000 1.0
C      1  0.4775250000000  0.4073640000000  0.5529460000000 1.0
C      1  0.5730010000000  0.4078850000000  0.4821380000000 1.0
C      1  0.5017630000000  0.3969050000000  0.5009020000000 1.0
C      1  0.4046030000000  0.4733850000000  0.4736500000000 1.0
C      1  0.4937140000000  0.4238900000000  0.4261120000000 1.0
C      1  0.4931360000000  0.3854410000000  0.5463510000000 1.0
C      1  0.5212490000000  0.5993250000000  0.4379950000000 1.0
C      1  0.5717710000000  0.5461390000000  0.4778190000000 1.0
C      1  0.5368840000000  0.5255970000000  0.5206220000000 1.0
C      1  0.4717860000000  0.5017950000000  0.6201950000000 1.0
C      1  0.5645900000000  0.5425400000000  0.4351230000000 1.0
C      1  0.5609930000000  0.4465700000000  0.4720260000000 1.0
C      1  0.5087590000000  0.4726140000000  0.5978390000000 1.0
C      1  0.6255130000000  0.4726110000000  0.4795850000000 1.0
C      1  0.4599330000000  0.5436370000000  0.4004820000000 1.0
C      1  0.5282170000000  0.4591390000000  0.4060490000000 1.0
C      1  0.4882660000000  0.5017950000000  0.4151830000000 1.0
C      1  0.4419310000000  0.5630260000000  0.5015670000000 1.0
C      1  0.5764180000000  0.4480070000000  0.4030080000000 1.0
C      1  0.4105050000000  0.5369950000000  0.5827760000000 1.0
C      1  0.5686280000000  0.4835410000000  0.4370050000000 1.0
C      1  0.4774580000000  0.4375130000000  0.5024830000000 1.0
C      1  0.4841320000000  0.5090610000000  0.5686680000000 1.0
C      1  0.4123100000000  0.5334240000000  0.4222720000000 1.0
C      1  0.6278350000000  0.5135460000000  0.5674340000000 1.0
C      1  0.5401330000000  0.5418430000000  0.4907800000000 1.0
C      1  0.4019590000000  0.5253950000000  0.5095680000000 1.0
C      1  0.5184320000000  0.4420420000000  0.5610680000000 1.0
C      1  0.5021360000000  0.4819320000000  0.5029110000000 1.0
C      1  0.4669220000000  0.5846020000000  0.5600060000000 1.0
C      1  0.4524030000000  0.5041230000000  0.5588010000000 1.0
C      1  0.4527350000000  0.4810720000000  0.4865620000000 1.0
C      1  0.6086390000000  0.5165730000000  0.4436680000000 1.0
C      1  0.4492590000000  0.4481780000000  0.5916630000000 1.0
C      1  0.5490910000000  0.4860770000000  0.4565020000000 1.0
C      1  0.4388060000000  0.4264440000000  0.5777970000000 1.0
C      1  0.4283670000000  0.5212140000000  0.5980350000000 1.0
C      1  0.5641540000000  0.4074700000000  0.4507140000000 1.0
C      1  0.4615270000000  0.5507850000000  0.4766240000000 1.0
C      1  0.4744830000000  0.5370140000000  0.5855290000000 1.0
C      1  0.5511870000000  0.4412060000000  0.4121280000000 1.0
C      1  0.4108550000000  0.5875890000000  0.5070330000000 1.0
C      1  0.4336340000000  0.4969310000000  0.5818790000000 1.0
C      1  0.4851480000000  0.5644960000000  0.4229900000000 1.0
C      1  0.4294750000000  0.4150600000000  0.5171710000000 1.0
C      1  0.4052180000000  0.4761860000000  0.5183730000000 1.0
C      1  0.5185020000000  0.3895960000000  0.4527280000000 1.0
C      1  0.5068590000000  0.5802040000000  0.4845800000000 1.0
C      1  0.4572540000000  0.5974960000000  0.5365860000000 1.0
C      1  0.4708870000000  0.4587140000000  0.4025360000000 1.0
C      1  0.5454720000000  0.5439040000000  0.5958970000000 1.0
C      1  0.3968460000000  0.5207160000000  0.5633040000000 1.0
C      1  0.4247410000000  0.4292230000000  0.5468770000000 1.0
C      1  0.4843670000000  0.5471960000000  0.5173030000000 1.0
C      1  0.5154780000000  0.5776970000000  0.4207740000000 1.0
C      1  0.4273550000000  0.4336670000000  0.4918050000000 1.0
C      1  0.4458970000000  0.4306850000000  0.4162120000000 1.0
C      1  0.4473000000000  0.4616310000000  0.4260610000000 1.0
C      1  0.5028640000000  0.4891490000000  0.3894050000000 1.0
C      1  0.4968370000000  0.4504190000000  0.4123750000000 1.0
C      1  0.5517650000000  0.5709770000000  0.5015460000000 1.0
C      1  0.5188280000000  0.4806440000000  0.4540330000000 1.0
C      1  0.5637650000000  0.5271880000000  0.5724530000000 1.0
C      1  0.4226510000000  0.5599750000000  0.5707830000000 1.0
C      1  0.5547460000000  0.4478460000000  0.5766580000000 1.0
END
