TITL C-2778437-8639-491 0.103368363773113 125000 -607.086941452966 0 0 103 (C1) n - 1
REM
REM in /home/nfs/bkarasulu/CARBON/AIRSS/Generating-Clusters/REBO/Only-C1/SD-CG/HFTN-CG
REM
REM
REM
REM
REM
REM ./C.cell (11c1c37f851c82e70ff6c80c92926a4b)
REM
REM compiler GCC version 9.2.1 20190827 (Red Hat 9.2.1-1)
REM options -cpp -mtune=generic -march=x86-64 -g -O0 -fpre-include=/usr/include/finclude/math-vector-fortran.h
REM seed 1643442692 888518361 53799779 2039430592 -2012717874 1961995206 1295818227 -240832250 -1645142962 329251818 -721654317 269009648 1516570301 508001734 -1485603680 322713228 1988102342 -1639646672 -477889126 683386601 1927953914 -1082083648 -1696123784 776601615 297599822 173102787 1181067719 1304861689 -890883632 1722234266 -1586848777 -660000389 2079445427
REM
CELL 1.54180   50.00000   50.00000   50.00000   90.00000   90.00000   90.00000
LATT -1
SFAC C  
C      1  0.4481670000000  0.5074510000000  0.4290640000000 1.0
C      1  0.5515490000000  0.4655190000000  0.4378750000000 1.0
C      1  0.5398670000000  0.5218150000000  0.5510030000000 1.0
C      1  0.4885540000000  0.4484540000000  0.4414010000000 1.0
C      1  0.5695990000000  0.4497850000000  0.5063280000000 1.0
C      1  0.4720920000000  0.4940160000000  0.5849270000000 1.0
C      1  0.4713510000000  0.5634280000000  0.5553620000000 1.0
C      1  0.4568510000000  0.5392330000000  0.5599550000000 1.0
C      1  0.4748010000000  0.4171510000000  0.5613940000000 1.0
C      1  0.5096890000000  0.4082820000000  0.4992900000000 1.0
C      1  0.4487330000000  0.4474320000000  0.5287600000000 1.0
C      1  0.5702680000000  0.4809380000000  0.4618230000000 1.0
C      1  0.4687960000000  0.4324070000000  0.5807560000000 1.0
C      1  0.5179510000000  0.4214350000000  0.4712150000000 1.0
C      1  0.4997250000000  0.5027880000000  0.5823340000000 1.0
C      1  0.5298940000000  0.5722720000000  0.4925630000000 1.0
C      1  0.4347850000000  0.5267960000000  0.4510400000000 1.0
C      1  0.4448980000000  0.4647250000000  0.5501630000000 1.0
C      1  0.4273540000000  0.4749040000000  0.4885040000000 1.0
C      1  0.5305750000000  0.5030390000000  0.4030080000000 1.0
C      1  0.5225560000000  0.4909730000000  0.5323950000000 1.0
C      1  0.4845370000000  0.5744020000000  0.5252150000000 1.0
C      1  0.5419500000000  0.5648720000000  0.4659690000000 1.0
C      1  0.4848520000000  0.5498640000000  0.4543820000000 1.0
C      1  0.5700130000000  0.5117690000000  0.4559750000000 1.0
C      1  0.5850860000000  0.5074210000000  0.5051360000000 1.0
C      1  0.4759040000000  0.5132460000000  0.4894920000000 1.0
C      1  0.5256600000000  0.4931250000000  0.4694590000000 1.0
C      1  0.5081260000000  0.5220880000000  0.5556080000000 1.0
C      1  0.5391150000000  0.4374350000000  0.4501210000000 1.0
C      1  0.5143630000000  0.4817830000000  0.4101330000000 1.0
C      1  0.4855500000000  0.4535380000000  0.5147740000000 1.0
C      1  0.4763810000000  0.5131510000000  0.4197930000000 1.0
C      1  0.5536840000000  0.4292090000000  0.5231080000000 1.0
C      1  0.5236770000000  0.5335240000000  0.4165800000000 1.0
C      1  0.5042790000000  0.5525450000000  0.4804200000000 1.0
C      1  0.5263520000000  0.4337600000000  0.5431350000000 1.0
C      1  0.4262470000000  0.5132970000000  0.5017900000000 1.0
C      1  0.5619440000000  0.4497790000000  0.4729490000000 1.0
C      1  0.5691630000000  0.5439390000000  0.5352910000000 1.0
C      1  0.5024440000000  0.5734360000000  0.5995010000000 1.0
C      1  0.4208000000000  0.5044980000000  0.4724560000000 1.0
C      1  0.4828420000000  0.4147850000000  0.5054500000000 1.0
C      1  0.4595330000000  0.5807220000000  0.4566090000000 1.0
C      1  0.5093810000000  0.5612100000000  0.5448870000000 1.0
C      1  0.5461280000000  0.5372620000000  0.4620650000000 1.0
C      1  0.4876480000000  0.4901680000000  0.4076200000000 1.0
C      1  0.4714870000000  0.5017580000000  0.5275110000000 1.0
C      1  0.4455620000000  0.4893460000000  0.4563710000000 1.0
C      1  0.5419060000000  0.4784760000000  0.5085040000000 1.0
C      1  0.4700420000000  0.4284870000000  0.4839430000000 1.0
C      1  0.5012390000000  0.5271140000000  0.4982170000000 1.0
C      1  0.5716500000000  0.4813320000000  0.4951580000000 1.0
C      1  0.5086630000000  0.5795740000000  0.4421720000000 1.0
C      1  0.4495830000000  0.5107420000000  0.5772410000000 1.0
C      1  0.5194470000000  0.4538050000000  0.5164190000000 1.0
C      1  0.4157320000000  0.5383280000000  0.5178690000000 1.0
C      1  0.5483490000000  0.5600190000000  0.5132540000000 1.0
C      1  0.4314760000000  0.4941870000000  0.5530940000000 1.0
C      1  0.5719590000000  0.4841530000000  0.5609380000000 1.0
C      1  0.5200470000000  0.4543840000000  0.5679670000000 1.0
C      1  0.4954830000000  0.5688220000000  0.5738050000000 1.0
C      1  0.4733650000000  0.4270740000000  0.5325980000000 1.0
C      1  0.5536020000000  0.5315460000000  0.5006930000000 1.0
C      1  0.4932500000000  0.5335680000000  0.4301630000000 1.0
C      1  0.4932410000000  0.5359720000000  0.5286040000000 1.0
C      1  0.5790000000000  0.5264700000000  0.4819490000000 1.0
C      1  0.5186600000000  0.4573660000000  0.4308320000000 1.0
C      1  0.5460660000000  0.5215510000000  0.4343440000000 1.0
C      1  0.5836420000000  0.5218090000000  0.5296770000000 1.0
C      1  0.4440350000000  0.4462850000000  0.4967410000000 1.0
C      1  0.4625860000000  0.4584130000000  0.4377420000000 1.0
C      1  0.4331150000000  0.5546790000000  0.5265520000000 1.0
C      1  0.4928980000000  0.4696750000000  0.5613990000000 1.0
C      1  0.4653530000000  0.4624780000000  0.5742240000000 1.0
C      1  0.4633670000000  0.4788980000000  0.5091590000000 1.0
C      1  0.4883220000000  0.5850320000000  0.4647720000000 1.0
C      1  0.5284230000000  0.4098920000000  0.5195240000000 1.0
C      1  0.4429640000000  0.5988940000000  0.4470830000000 1.0
C      1  0.4502770000000  0.5173300000000  0.5387800000000 1.0
C      1  0.4632780000000  0.5494700000000  0.5190460000000 1.0
C      1  0.4891830000000  0.4306140000000  0.4628110000000 1.0
C      1  0.5462160000000  0.5102710000000  0.5206980000000 1.0
C      1  0.4522100000000  0.4759850000000  0.4193650000000 1.0
C      1  0.5183940000000  0.5642280000000  0.4254510000000 1.0
C      1  0.5278060000000  0.5196090000000  0.4839300000000 1.0
C      1  0.5486830000000  0.4999380000000  0.5708690000000 1.0
C      1  0.4950360000000  0.4945750000000  0.5435850000000 1.0
C      1  0.4550450000000  0.5259920000000  0.5001860000000 1.0
C      1  0.4974220000000  0.5812670000000  0.4973210000000 1.0
C      1  0.5247520000000  0.4857700000000  0.5804330000000 1.0
C      1  0.4690760000000  0.4862100000000  0.4765200000000 1.0
C      1  0.5369340000000  0.4930500000000  0.4436920000000 1.0
C      1  0.4514930000000  0.5496370000000  0.4611250000000 1.0
C      1  0.5690110000000  0.4651180000000  0.5362080000000 1.0
C      1  0.4321780000000  0.4872640000000  0.5198090000000 1.0
C      1  0.4900370000000  0.4643390000000  0.4842020000000 1.0
C      1  0.4445380000000  0.4569620000000  0.4646520000000 1.0
C      1  0.5166640000000  0.4688830000000  0.4790770000000 1.0
C      1  0.5396110000000  0.4693740000000  0.5471420000000 1.0
C      1  0.5379040000000  0.5542950000000  0.5440700000000 1.0
C      1  0.4419270000000  0.5612570000000  0.4867520000000 1.0
C      1  0.5341000000000  0.4447570000000  0.4886810000000 1.0
END
