TITL C-2778423-5760-475 3.25399946349703e-08 125000 -69.5531716738232 0 0 13 (C2v) n - 1
REM
REM in /home/nfs/bkarasulu/CARBON/AIRSS/Generating-Clusters/REBO/Only-C1/SD-CG/HFTN-CG
REM
REM
REM
REM
REM
REM ./C.cell (11c1c37f851c82e70ff6c80c92926a4b)
REM
REM compiler GCC version 9.2.1 20190827 (Red Hat 9.2.1-1)
REM options -cpp -mtune=generic -march=x86-64 -g -O0 -fpre-include=/usr/include/finclude/math-vector-fortran.h
REM seed 992774879 -909433111 287238258 1151996498 -1682527928 1713556721 -2026650587 1307986471 -713165770 -64546416 -917916002 -108168783 511791927 -808408250 -337286160 -1605876420 1192797154 684005667 -2072579834 -785613061 656036336 966994321 -580584183 574134802 1263349386 -711833799 -124068795 122086380 788340900 -871910576 1859667900 -2023131994 337795539
REM
CELL 1.54180   50.00000   50.00000   50.00000   90.00000   90.00000   90.00000
LATT -1
SFAC C  
C      1  0.4256110000000  0.4004300000000  0.5212630000000 1.0
C      1  0.5691830000000  0.5926020000000  0.4802250000000 1.0
C      1  0.5241080000000  0.5567200000000  0.4812950000000 1.0
C      1  0.5041650000000  0.5055740000000  0.4988100000000 1.0
C      1  0.4570330000000  0.4424880000000  0.5122810000000 1.0
C      1  0.4884540000000  0.4845460000000  0.5033000000000 1.0
C      1  0.5492390000000  0.5414560000000  0.4977400000000 1.0
C      1  0.5201610000000  0.5269850000000  0.4942370000000 1.0
C      1  0.5531870000000  0.5711910000000  0.4847980000000 1.0
C      1  0.4413220000000  0.4214590000000  0.5167720000000 1.0
C      1  0.5846430000000  0.6132960000000  0.4758060000000 1.0
C      1  0.4727430000000  0.4635170000000  0.5077910000000 1.0
C      1  0.4101510000000  0.3797360000000  0.5256820000000 1.0
END
