TITL C-2778431-5191-1491 -0.000387817541937811 125000 -569.810824004045 0 0 98 (C1) n - 1
REM
REM in /home/nfs/bkarasulu/CARBON/AIRSS/Generating-Clusters/REBO/Only-C1/SD-CG/HFTN-CG
REM
REM
REM
REM
REM
REM ./C.cell (11c1c37f851c82e70ff6c80c92926a4b)
REM
REM compiler GCC version 9.2.1 20190827 (Red Hat 9.2.1-1)
REM options -cpp -mtune=generic -march=x86-64 -g -O0 -fpre-include=/usr/include/finclude/math-vector-fortran.h
REM seed -1707407981 -458468828 -1974298390 -1642770523 1955862227 1575886136 -170285960 -1986056770 1261116992 -1661995850 -202670315 -715185841 179089199 901512001 -916164524 1752618085 1885538887 149788138 -1005599391 1054048587 -1021980493 675295597 -240191625 709359213 -1069268173 94640663 818061510 -861952238 -1400830030 612230290 -1068210702 1789726525 -493778839
REM
CELL 1.54180   50.00000   50.00000   50.00000   90.00000   90.00000   90.00000
LATT -1
SFAC C  
C      1  0.5239560000000  0.6022660000000  0.5187320000000 1.0
C      1  0.5382360000000  0.4855270000000  0.5748730000000 1.0
C      1  0.5237510000000  0.4868420000000  0.4280890000000 1.0
C      1  0.5165830000000  0.5117340000000  0.4685760000000 1.0
C      1  0.5420160000000  0.5699970000000  0.4535600000000 1.0
C      1  0.5097400000000  0.4439650000000  0.5589810000000 1.0
C      1  0.5770100000000  0.4731790000000  0.5249470000000 1.0
C      1  0.4882430000000  0.4528600000000  0.4320450000000 1.0
C      1  0.4662000000000  0.4636410000000  0.5133390000000 1.0
C      1  0.4551800000000  0.5188410000000  0.4087150000000 1.0
C      1  0.5078410000000  0.5332800000000  0.4270700000000 1.0
C      1  0.4608120000000  0.4850960000000  0.4605610000000 1.0
C      1  0.5140020000000  0.4588780000000  0.5039430000000 1.0
C      1  0.4224780000000  0.4679170000000  0.4857780000000 1.0
C      1  0.5373810000000  0.4780950000000  0.4580400000000 1.0
C      1  0.5398730000000  0.4398020000000  0.5517000000000 1.0
C      1  0.4690600000000  0.4238210000000  0.4713670000000 1.0
C      1  0.4888420000000  0.4950340000000  0.4710920000000 1.0
C      1  0.4332360000000  0.5563200000000  0.4515070000000 1.0
C      1  0.4929410000000  0.4891500000000  0.5479410000000 1.0
C      1  0.4833360000000  0.5252980000000  0.4861610000000 1.0
C      1  0.4342080000000  0.4756730000000  0.5524430000000 1.0
C      1  0.4689230000000  0.4140310000000  0.5040910000000 1.0
C      1  0.4298680000000  0.5300330000000  0.4993690000000 1.0
C      1  0.5593570000000  0.4599760000000  0.4766280000000 1.0
C      1  0.4644790000000  0.4786160000000  0.5634310000000 1.0
C      1  0.5009340000000  0.4449060000000  0.4596970000000 1.0
C      1  0.4593040000000  0.5434440000000  0.5019540000000 1.0
C      1  0.5540920000000  0.5247330000000  0.4333010000000 1.0
C      1  0.4647800000000  0.4998790000000  0.5865970000000 1.0
C      1  0.5566190000000  0.5815710000000  0.5088350000000 1.0
C      1  0.4308090000000  0.4948300000000  0.5315450000000 1.0
C      1  0.5027060000000  0.5091320000000  0.5058440000000 1.0
C      1  0.4536830000000  0.5457810000000  0.5540660000000 1.0
C      1  0.5662820000000  0.5141240000000  0.4834660000000 1.0
C      1  0.4979070000000  0.4766660000000  0.4199900000000 1.0
C      1  0.4854140000000  0.5784290000000  0.4959530000000 1.0
C      1  0.4583900000000  0.5865900000000  0.4841870000000 1.0
C      1  0.5044090000000  0.5364070000000  0.4541500000000 1.0
C      1  0.4368450000000  0.5266500000000  0.4363750000000 1.0
C      1  0.5536150000000  0.4578990000000  0.5076310000000 1.0
C      1  0.5572050000000  0.5523850000000  0.4372570000000 1.0
C      1  0.4232190000000  0.4463140000000  0.5121630000000 1.0
C      1  0.5910010000000  0.4964140000000  0.4809480000000 1.0
C      1  0.4725210000000  0.5194540000000  0.5309140000000 1.0
C      1  0.5239840000000  0.4256960000000  0.4566260000000 1.0
C      1  0.4643520000000  0.4387410000000  0.4434100000000 1.0
C      1  0.5071250000000  0.4718050000000  0.5741680000000 1.0
C      1  0.4876550000000  0.5433930000000  0.5213790000000 1.0
C      1  0.4912960000000  0.4817510000000  0.5085820000000 1.0
C      1  0.5102690000000  0.5046170000000  0.5802050000000 1.0
C      1  0.5404020000000  0.4338900000000  0.5234770000000 1.0
C      1  0.4451410000000  0.4357310000000  0.4924150000000 1.0
C      1  0.5193340000000  0.4148550000000  0.5145650000000 1.0
C      1  0.5388910000000  0.5962560000000  0.4470420000000 1.0
C      1  0.4398350000000  0.5240140000000  0.5313620000000 1.0
C      1  0.5632670000000  0.5339570000000  0.5068200000000 1.0
C      1  0.4525550000000  0.5027990000000  0.4851360000000 1.0
C      1  0.4425260000000  0.5773490000000  0.4645210000000 1.0
C      1  0.5504600000000  0.5334570000000  0.5549010000000 1.0
C      1  0.5485340000000  0.4373890000000  0.4572030000000 1.0
C      1  0.4782990000000  0.4960690000000  0.4142050000000 1.0
C      1  0.4215670000000  0.5295650000000  0.4663360000000 1.0
C      1  0.4862030000000  0.5189620000000  0.5838240000000 1.0
C      1  0.4430760000000  0.4813580000000  0.5074240000000 1.0
C      1  0.4642230000000  0.4516340000000  0.5425780000000 1.0
C      1  0.4530240000000  0.5616000000000  0.5290250000000 1.0
C      1  0.5007220000000  0.5568250000000  0.5568050000000 1.0
C      1  0.4969140000000  0.5558730000000  0.4794250000000 1.0
C      1  0.5802890000000  0.4983940000000  0.5341220000000 1.0
C      1  0.5167500000000  0.4681340000000  0.5357770000000 1.0
C      1  0.5691370000000  0.5244350000000  0.5326550000000 1.0
C      1  0.4311360000000  0.4481170000000  0.5395010000000 1.0
C      1  0.5321520000000  0.5538630000000  0.5601600000000 1.0
C      1  0.5480870000000  0.5087090000000  0.4588330000000 1.0
C      1  0.4944490000000  0.5753130000000  0.5287350000000 1.0
C      1  0.5394660000000  0.5035370000000  0.5493490000000 1.0
C      1  0.5397310000000  0.4864850000000  0.5199170000000 1.0
C      1  0.5435080000000  0.5569290000000  0.5033250000000 1.0
C      1  0.5246160000000  0.3960320000000  0.4940360000000 1.0
C      1  0.4792810000000  0.5421930000000  0.5676650000000 1.0
C      1  0.5110630000000  0.4723670000000  0.4733450000000 1.0
C      1  0.5542150000000  0.4583420000000  0.5671120000000 1.0
C      1  0.4850610000000  0.4473100000000  0.4900030000000 1.0
C      1  0.5877530000000  0.4722250000000  0.4742830000000 1.0
C      1  0.5280000000000  0.5763680000000  0.5359930000000 1.0
C      1  0.5218590000000  0.3997330000000  0.4670780000000 1.0
C      1  0.5292180000000  0.5145640000000  0.4207620000000 1.0
C      1  0.5354410000000  0.5071450000000  0.4965230000000 1.0
C      1  0.4181870000000  0.5016730000000  0.4839950000000 1.0
C      1  0.5287620000000  0.5588080000000  0.4764190000000 1.0
C      1  0.4857750000000  0.4315400000000  0.5460460000000 1.0
C      1  0.4472660000000  0.4566090000000  0.4653470000000 1.0
C      1  0.4909550000000  0.4165370000000  0.5225620000000 1.0
C      1  0.5116960000000  0.5152550000000  0.5364950000000 1.0
C      1  0.5053510000000  0.6028970000000  0.5019160000000 1.0
C      1  0.4537610000000  0.4979620000000  0.4355950000000 1.0
C      1  0.5200950000000  0.5454560000000  0.5231620000000 1.0
END
