TITL C-2778424-3986-763 0.0226392542334664 125000 -152.159223250497 0 0 29 (C1) n - 1
REM
REM in /home/nfs/bkarasulu/CARBON/AIRSS/Generating-Clusters/REBO/Only-C1/SD-CG/HFTN-CG
REM
REM
REM
REM
REM
REM ./C.cell (11c1c37f851c82e70ff6c80c92926a4b)
REM
REM compiler GCC version 9.2.1 20190827 (Red Hat 9.2.1-1)
REM options -cpp -mtune=generic -march=x86-64 -g -O0 -fpre-include=/usr/include/finclude/math-vector-fortran.h
REM seed 1712438242 -912563079 947187768 -1644712322 -1969548302 337254456 -1639939095 2011452024 -9180073 -617356420 -1185567961 1686791826 978515116 31307115 1571749753 -1582841168 1399603246 897647052 -297336432 964186453 -1648260846 2107170657 686437956 2050947803 1804977292 -2038398761 -1058216628 -264164554 1227574296 397837791 -1830318193 -2002188212 -1274220983
REM
CELL 1.54180   50.00000   50.00000   50.00000   90.00000   90.00000   90.00000
LATT -1
SFAC C  
C      1  0.4689140000000  0.4287990000000  0.5123400000000 1.0
C      1  0.4986130000000  0.5000660000000  0.5261730000000 1.0
C      1  0.5789950000000  0.4301520000000  0.4656000000000 1.0
C      1  0.5633990000000  0.4750230000000  0.4969040000000 1.0
C      1  0.5490990000000  0.4966220000000  0.4933500000000 1.0
C      1  0.5019700000000  0.5180100000000  0.4574680000000 1.0
C      1  0.4547810000000  0.4835480000000  0.5187930000000 1.0
C      1  0.4519310000000  0.5150050000000  0.4761530000000 1.0
C      1  0.4674130000000  0.4413310000000  0.4833770000000 1.0
C      1  0.4994840000000  0.5487090000000  0.5289500000000 1.0
C      1  0.4388750000000  0.4976550000000  0.5002150000000 1.0
C      1  0.5285840000000  0.5227210000000  0.4410750000000 1.0
C      1  0.5143320000000  0.5707580000000  0.5349910000000 1.0
C      1  0.4712320000000  0.5006700000000  0.5355910000000 1.0
C      1  0.4633950000000  0.4381670000000  0.4570060000000 1.0
C      1  0.4753270000000  0.5165870000000  0.4619700000000 1.0
C      1  0.5367020000000  0.5253230000000  0.5051770000000 1.0
C      1  0.4744980000000  0.4621230000000  0.5086800000000 1.0
C      1  0.5758750000000  0.4473280000000  0.4853970000000 1.0
C      1  0.4364430000000  0.5300710000000  0.5004790000000 1.0
C      1  0.4445340000000  0.5504450000000  0.5183920000000 1.0
C      1  0.5122300000000  0.5241650000000  0.5223920000000 1.0
C      1  0.5816700000000  0.4562470000000  0.5160070000000 1.0
C      1  0.5546320000000  0.5459030000000  0.5106300000000 1.0
C      1  0.5022960000000  0.4748910000000  0.5125850000000 1.0
C      1  0.4269670000000  0.5691900000000  0.5273940000000 1.0
C      1  0.4715300000000  0.5504310000000  0.5263660000000 1.0
C      1  0.5309210000000  0.5160740000000  0.4741290000000 1.0
C      1  0.5253590000000  0.4639860000000  0.5024190000000 1.0
END
