TITL C-2778426-5645-119 -0.00125512625508528 125000 -712.043480406574 0 0 122 (C1) n - 1
REM
REM in /home/nfs/bkarasulu/CARBON/AIRSS/Generating-Clusters/REBO/Only-C1/SD-CG/HFTN-CG
REM
REM
REM
REM
REM
REM ./C.cell (11c1c37f851c82e70ff6c80c92926a4b)
REM
REM compiler GCC version 9.2.1 20190827 (Red Hat 9.2.1-1)
REM options -cpp -mtune=generic -march=x86-64 -g -O0 -fpre-include=/usr/include/finclude/math-vector-fortran.h
REM seed 1705128155 -1533858595 333395603 -447916060 -2088943018 545823335 -512295310 -2004723739 -1909325254 977146768 877904471 1869134250 -26799311 -1566393365 1113061087 1307633509 -1419921074 -894829739 -1405763379 710374863 399670615 210099757 -1682191840 -689718817 -135820663 -1213523910 -545848343 231911353 146283992 1217823531 1926006816 322336048 688155498
REM
CELL 1.54180   50.00000   50.00000   50.00000   90.00000   90.00000   90.00000
LATT -1
SFAC C  
C      1  0.4775490000000  0.5597560000000  0.4299780000000 1.0
C      1  0.5524230000000  0.5345240000000  0.4887150000000 1.0
C      1  0.4651630000000  0.4601740000000  0.4304790000000 1.0
C      1  0.5717480000000  0.5117780000000  0.5036730000000 1.0
C      1  0.4932590000000  0.4079720000000  0.4938480000000 1.0
C      1  0.4826490000000  0.4978540000000  0.4609870000000 1.0
C      1  0.4988100000000  0.4509230000000  0.5190050000000 1.0
C      1  0.4350850000000  0.4941170000000  0.5480110000000 1.0
C      1  0.4970860000000  0.5394000000000  0.5078410000000 1.0
C      1  0.5420150000000  0.5273240000000  0.5707630000000 1.0
C      1  0.4565000000000  0.4922480000000  0.4232140000000 1.0
C      1  0.5388570000000  0.5016380000000  0.4662190000000 1.0
C      1  0.5401040000000  0.4750800000000  0.5111730000000 1.0
C      1  0.4516790000000  0.4057810000000  0.5549230000000 1.0
C      1  0.4169190000000  0.5108780000000  0.4805900000000 1.0
C      1  0.5832370000000  0.4985600000000  0.4610530000000 1.0
C      1  0.4086810000000  0.5182250000000  0.5092130000000 1.0
C      1  0.4747230000000  0.5589270000000  0.4636250000000 1.0
C      1  0.4401030000000  0.5284790000000  0.4708030000000 1.0
C      1  0.5500320000000  0.5799060000000  0.4863820000000 1.0
C      1  0.4469400000000  0.5257300000000  0.5023990000000 1.0
C      1  0.5186010000000  0.5240050000000  0.4367730000000 1.0
C      1  0.4114870000000  0.4210600000000  0.4378160000000 1.0
C      1  0.5719790000000  0.5528160000000  0.4671460000000 1.0
C      1  0.5522390000000  0.4262230000000  0.4719640000000 1.0
C      1  0.5668400000000  0.5545200000000  0.5338180000000 1.0
C      1  0.5666950000000  0.5289080000000  0.5522170000000 1.0
C      1  0.5276650000000  0.5754450000000  0.4391260000000 1.0
C      1  0.4673770000000  0.4133480000000  0.5089780000000 1.0
C      1  0.5610290000000  0.4597900000000  0.4371310000000 1.0
C      1  0.5431290000000  0.4890030000000  0.5601860000000 1.0
C      1  0.4101240000000  0.4402990000000  0.4640700000000 1.0
C      1  0.5569060000000  0.5796380000000  0.4548070000000 1.0
C      1  0.5782080000000  0.4581880000000  0.5574540000000 1.0
C      1  0.4559160000000  0.4932650000000  0.5071970000000 1.0
C      1  0.5170680000000  0.5654780000000  0.5780560000000 1.0
C      1  0.4563040000000  0.4219960000000  0.5336980000000 1.0
C      1  0.5093600000000  0.4759250000000  0.4231660000000 1.0
C      1  0.4932780000000  0.4723620000000  0.5952890000000 1.0
C      1  0.4954210000000  0.5387790000000  0.4168340000000 1.0
C      1  0.5155110000000  0.5064960000000  0.5641640000000 1.0
C      1  0.5073720000000  0.4466200000000  0.5777280000000 1.0
C      1  0.4815320000000  0.5649070000000  0.5023360000000 1.0
C      1  0.4926530000000  0.4524020000000  0.4259750000000 1.0
C      1  0.5814470000000  0.4758380000000  0.5354270000000 1.0
C      1  0.4970170000000  0.5466970000000  0.5850160000000 1.0
C      1  0.4516400000000  0.5772930000000  0.5060860000000 1.0
C      1  0.5158160000000  0.5341130000000  0.4660760000000 1.0
C      1  0.4238560000000  0.4511470000000  0.4361990000000 1.0
C      1  0.4841660000000  0.5784670000000  0.5331790000000 1.0
C      1  0.4619580000000  0.5694990000000  0.5487490000000 1.0
C      1  0.4307200000000  0.4786390000000  0.4408140000000 1.0
C      1  0.5438950000000  0.5039030000000  0.4256200000000 1.0
C      1  0.5538500000000  0.5282940000000  0.4551740000000 1.0
C      1  0.4520510000000  0.4501080000000  0.5337270000000 1.0
C      1  0.5724210000000  0.4465240000000  0.4616630000000 1.0
C      1  0.5860320000000  0.5476830000000  0.5059020000000 1.0
C      1  0.4916230000000  0.5287980000000  0.5354600000000 1.0
C      1  0.4464490000000  0.4691840000000  0.5552690000000 1.0
C      1  0.5565920000000  0.4887630000000  0.4888620000000 1.0
C      1  0.4822630000000  0.4976370000000  0.5414030000000 1.0
C      1  0.5105440000000  0.5876880000000  0.5158630000000 1.0
C      1  0.5209810000000  0.4058780000000  0.5134890000000 1.0
C      1  0.4242610000000  0.5428710000000  0.5205520000000 1.0
C      1  0.4829350000000  0.4541910000000  0.5615880000000 1.0
C      1  0.5616380000000  0.5016810000000  0.5347590000000 1.0
C      1  0.4572860000000  0.5145150000000  0.4466500000000 1.0
C      1  0.5641900000000  0.4883170000000  0.4382800000000 1.0
C      1  0.4597900000000  0.5223000000000  0.5337710000000 1.0
C      1  0.4581300000000  0.4533440000000  0.4566440000000 1.0
C      1  0.4103170000000  0.4627970000000  0.4819100000000 1.0
C      1  0.4005230000000  0.4489600000000  0.5284930000000 1.0
C      1  0.4385440000000  0.5662170000000  0.5300030000000 1.0
C      1  0.5152960000000  0.4955540000000  0.6025560000000 1.0
C      1  0.5364520000000  0.4272160000000  0.4954140000000 1.0
C      1  0.4101090000000  0.4668700000000  0.5098070000000 1.0
C      1  0.5206130000000  0.4550350000000  0.4982920000000 1.0
C      1  0.4812890000000  0.5107720000000  0.4090080000000 1.0
C      1  0.4349270000000  0.5576490000000  0.4599510000000 1.0
C      1  0.5531360000000  0.5346400000000  0.4217800000000 1.0
C      1  0.5814040000000  0.4697450000000  0.4791840000000 1.0
C      1  0.4682030000000  0.5174680000000  0.5848320000000 1.0
C      1  0.4666000000000  0.5478840000000  0.5697250000000 1.0
C      1  0.5248480000000  0.5632780000000  0.4711050000000 1.0
C      1  0.5282280000000  0.4346760000000  0.5657630000000 1.0
C      1  0.4498860000000  0.5449030000000  0.4359920000000 1.0
C      1  0.4608780000000  0.4617680000000  0.5062200000000 1.0
C      1  0.4997800000000  0.4251630000000  0.5291650000000 1.0
C      1  0.4663280000000  0.4358880000000  0.4844640000000 1.0
C      1  0.5109840000000  0.4880030000000  0.4523310000000 1.0
C      1  0.5019820000000  0.4932970000000  0.4024280000000 1.0
C      1  0.5051590000000  0.5227450000000  0.5991950000000 1.0
C      1  0.5354160000000  0.4412780000000  0.4479840000000 1.0
C      1  0.4239760000000  0.4927380000000  0.5188790000000 1.0
C      1  0.5828130000000  0.4618090000000  0.5092100000000 1.0
C      1  0.5405740000000  0.4888980000000  0.5897750000000 1.0
C      1  0.5336600000000  0.5082500000000  0.5152020000000 1.0
C      1  0.5158190000000  0.5362670000000  0.5513230000000 1.0
C      1  0.4506150000000  0.5756290000000  0.4771480000000 1.0
C      1  0.4874400000000  0.4683050000000  0.5368100000000 1.0
C      1  0.5190070000000  0.4619990000000  0.4682430000000 1.0
C      1  0.4829400000000  0.5096090000000  0.4990040000000 1.0
C      1  0.4926770000000  0.4227870000000  0.4671060000000 1.0
C      1  0.5046820000000  0.4335220000000  0.4443750000000 1.0
C      1  0.5285040000000  0.5411410000000  0.5067370000000 1.0
C      1  0.5589530000000  0.4383380000000  0.5596150000000 1.0
C      1  0.4877160000000  0.4971620000000  0.5739050000000 1.0
C      1  0.5901200000000  0.5265330000000  0.4792810000000 1.0
C      1  0.4624150000000  0.4671180000000  0.5810570000000 1.0
C      1  0.5007130000000  0.5823170000000  0.4834360000000 1.0
C      1  0.5139040000000  0.5090700000000  0.4881570000000 1.0
C      1  0.4841110000000  0.5301410000000  0.4715880000000 1.0
C      1  0.4964640000000  0.5805690000000  0.4494870000000 1.0
C      1  0.5385680000000  0.5618870000000  0.5518580000000 1.0
C      1  0.5672830000000  0.5730540000000  0.5060940000000 1.0
C      1  0.5265560000000  0.5527360000000  0.4184610000000 1.0
C      1  0.4180260000000  0.4864140000000  0.4665110000000 1.0
C      1  0.4686600000000  0.4743880000000  0.4755630000000 1.0
C      1  0.5559990000000  0.4485790000000  0.5211170000000 1.0
C      1  0.4446480000000  0.5221980000000  0.5623250000000 1.0
C      1  0.5393020000000  0.4246590000000  0.5351490000000 1.0
C      1  0.5311390000000  0.5679570000000  0.5219390000000 1.0
END
