TITL C-2778425-5191-307 -0.000793927872500336 125000 -501.381130496985 0 0 89 (C1) n - 1
REM
REM in /home/nfs/bkarasulu/CARBON/AIRSS/Generating-Clusters/REBO/Only-C1/SD-CG/HFTN-CG
REM
REM
REM
REM
REM
REM ./C.cell (11c1c37f851c82e70ff6c80c92926a4b)
REM
REM compiler GCC version 9.2.1 20190827 (Red Hat 9.2.1-1)
REM options -cpp -mtune=generic -march=x86-64 -g -O0 -fpre-include=/usr/include/finclude/math-vector-fortran.h
REM seed -1410453862 -1130260285 -1387626240 -341077917 -500705478 118714815 1106961119 -614726734 1396483771 1370608455 476930642 506479925 59452600 -1590398414 2141075704 982764442 1820824044 936788715 269024139 -1258204074 -1534867328 -628188272 -184744881 1677620215 239414207 907072996 574793434 635634433 -1636599488 -1421877058 -1611654025 1844033811 -96640014
REM
CELL 1.54180   50.00000   50.00000   50.00000   90.00000   90.00000   90.00000
LATT -1
SFAC C  
C      1  0.5680260000000  0.5386830000000  0.5607760000000 1.0
C      1  0.5303320000000  0.3921200000000  0.4797440000000 1.0
C      1  0.5206020000000  0.5097620000000  0.5759240000000 1.0
C      1  0.4466850000000  0.5563350000000  0.4538550000000 1.0
C      1  0.4906780000000  0.4364550000000  0.6016230000000 1.0
C      1  0.4632550000000  0.5516680000000  0.4266270000000 1.0
C      1  0.4239460000000  0.5161460000000  0.4705460000000 1.0
C      1  0.4840640000000  0.4221640000000  0.4409080000000 1.0
C      1  0.5602070000000  0.5276430000000  0.4956280000000 1.0
C      1  0.5683630000000  0.4369040000000  0.4799830000000 1.0
C      1  0.4903760000000  0.4896160000000  0.4679410000000 1.0
C      1  0.4720140000000  0.5451180000000  0.6105780000000 1.0
C      1  0.5166060000000  0.5061800000000  0.4103730000000 1.0
C      1  0.4868110000000  0.5483990000000  0.5621270000000 1.0
C      1  0.5209820000000  0.4466680000000  0.5319960000000 1.0
C      1  0.4810900000000  0.4725750000000  0.4062960000000 1.0
C      1  0.5098680000000  0.4732960000000  0.5260400000000 1.0
C      1  0.5209030000000  0.5581160000000  0.4688820000000 1.0
C      1  0.5293430000000  0.4056100000000  0.5072370000000 1.0
C      1  0.4408050000000  0.4985400000000  0.4877250000000 1.0
C      1  0.4623560000000  0.4782730000000  0.5045500000000 1.0
C      1  0.4308120000000  0.4817160000000  0.5145370000000 1.0
C      1  0.5183130000000  0.5938710000000  0.5126450000000 1.0
C      1  0.4996440000000  0.4484250000000  0.5783340000000 1.0
C      1  0.5542250000000  0.5104330000000  0.5543590000000 1.0
C      1  0.5227460000000  0.4480410000000  0.4187420000000 1.0
C      1  0.4636060000000  0.5715130000000  0.4789720000000 1.0
C      1  0.5635450000000  0.5594480000000  0.5364750000000 1.0
C      1  0.5484250000000  0.5644070000000  0.5637730000000 1.0
C      1  0.5251540000000  0.5186670000000  0.3872940000000 1.0
C      1  0.4121400000000  0.4614450000000  0.5106630000000 1.0
C      1  0.4532330000000  0.4994470000000  0.5541260000000 1.0
C      1  0.5732330000000  0.4695040000000  0.4835860000000 1.0
C      1  0.4977210000000  0.4509080000000  0.4081750000000 1.0
C      1  0.5390220000000  0.4923210000000  0.4278930000000 1.0
C      1  0.5635400000000  0.4594350000000  0.5499120000000 1.0
C      1  0.4361340000000  0.5630810000000  0.5290460000000 1.0
C      1  0.5579850000000  0.4055410000000  0.4799670000000 1.0
C      1  0.5260890000000  0.5653300000000  0.4999210000000 1.0
C      1  0.4842000000000  0.4978210000000  0.5444520000000 1.0
C      1  0.4754840000000  0.5327750000000  0.5861450000000 1.0
C      1  0.4948850000000  0.6001700000000  0.5192330000000 1.0
C      1  0.5505130000000  0.5104430000000  0.4451890000000 1.0
C      1  0.5674500000000  0.4938430000000  0.5302860000000 1.0
C      1  0.5020480000000  0.5268150000000  0.5449020000000 1.0
C      1  0.4708850000000  0.5193550000000  0.4255310000000 1.0
C      1  0.5321410000000  0.5798590000000  0.4505180000000 1.0
C      1  0.5299400000000  0.5305240000000  0.4616000000000 1.0
C      1  0.5420350000000  0.4826950000000  0.4794680000000 1.0
C      1  0.4663870000000  0.5606970000000  0.5447240000000 1.0
C      1  0.5575240000000  0.4239540000000  0.5089190000000 1.0
C      1  0.4861430000000  0.4986640000000  0.4116620000000 1.0
C      1  0.4913300000000  0.3950480000000  0.4419480000000 1.0
C      1  0.4926610000000  0.4812960000000  0.5731230000000 1.0
C      1  0.5024930000000  0.4309530000000  0.5538280000000 1.0
C      1  0.5335710000000  0.5335820000000  0.5415270000000 1.0
C      1  0.5490480000000  0.4796210000000  0.5643620000000 1.0
C      1  0.4871510000000  0.4749640000000  0.5117740000000 1.0
C      1  0.4701060000000  0.5798270000000  0.5174700000000 1.0
C      1  0.4251590000000  0.5621370000000  0.4773650000000 1.0
C      1  0.5110930000000  0.4156630000000  0.5259950000000 1.0
C      1  0.4718840000000  0.5099500000000  0.4822020000000 1.0
C      1  0.5156580000000  0.5324630000000  0.5847680000000 1.0
C      1  0.4931040000000  0.5678760000000  0.4957580000000 1.0
C      1  0.5110570000000  0.3876460000000  0.4605510000000 1.0
C      1  0.4739850000000  0.4749320000000  0.4498400000000 1.0
C      1  0.4400300000000  0.5784000000000  0.5013190000000 1.0
C      1  0.5080850000000  0.5137200000000  0.4414420000000 1.0
C      1  0.4797190000000  0.3766460000000  0.4255760000000 1.0
C      1  0.4886620000000  0.5544150000000  0.4653490000000 1.0
C      1  0.5450050000000  0.5475790000000  0.5139410000000 1.0
C      1  0.4648700000000  0.5195570000000  0.5115250000000 1.0
C      1  0.4112040000000  0.5384210000000  0.4807880000000 1.0
C      1  0.4818020000000  0.5270090000000  0.4568140000000 1.0
C      1  0.4435340000000  0.5231400000000  0.4459110000000 1.0
C      1  0.4698950000000  0.5054470000000  0.5806060000000 1.0
C      1  0.4788340000000  0.4482590000000  0.4433270000000 1.0
C      1  0.5514680000000  0.4441450000000  0.5309070000000 1.0
C      1  0.5246570000000  0.4706820000000  0.5757330000000 1.0
C      1  0.4504320000000  0.4899020000000  0.4428670000000 1.0
C      1  0.5520600000000  0.4581350000000  0.4593090000000 1.0
C      1  0.5178090000000  0.4962710000000  0.5458650000000 1.0
C      1  0.4297390000000  0.4958650000000  0.5411310000000 1.0
C      1  0.5405030000000  0.4646770000000  0.4327570000000 1.0
C      1  0.5189370000000  0.5569190000000  0.5650600000000 1.0
C      1  0.4049970000000  0.5026030000000  0.5514950000000 1.0
C      1  0.5639930000000  0.4971000000000  0.4999840000000 1.0
C      1  0.5208270000000  0.4983740000000  0.4690530000000 1.0
C      1  0.4521270000000  0.5353570000000  0.5283220000000 1.0
END
