TITL C-2778435-5768-1268 0.0491388858855182 125000 -359.165320269131 0 0 61 (C1) n - 1
REM
REM in /home/nfs/bkarasulu/CARBON/AIRSS/Generating-Clusters/REBO/Only-C1/SD-CG/HFTN-CG
REM
REM
REM
REM
REM
REM ./C.cell (11c1c37f851c82e70ff6c80c92926a4b)
REM
REM compiler GCC version 9.2.1 20190827 (Red Hat 9.2.1-1)
REM options -cpp -mtune=generic -march=x86-64 -g -O0 -fpre-include=/usr/include/finclude/math-vector-fortran.h
REM seed 1377272628 -1382810515 1847158274 1279802264 -1445298957 -626854736 2080935811 1073918318 1973488670 -1408540231 -1413615318 386180485 632290174 770824212 1925439319 -382100891 -705054390 1866660154 -41587042 -1713092777 -1321502836 563145187 -757465442 1765799700 1144688211 -2032546992 -1044046208 -1970787783 405948396 -695370238 676529040 -998347376 334912414
REM
CELL 1.54180   50.00000   50.00000   50.00000   90.00000   90.00000   90.00000
LATT -1
SFAC C  
C      1  0.5153380000000  0.5020780000000  0.5672060000000 1.0
C      1  0.4426870000000  0.4924110000000  0.5285690000000 1.0
C      1  0.5260220000000  0.4752220000000  0.5619700000000 1.0
C      1  0.4854010000000  0.5062250000000  0.4704940000000 1.0
C      1  0.4826180000000  0.5335370000000  0.4564050000000 1.0
C      1  0.5322840000000  0.5222990000000  0.4895400000000 1.0
C      1  0.4347380000000  0.5485910000000  0.4854730000000 1.0
C      1  0.5438190000000  0.4664270000000  0.5404520000000 1.0
C      1  0.4854250000000  0.4384970000000  0.5255130000000 1.0
C      1  0.5151590000000  0.4833970000000  0.4337360000000 1.0
C      1  0.5107140000000  0.5129600000000  0.5289210000000 1.0
C      1  0.5423760000000  0.4596630000000  0.5013030000000 1.0
C      1  0.4914490000000  0.4666410000000  0.5072290000000 1.0
C      1  0.5313710000000  0.5247380000000  0.5599280000000 1.0
C      1  0.4491850000000  0.4658560000000  0.5441290000000 1.0
C      1  0.5100110000000  0.5760320000000  0.4734060000000 1.0
C      1  0.5347530000000  0.5027900000000  0.4482040000000 1.0
C      1  0.4899020000000  0.4797000000000  0.4528300000000 1.0
C      1  0.4766480000000  0.5591150000000  0.4605630000000 1.0
C      1  0.5618200000000  0.5076230000000  0.5120580000000 1.0
C      1  0.4493980000000  0.4449780000000  0.4973290000000 1.0
C      1  0.5157530000000  0.4700760000000  0.4881460000000 1.0
C      1  0.5476170000000  0.5449560000000  0.4699480000000 1.0
C      1  0.5328570000000  0.5663360000000  0.4622680000000 1.0
C      1  0.4510600000000  0.5190110000000  0.5307910000000 1.0
C      1  0.4782370000000  0.5852420000000  0.4826530000000 1.0
C      1  0.5634960000000  0.4945710000000  0.4590670000000 1.0
C      1  0.4495980000000  0.5692250000000  0.4733560000000 1.0
C      1  0.4867880000000  0.5067760000000  0.5613700000000 1.0
C      1  0.5318890000000  0.4345010000000  0.4722870000000 1.0
C      1  0.5641660000000  0.5172030000000  0.4809460000000 1.0
C      1  0.3821590000000  0.5382840000000  0.4812700000000 1.0
C      1  0.4077980000000  0.5433100000000  0.4833200000000 1.0
C      1  0.4701110000000  0.4328520000000  0.4806710000000 1.0
C      1  0.4737080000000  0.4816090000000  0.5511750000000 1.0
C      1  0.4736500000000  0.5532870000000  0.5070890000000 1.0
C      1  0.5584470000000  0.4485100000000  0.4754930000000 1.0
C      1  0.5209570000000  0.4249880000000  0.4967330000000 1.0
C      1  0.5184960000000  0.4723250000000  0.4101760000000 1.0
C      1  0.4786310000000  0.4479920000000  0.4582030000000 1.0
C      1  0.5159720000000  0.4993680000000  0.4759210000000 1.0
C      1  0.4582330000000  0.4751240000000  0.5048700000000 1.0
C      1  0.4717960000000  0.5287780000000  0.5488250000000 1.0
C      1  0.5334680000000  0.4374400000000  0.5254750000000 1.0
C      1  0.5256850000000  0.5450750000000  0.5111430000000 1.0
C      1  0.4817970000000  0.5844980000000  0.5167510000000 1.0
C      1  0.4693670000000  0.5051280000000  0.4963580000000 1.0
C      1  0.5109230000000  0.4533300000000  0.4593610000000 1.0
C      1  0.5053830000000  0.5643060000000  0.5023650000000 1.0
C      1  0.5350010000000  0.5282150000000  0.4359390000000 1.0
C      1  0.4545390000000  0.4428540000000  0.5281590000000 1.0
C      1  0.5433050000000  0.5236110000000  0.5284360000000 1.0
C      1  0.5122100000000  0.5448290000000  0.5413260000000 1.0
C      1  0.4844210000000  0.5582660000000  0.5389530000000 1.0
C      1  0.4537570000000  0.5322560000000  0.5026730000000 1.0
C      1  0.5591400000000  0.4806760000000  0.5185810000000 1.0
C      1  0.4924020000000  0.4251890000000  0.4981260000000 1.0
C      1  0.4876580000000  0.4948980000000  0.5232550000000 1.0
C      1  0.5092410000000  0.4523360000000  0.5670880000000 1.0
C      1  0.5079370000000  0.4353060000000  0.5454470000000 1.0
C      1  0.5712280000000  0.4686830000000  0.4607320000000 1.0
END
