TITL C-2778429-3646-1313 -0.0256245332847978 125000 -255.26929168522 0 0 43 (C1) n - 1
REM
REM in /home/nfs/bkarasulu/CARBON/AIRSS/Generating-Clusters/REBO/Only-C1/SD-CG/HFTN-CG
REM
REM
REM
REM
REM
REM ./C.cell (11c1c37f851c82e70ff6c80c92926a4b)
REM
REM compiler GCC version 9.2.1 20190827 (Red Hat 9.2.1-1)
REM options -cpp -mtune=generic -march=x86-64 -g -O0 -fpre-include=/usr/include/finclude/math-vector-fortran.h
REM seed 1514914125 -374329271 1409001095 -1211343853 -1737090889 -2119691031 2063503947 -2077268283 367052476 -1234226372 2096823853 -600555000 15223311 1087859395 1491041172 1836103299 -610743381 1844831055 232954259 -791073953 1699735766 1468448433 -1569113532 -1590882646 910247275 -1952022728 362992015 -928503192 906960291 667638779 -2036599543 1773409835 -569898004
REM
CELL 1.54180   50.00000   50.00000   50.00000   90.00000   90.00000   90.00000
LATT -1
SFAC C  
C      1  0.5716720000000  0.4948530000000  0.5107660000000 1.0
C      1  0.4592830000000  0.4868620000000  0.4610960000000 1.0
C      1  0.4983200000000  0.5204750000000  0.4697600000000 1.0
C      1  0.6154240000000  0.4446070000000  0.4786280000000 1.0
C      1  0.4407000000000  0.5455190000000  0.4928500000000 1.0
C      1  0.5149710000000  0.4971600000000  0.4668800000000 1.0
C      1  0.4694760000000  0.5598360000000  0.4989270000000 1.0
C      1  0.5188200000000  0.5004500000000  0.5222580000000 1.0
C      1  0.4538420000000  0.5442250000000  0.5227610000000 1.0
C      1  0.4978020000000  0.5609710000000  0.4986000000000 1.0
C      1  0.4846200000000  0.4663400000000  0.4507140000000 1.0
C      1  0.4308830000000  0.4950420000000  0.4722770000000 1.0
C      1  0.5937330000000  0.4569320000000  0.4866540000000 1.0
C      1  0.4712910000000  0.4736320000000  0.5478030000000 1.0
C      1  0.5110130000000  0.5375580000000  0.4888450000000 1.0
C      1  0.5102840000000  0.5753700000000  0.5197870000000 1.0
C      1  0.4458570000000  0.4621410000000  0.5052430000000 1.0
C      1  0.4255350000000  0.5064710000000  0.5194370000000 1.0
C      1  0.5076830000000  0.4821580000000  0.4427910000000 1.0
C      1  0.5110670000000  0.5640910000000  0.5448820000000 1.0
C      1  0.4809910000000  0.5164780000000  0.4252220000000 1.0
C      1  0.5319440000000  0.5226000000000  0.5031580000000 1.0
C      1  0.5364080000000  0.4862520000000  0.5429270000000 1.0
C      1  0.5210770000000  0.4840530000000  0.4937560000000 1.0
C      1  0.5596740000000  0.5187370000000  0.4982210000000 1.0
C      1  0.4898280000000  0.4476640000000  0.4754270000000 1.0
C      1  0.4965400000000  0.5138320000000  0.5387130000000 1.0
C      1  0.4253490000000  0.5207610000000  0.4898920000000 1.0
C      1  0.4633420000000  0.4610920000000  0.4833390000000 1.0
C      1  0.4261840000000  0.4823750000000  0.5003500000000 1.0
C      1  0.5638260000000  0.4905670000000  0.5380620000000 1.0
C      1  0.4544100000000  0.4575530000000  0.5317610000000 1.0
C      1  0.4708340000000  0.5019710000000  0.5423620000000 1.0
C      1  0.5019740000000  0.4986850000000  0.4195920000000 1.0
C      1  0.4481460000000  0.5179950000000  0.5345410000000 1.0
C      1  0.5030450000000  0.5385980000000  0.5501900000000 1.0
C      1  0.5740910000000  0.5344190000000  0.4813080000000 1.0
C      1  0.5446710000000  0.4610710000000  0.4920710000000 1.0
C      1  0.5141100000000  0.4516770000000  0.4891350000000 1.0
C      1  0.5215510000000  0.4694980000000  0.5598940000000 1.0
C      1  0.4742420000000  0.5153760000000  0.4534410000000 1.0
C      1  0.4947570000000  0.4640480000000  0.5605130000000 1.0
C      1  0.5707290000000  0.4700030000000  0.4951650000000 1.0
END
