TITL C-2778429-3646-933 -0.00384234506371071 125000 -154.487407778886 0 0 28 (C1) n - 1
REM
REM in /home/nfs/bkarasulu/CARBON/AIRSS/Generating-Clusters/REBO/Only-C1/SD-CG/HFTN-CG
REM
REM
REM
REM
REM
REM ./C.cell (11c1c37f851c82e70ff6c80c92926a4b)
REM
REM compiler GCC version 9.2.1 20190827 (Red Hat 9.2.1-1)
REM options -cpp -mtune=generic -march=x86-64 -g -O0 -fpre-include=/usr/include/finclude/math-vector-fortran.h
REM seed 391390169 -399517003 362613196 -1529416413 1956561527 871214651 -1275616699 1090017793 -1426884517 332823167 -293543067 1783008965 1107323366 -1339769672 1483790196 1221284064 -1994783414 -1814857623 -775220054 -329404791 -1478956352 165731311 196515091 -1886114948 -1905634479 -1335002308 -211832832 396714845 -295925702 696769667 1723795719 394716798 1008412385
REM
CELL 1.54180   50.00000   50.00000   50.00000   90.00000   90.00000   90.00000
LATT -1
SFAC C  
C      1  0.5066350000000  0.4576970000000  0.5430150000000 1.0
C      1  0.5313190000000  0.5112260000000  0.4834340000000 1.0
C      1  0.5420780000000  0.4656950000000  0.5118480000000 1.0
C      1  0.4915590000000  0.4703760000000  0.4531400000000 1.0
C      1  0.4736740000000  0.5040350000000  0.5293140000000 1.0
C      1  0.4743600000000  0.4541470000000  0.4362110000000 1.0
C      1  0.4716910000000  0.5841160000000  0.5481450000000 1.0
C      1  0.4723330000000  0.5581990000000  0.5420510000000 1.0
C      1  0.5165470000000  0.4786190000000  0.4137020000000 1.0
C      1  0.4493980000000  0.4488280000000  0.4472430000000 1.0
C      1  0.5230910000000  0.4887100000000  0.4954570000000 1.0
C      1  0.4466860000000  0.4610460000000  0.4722760000000 1.0
C      1  0.5629800000000  0.4879830000000  0.4978510000000 1.0
C      1  0.5480810000000  0.4961180000000  0.5256950000000 1.0
C      1  0.5159000000000  0.4786880000000  0.4411580000000 1.0
C      1  0.4710490000000  0.6100320000000  0.5542390000000 1.0
C      1  0.5398650000000  0.4852810000000  0.4542150000000 1.0
C      1  0.4704180000000  0.6355360000000  0.5602360000000 1.0
C      1  0.4473070000000  0.4765480000000  0.4988030000000 1.0
C      1  0.5393550000000  0.5332310000000  0.4716880000000 1.0
C      1  0.4479810000000  0.4903170000000  0.5217960000000 1.0
C      1  0.4998960000000  0.4874640000000  0.5366410000000 1.0
C      1  0.4764540000000  0.4757540000000  0.4814800000000 1.0
C      1  0.5616530000000  0.4889120000000  0.4700440000000 1.0
C      1  0.5261020000000  0.4474020000000  0.5302350000000 1.0
C      1  0.4940310000000  0.4872870000000  0.5036290000000 1.0
C      1  0.5265880000000  0.5044010000000  0.5404800000000 1.0
C      1  0.4729730000000  0.5323550000000  0.5359740000000 1.0
END
