TITL C-2778425-5191-1404 0.0117427817740624 125000 -1051.25752924067 0 0 183 (C1) n - 1
REM
REM in /home/nfs/bkarasulu/CARBON/AIRSS/Generating-Clusters/REBO/Only-C1/SD-CG/HFTN-CG
REM
REM
REM
REM
REM
REM ./C.cell (11c1c37f851c82e70ff6c80c92926a4b)
REM
REM compiler GCC version 9.2.1 20190827 (Red Hat 9.2.1-1)
REM options -cpp -mtune=generic -march=x86-64 -g -O0 -fpre-include=/usr/include/finclude/math-vector-fortran.h
REM seed 1925921579 1730562278 1536393904 -3229677 451932655 -414767146 1565830904 -1046090688 -1263319072 129254043 1749063770 -1471980972 -2110924245 -518066291 -185081169 669736502 197119 -2029563427 1174184550 -1432593110 -1896673707 184349905 -169770843 765153007 -2013126389 1635113292 1280325303 -841628497 -206925490 -1717951436 1028073953 67630562 1468384028
REM
CELL 1.54180   50.00000   50.00000   50.00000   90.00000   90.00000   90.00000
LATT -1
SFAC C  
C      1  0.4269870000000  0.5190370000000  0.4881420000000 1.0
C      1  0.5303500000000  0.5091910000000  0.4898940000000 1.0
C      1  0.5235660000000  0.5519130000000  0.4142480000000 1.0
C      1  0.5819360000000  0.5661260000000  0.5067760000000 1.0
C      1  0.5437700000000  0.4017770000000  0.4957650000000 1.0
C      1  0.5046780000000  0.4907210000000  0.4189610000000 1.0
C      1  0.5826060000000  0.5366070000000  0.4902930000000 1.0
C      1  0.5308140000000  0.5767400000000  0.5238080000000 1.0
C      1  0.4390670000000  0.4246560000000  0.4914250000000 1.0
C      1  0.4668550000000  0.5216580000000  0.4517060000000 1.0
C      1  0.4238310000000  0.4477560000000  0.5686830000000 1.0
C      1  0.4913860000000  0.5990160000000  0.5526850000000 1.0
C      1  0.4532990000000  0.4747450000000  0.4430830000000 1.0
C      1  0.4114220000000  0.4350610000000  0.5394350000000 1.0
C      1  0.5440250000000  0.4307940000000  0.4791910000000 1.0
C      1  0.5077720000000  0.3945550000000  0.4548070000000 1.0
C      1  0.5704020000000  0.4232290000000  0.4999920000000 1.0
C      1  0.6049280000000  0.4713540000000  0.5353370000000 1.0
C      1  0.5313000000000  0.5506420000000  0.5899350000000 1.0
C      1  0.5020170000000  0.4814370000000  0.6149050000000 1.0
C      1  0.4132380000000  0.4330310000000  0.5055430000000 1.0
C      1  0.6062040000000  0.5215040000000  0.5327510000000 1.0
C      1  0.5700700000000  0.4897620000000  0.5417330000000 1.0
C      1  0.4939460000000  0.5391550000000  0.4265540000000 1.0
C      1  0.4747220000000  0.4425600000000  0.4926980000000 1.0
C      1  0.4640370000000  0.5394670000000  0.4091750000000 1.0
C      1  0.4960050000000  0.4965820000000  0.5257520000000 1.0
C      1  0.5662170000000  0.5878340000000  0.4916240000000 1.0
C      1  0.5708520000000  0.4677120000000  0.5157860000000 1.0
C      1  0.4129350000000  0.5286720000000  0.5149780000000 1.0
C      1  0.4917360000000  0.5781190000000  0.5754620000000 1.0
C      1  0.5222520000000  0.5780720000000  0.5840230000000 1.0
C      1  0.3896630000000  0.4560350000000  0.5291590000000 1.0
C      1  0.4963970000000  0.5039150000000  0.5824020000000 1.0
C      1  0.4060240000000  0.4797490000000  0.4793120000000 1.0
C      1  0.5422110000000  0.5202700000000  0.6005870000000 1.0
C      1  0.4469070000000  0.5531430000000  0.5638450000000 1.0
C      1  0.4689740000000  0.4238180000000  0.5807710000000 1.0
C      1  0.4462560000000  0.5092600000000  0.4048660000000 1.0
C      1  0.4101710000000  0.4827380000000  0.4473830000000 1.0
C      1  0.5831400000000  0.5460260000000  0.4592730000000 1.0
C      1  0.4558830000000  0.4543040000000  0.5780900000000 1.0
C      1  0.5158070000000  0.5971340000000  0.5040680000000 1.0
C      1  0.4361200000000  0.5041970000000  0.5908010000000 1.0
C      1  0.4392920000000  0.5433380000000  0.4327200000000 1.0
C      1  0.5915600000000  0.5245180000000  0.3920250000000 1.0
C      1  0.4456760000000  0.4815400000000  0.4758200000000 1.0
C      1  0.5818230000000  0.5427840000000  0.5390120000000 1.0
C      1  0.4376780000000  0.5110260000000  0.4375040000000 1.0
C      1  0.4734110000000  0.4955210000000  0.4306110000000 1.0
C      1  0.5247840000000  0.4310030000000  0.5670560000000 1.0
C      1  0.4638750000000  0.4172300000000  0.5116550000000 1.0
C      1  0.5726970000000  0.4806520000000  0.4786250000000 1.0
C      1  0.4756020000000  0.5002690000000  0.5575750000000 1.0
C      1  0.4260240000000  0.4565810000000  0.4328970000000 1.0
C      1  0.5304840000000  0.5788040000000  0.4202880000000 1.0
C      1  0.5026900000000  0.4472670000000  0.5110360000000 1.0
C      1  0.4604160000000  0.5552580000000  0.4539360000000 1.0
C      1  0.4723270000000  0.4919900000000  0.3962440000000 1.0
C      1  0.5455610000000  0.4558760000000  0.5000780000000 1.0
C      1  0.5110980000000  0.4092280000000  0.5023660000000 1.0
C      1  0.4898440000000  0.5779640000000  0.4922660000000 1.0
C      1  0.3980400000000  0.4509100000000  0.4904350000000 1.0
C      1  0.5269610000000  0.5113760000000  0.5718450000000 1.0
C      1  0.4947930000000  0.4023050000000  0.5319930000000 1.0
C      1  0.3912630000000  0.5055030000000  0.5243490000000 1.0
C      1  0.4456570000000  0.4690410000000  0.5302610000000 1.0
C      1  0.4770880000000  0.5221660000000  0.3820160000000 1.0
C      1  0.4861670000000  0.4404730000000  0.5995030000000 1.0
C      1  0.4653820000000  0.5038480000000  0.5974080000000 1.0
C      1  0.5534910000000  0.4778470000000  0.4574220000000 1.0
C      1  0.4826550000000  0.4304620000000  0.4254260000000 1.0
C      1  0.5161410000000  0.4798710000000  0.4439390000000 1.0
C      1  0.5408990000000  0.4339550000000  0.4171660000000 1.0
C      1  0.5073540000000  0.4999460000000  0.4674460000000 1.0
C      1  0.5294870000000  0.4829520000000  0.5030980000000 1.0
C      1  0.4444900000000  0.4155240000000  0.4590120000000 1.0
C      1  0.4088340000000  0.5104890000000  0.4649040000000 1.0
C      1  0.5769050000000  0.5276310000000  0.5721020000000 1.0
C      1  0.5774490000000  0.4224700000000  0.5318730000000 1.0
C      1  0.5781080000000  0.5268480000000  0.4160470000000 1.0
C      1  0.4753200000000  0.6024390000000  0.4621830000000 1.0
C      1  0.5532090000000  0.5853260000000  0.5443780000000 1.0
C      1  0.5982330000000  0.5008950000000  0.4557960000000 1.0
C      1  0.4776420000000  0.4879510000000  0.4782590000000 1.0
C      1  0.4730880000000  0.4662120000000  0.5516040000000 1.0
C      1  0.4724760000000  0.4716900000000  0.6022840000000 1.0
C      1  0.5368320000000  0.5334480000000  0.4471560000000 1.0
C      1  0.4817320000000  0.4118550000000  0.3989630000000 1.0
C      1  0.4215460000000  0.5588540000000  0.4649020000000 1.0
C      1  0.5084130000000  0.5583620000000  0.5348650000000 1.0
C      1  0.6046670000000  0.4946880000000  0.5181180000000 1.0
C      1  0.5831660000000  0.4505580000000  0.4886380000000 1.0
C      1  0.4940310000000  0.4216710000000  0.4802840000000 1.0
C      1  0.4614220000000  0.4416430000000  0.4438740000000 1.0
C      1  0.4605890000000  0.5837250000000  0.5323530000000 1.0
C      1  0.5785250000000  0.5742880000000  0.5364170000000 1.0
C      1  0.5316160000000  0.4558530000000  0.4628070000000 1.0
C      1  0.4248000000000  0.4871750000000  0.4179790000000 1.0
C      1  0.5556480000000  0.5595950000000  0.4525030000000 1.0
C      1  0.4780500000000  0.3876070000000  0.5063060000000 1.0
C      1  0.4440690000000  0.4375220000000  0.5437890000000 1.0
C      1  0.5840300000000  0.4488000000000  0.5482960000000 1.0
C      1  0.5059490000000  0.5293060000000  0.4529010000000 1.0
C      1  0.5453470000000  0.4797360000000  0.4066630000000 1.0
C      1  0.4695670000000  0.4157020000000  0.5507530000000 1.0
C      1  0.4709550000000  0.4986910000000  0.5067980000000 1.0
C      1  0.4635320000000  0.5629490000000  0.5870760000000 1.0
C      1  0.4536810000000  0.5816490000000  0.4713230000000 1.0
C      1  0.4748670000000  0.4040050000000  0.4577830000000 1.0
C      1  0.5185310000000  0.5602800000000  0.4895210000000 1.0
C      1  0.4136660000000  0.5519490000000  0.5631260000000 1.0
C      1  0.5598350000000  0.4349010000000  0.4431790000000 1.0
C      1  0.5908670000000  0.5252100000000  0.4417680000000 1.0
C      1  0.5263340000000  0.4561450000000  0.4014490000000 1.0
C      1  0.5522190000000  0.5282740000000  0.4770320000000 1.0
C      1  0.5138430000000  0.4414200000000  0.5950540000000 1.0
C      1  0.5056410000000  0.4584540000000  0.5592750000000 1.0
C      1  0.5811040000000  0.4490480000000  0.4557330000000 1.0
C      1  0.5490840000000  0.4563960000000  0.5393950000000 1.0
C      1  0.5009330000000  0.6064000000000  0.5312770000000 1.0
C      1  0.4774910000000  0.5584830000000  0.5249080000000 1.0
C      1  0.5237280000000  0.4679350000000  0.6043950000000 1.0
C      1  0.5008200000000  0.4334530000000  0.4506200000000 1.0
C      1  0.4968860000000  0.4713040000000  0.3921590000000 1.0
C      1  0.4443160000000  0.4939350000000  0.5531620000000 1.0
C      1  0.5509520000000  0.5422060000000  0.5638320000000 1.0
C      1  0.4250710000000  0.5196090000000  0.5648290000000 1.0
C      1  0.5297830000000  0.4326360000000  0.5164980000000 1.0
C      1  0.4302800000000  0.5762230000000  0.5459030000000 1.0
C      1  0.4391340000000  0.5493160000000  0.4897280000000 1.0
C      1  0.4505670000000  0.5159730000000  0.5115000000000 1.0
C      1  0.4098950000000  0.5368880000000  0.4485650000000 1.0
C      1  0.4527750000000  0.4509140000000  0.4747070000000 1.0
C      1  0.4002880000000  0.5284980000000  0.5456010000000 1.0
C      1  0.4881110000000  0.3823110000000  0.4798430000000 1.0
C      1  0.5565860000000  0.4436600000000  0.5683150000000 1.0
C      1  0.5630370000000  0.4780250000000  0.4284070000000 1.0
C      1  0.4793160000000  0.6164760000000  0.4883820000000 1.0
C      1  0.4927190000000  0.4634850000000  0.4600580000000 1.0
C      1  0.4706290000000  0.5729800000000  0.4105040000000 1.0
C      1  0.5223820000000  0.4084200000000  0.5472850000000 1.0
C      1  0.5889060000000  0.5065160000000  0.5531370000000 1.0
C      1  0.4396010000000  0.5396040000000  0.5333880000000 1.0
C      1  0.5484080000000  0.4073830000000  0.5290930000000 1.0
C      1  0.4969930000000  0.4399540000000  0.3973130000000 1.0
C      1  0.5091620000000  0.5287160000000  0.6027020000000 1.0
C      1  0.5387740000000  0.5991080000000  0.4790680000000 1.0
C      1  0.5720430000000  0.5171210000000  0.5996270000000 1.0
C      1  0.5106250000000  0.5842660000000  0.4667810000000 1.0
C      1  0.5373020000000  0.5855140000000  0.4476780000000 1.0
C      1  0.5410800000000  0.5922170000000  0.5693970000000 1.0
C      1  0.4985880000000  0.5270270000000  0.5106320000000 1.0
C      1  0.4242540000000  0.4783440000000  0.5753890000000 1.0
C      1  0.5006960000000  0.5421200000000  0.3934440000000 1.0
C      1  0.4825270000000  0.5287980000000  0.5410420000000 1.0
C      1  0.5490610000000  0.5480900000000  0.5303890000000 1.0
C      1  0.4433020000000  0.5882700000000  0.4966400000000 1.0
C      1  0.3988360000000  0.4793590000000  0.5184810000000 1.0
C      1  0.4738070000000  0.5814290000000  0.4374030000000 1.0
C      1  0.5927650000000  0.5040420000000  0.4893230000000 1.0
C      1  0.5214610000000  0.4766490000000  0.5352660000000 1.0
C      1  0.5907680000000  0.4756290000000  0.4433560000000 1.0
C      1  0.4846510000000  0.5301070000000  0.4796220000000 1.0
C      1  0.5495320000000  0.5609270000000  0.4841550000000 1.0
C      1  0.4238190000000  0.4292510000000  0.4400150000000 1.0
C      1  0.5076470000000  0.5096970000000  0.3908270000000 1.0
C      1  0.4290460000000  0.5666880000000  0.5149050000000 1.0
C      1  0.5345880000000  0.4687090000000  0.5744530000000 1.0
C      1  0.4629590000000  0.6061130000000  0.5109290000000 1.0
C      1  0.4695720000000  0.5529210000000  0.4941130000000 1.0
C      1  0.5292930000000  0.4188010000000  0.4443290000000 1.0
C      1  0.5193460000000  0.5367520000000  0.5544840000000 1.0
C      1  0.4926740000000  0.5446500000000  0.5689790000000 1.0
C      1  0.5429020000000  0.4926150000000  0.5550590000000 1.0
C      1  0.4286220000000  0.4768510000000  0.5049200000000 1.0
C      1  0.5091700000000  0.4650990000000  0.4869400000000 1.0
C      1  0.4812940000000  0.4397400000000  0.5314790000000 1.0
C      1  0.5474850000000  0.5287380000000  0.4164140000000 1.0
C      1  0.5366800000000  0.5053860000000  0.4001710000000 1.0
C      1  0.4774570000000  0.5349060000000  0.5981620000000 1.0
C      1  0.5886300000000  0.5072200000000  0.6172900000000 1.0
C      1  0.5290590000000  0.5367330000000  0.5084820000000 1.0
END
