TITL C-2778434-4341-54 0.000678209884796929 125000 -894.891023118672 0 0 153 (C1) n - 1
REM
REM in /home/nfs/bkarasulu/CARBON/AIRSS/Generating-Clusters/REBO/Only-C1/SD-CG/HFTN-CG
REM
REM
REM
REM
REM
REM ./C.cell (11c1c37f851c82e70ff6c80c92926a4b)
REM
REM compiler GCC version 9.2.1 20190827 (Red Hat 9.2.1-1)
REM options -cpp -mtune=generic -march=x86-64 -g -O0 -fpre-include=/usr/include/finclude/math-vector-fortran.h
REM seed 1370907839 612995406 780198927 -1119844972 -606719370 -1210956328 1426071386 327408342 -625521190 -907913526 1492030902 1465387318 -911627218 1106305990 1790114145 -1948192722 -448509870 1383329256 -611318252 -90993480 -53673186 414595679 -1932213678 -1223468666 -1437650477 -1088046039 1913878990 926801727 -1682924009 79353981 -651446773 -1393827690 59817650
REM
CELL 1.54180   50.00000   50.00000   50.00000   90.00000   90.00000   90.00000
LATT -1
SFAC C  
C      1  0.5110040000000  0.5099930000000  0.5443050000000 1.0
C      1  0.4445180000000  0.4494000000000  0.5611210000000 1.0
C      1  0.4630660000000  0.5002730000000  0.5041290000000 1.0
C      1  0.6039070000000  0.4939020000000  0.5005440000000 1.0
C      1  0.4682430000000  0.5190320000000  0.5491130000000 1.0
C      1  0.4496810000000  0.4728710000000  0.5194880000000 1.0
C      1  0.4279070000000  0.5487600000000  0.5058590000000 1.0
C      1  0.4393820000000  0.5381020000000  0.5690710000000 1.0
C      1  0.4698950000000  0.4103340000000  0.4380960000000 1.0
C      1  0.5501050000000  0.5763480000000  0.4968890000000 1.0
C      1  0.5941990000000  0.4321620000000  0.5262650000000 1.0
C      1  0.5848220000000  0.5087070000000  0.5619920000000 1.0
C      1  0.5937140000000  0.4662090000000  0.4909890000000 1.0
C      1  0.5622420000000  0.4554100000000  0.5288960000000 1.0
C      1  0.4766810000000  0.4005290000000  0.4851000000000 1.0
C      1  0.5487490000000  0.5174360000000  0.5336000000000 1.0
C      1  0.4740000000000  0.4550050000000  0.5765010000000 1.0
C      1  0.4307580000000  0.4728660000000  0.4911620000000 1.0
C      1  0.4847620000000  0.4609390000000  0.5056710000000 1.0
C      1  0.5245880000000  0.5067040000000  0.4878000000000 1.0
C      1  0.4926340000000  0.5007720000000  0.3892780000000 1.0
C      1  0.5233190000000  0.4544860000000  0.5378110000000 1.0
C      1  0.5582360000000  0.5146220000000  0.5758190000000 1.0
C      1  0.4779440000000  0.5454910000000  0.4633710000000 1.0
C      1  0.4022610000000  0.4651540000000  0.5850480000000 1.0
C      1  0.5636890000000  0.4216890000000  0.5347140000000 1.0
C      1  0.5432690000000  0.5800870000000  0.5321000000000 1.0
C      1  0.4191040000000  0.4944820000000  0.5469740000000 1.0
C      1  0.5583330000000  0.4532260000000  0.4384680000000 1.0
C      1  0.4393080000000  0.5120590000000  0.4075980000000 1.0
C      1  0.5140360000000  0.5443510000000  0.4467050000000 1.0
C      1  0.4423670000000  0.5105350000000  0.5294110000000 1.0
C      1  0.5585390000000  0.4955840000000  0.6017860000000 1.0
C      1  0.4709940000000  0.4859080000000  0.5415450000000 1.0
C      1  0.5071320000000  0.4734870000000  0.3957240000000 1.0
C      1  0.5007010000000  0.4948430000000  0.4678550000000 1.0
C      1  0.4396850000000  0.5443200000000  0.4154210000000 1.0
C      1  0.4129840000000  0.5436860000000  0.5498530000000 1.0
C      1  0.5074290000000  0.5302820000000  0.5687160000000 1.0
C      1  0.4334640000000  0.5161270000000  0.4640380000000 1.0
C      1  0.5314060000000  0.4631810000000  0.5709780000000 1.0
C      1  0.5164070000000  0.6095280000000  0.4931190000000 1.0
C      1  0.4876900000000  0.5537470000000  0.5828200000000 1.0
C      1  0.5146330000000  0.4945930000000  0.5966110000000 1.0
C      1  0.4087190000000  0.5080340000000  0.4839160000000 1.0
C      1  0.4589660000000  0.5552740000000  0.4367210000000 1.0
C      1  0.4452770000000  0.5660590000000  0.5505420000000 1.0
C      1  0.4203160000000  0.5692280000000  0.5303720000000 1.0
C      1  0.5043820000000  0.4481430000000  0.5855570000000 1.0
C      1  0.4283350000000  0.4512380000000  0.4467200000000 1.0
C      1  0.4202290000000  0.4693730000000  0.5661610000000 1.0
C      1  0.5363880000000  0.4456100000000  0.4150080000000 1.0
C      1  0.4647870000000  0.5007080000000  0.3900330000000 1.0
C      1  0.4744960000000  0.4321190000000  0.4222700000000 1.0
C      1  0.5475630000000  0.5749770000000  0.4641560000000 1.0
C      1  0.5961460000000  0.5275520000000  0.5439200000000 1.0
C      1  0.4567930000000  0.5379010000000  0.5158280000000 1.0
C      1  0.5229070000000  0.4704940000000  0.4318400000000 1.0
C      1  0.4149470000000  0.5313730000000  0.4321060000000 1.0
C      1  0.5251860000000  0.5544300000000  0.5048350000000 1.0
C      1  0.4594350000000  0.4114480000000  0.4645540000000 1.0
C      1  0.5568880000000  0.5470330000000  0.4650390000000 1.0
C      1  0.5671500000000  0.5054350000000  0.4208930000000 1.0
C      1  0.4997070000000  0.5737390000000  0.4992420000000 1.0
C      1  0.5790910000000  0.4881440000000  0.4701110000000 1.0
C      1  0.4820770000000  0.5249860000000  0.4981640000000 1.0
C      1  0.4663950000000  0.4309480000000  0.5461080000000 1.0
C      1  0.4524330000000  0.4812850000000  0.4137940000000 1.0
C      1  0.4149210000000  0.5418850000000  0.4597070000000 1.0
C      1  0.4099350000000  0.4523060000000  0.4748920000000 1.0
C      1  0.5392470000000  0.5669530000000  0.4087970000000 1.0
C      1  0.4702000000000  0.5769400000000  0.5400580000000 1.0
C      1  0.5488490000000  0.4146020000000  0.5075110000000 1.0
C      1  0.5504370000000  0.5370960000000  0.4905160000000 1.0
C      1  0.5478220000000  0.4704100000000  0.6004270000000 1.0
C      1  0.4751450000000  0.4783440000000  0.4793290000000 1.0
C      1  0.5798560000000  0.5645280000000  0.5004070000000 1.0
C      1  0.4958740000000  0.5652710000000  0.5538920000000 1.0
C      1  0.4752200000000  0.5804630000000  0.5120940000000 1.0
C      1  0.5280840000000  0.5660240000000  0.5540690000000 1.0
C      1  0.5555720000000  0.4406260000000  0.4647610000000 1.0
C      1  0.5149990000000  0.4667210000000  0.4623110000000 1.0
C      1  0.5929460000000  0.5178490000000  0.5159330000000 1.0
C      1  0.3975890000000  0.4841440000000  0.4722560000000 1.0
C      1  0.5408990000000  0.4632450000000  0.4787460000000 1.0
C      1  0.5903350000000  0.4389530000000  0.4978070000000 1.0
C      1  0.5175090000000  0.4654470000000  0.6082930000000 1.0
C      1  0.4641100000000  0.5187450000000  0.4518630000000 1.0
C      1  0.4239430000000  0.4438940000000  0.5358500000000 1.0
C      1  0.5710360000000  0.4790510000000  0.4400990000000 1.0
C      1  0.5511420000000  0.4861670000000  0.5367240000000 1.0
C      1  0.5933950000000  0.5377610000000  0.4527850000000 1.0
C      1  0.5388620000000  0.5347680000000  0.5586280000000 1.0
C      1  0.4757090000000  0.4529580000000  0.4563370000000 1.0
C      1  0.5296740000000  0.4972400000000  0.5684810000000 1.0
C      1  0.4345210000000  0.5617430000000  0.3941840000000 1.0
C      1  0.5200840000000  0.4115490000000  0.5103190000000 1.0
C      1  0.4853900000000  0.5406310000000  0.5345370000000 1.0
C      1  0.4971850000000  0.5154290000000  0.4426700000000 1.0
C      1  0.4551430000000  0.5700500000000  0.4671570000000 1.0
C      1  0.5339680000000  0.5620920000000  0.5873460000000 1.0
C      1  0.4898880000000  0.4677500000000  0.4313000000000 1.0
C      1  0.5744030000000  0.5040700000000  0.3944940000000 1.0
C      1  0.4550280000000  0.4192710000000  0.5212750000000 1.0
C      1  0.4385160000000  0.5043410000000  0.5711310000000 1.0
C      1  0.5045930000000  0.5894390000000  0.4737070000000 1.0
C      1  0.4838110000000  0.5055380000000  0.5955220000000 1.0
C      1  0.4673890000000  0.4888430000000  0.4415270000000 1.0
C      1  0.5731200000000  0.5696410000000  0.5288050000000 1.0
C      1  0.5809960000000  0.4829270000000  0.5504830000000 1.0
C      1  0.5382960000000  0.4616610000000  0.5082340000000 1.0
C      1  0.5129160000000  0.5507100000000  0.6023280000000 1.0
C      1  0.5504560000000  0.4325330000000  0.3916000000000 1.0
C      1  0.5406040000000  0.5047280000000  0.4409120000000 1.0
C      1  0.4633990000000  0.3962290000000  0.5097080000000 1.0
C      1  0.4552570000000  0.4437320000000  0.5025240000000 1.0
C      1  0.5462210000000  0.4944390000000  0.4675120000000 1.0
C      1  0.4269380000000  0.5603360000000  0.4779670000000 1.0
C      1  0.5083980000000  0.5232310000000  0.6114260000000 1.0
C      1  0.5018600000000  0.4151690000000  0.4868110000000 1.0
C      1  0.4979420000000  0.4860000000000  0.5249830000000 1.0
C      1  0.5399730000000  0.5497970000000  0.4289430000000 1.0
C      1  0.4287520000000  0.5887250000000  0.5063670000000 1.0
C      1  0.4922210000000  0.4260310000000  0.5659200000000 1.0
C      1  0.5923660000000  0.5478170000000  0.4834490000000 1.0
C      1  0.5942370000000  0.4580180000000  0.5428190000000 1.0
C      1  0.5074580000000  0.4179160000000  0.5363050000000 1.0
C      1  0.4165600000000  0.4514880000000  0.5135430000000 1.0
C      1  0.4453030000000  0.4872190000000  0.4675120000000 1.0
C      1  0.5889650000000  0.5551460000000  0.5472190000000 1.0
C      1  0.5266690000000  0.4910550000000  0.5133310000000 1.0
C      1  0.5435890000000  0.4341710000000  0.5564180000000 1.0
C      1  0.4040840000000  0.5199380000000  0.5351050000000 1.0
C      1  0.4527750000000  0.4537770000000  0.4297600000000 1.0
C      1  0.5293640000000  0.6041770000000  0.5165510000000 1.0
C      1  0.4659420000000  0.4879640000000  0.5751740000000 1.0
C      1  0.5968210000000  0.5150810000000  0.4762260000000 1.0
C      1  0.5646820000000  0.5242850000000  0.5105130000000 1.0
C      1  0.4404670000000  0.4363830000000  0.4750240000000 1.0
C      1  0.4154250000000  0.5005810000000  0.4289280000000 1.0
C      1  0.5098010000000  0.5302470000000  0.5169860000000 1.0
C      1  0.4088000000000  0.5236940000000  0.5071190000000 1.0
C      1  0.5102800000000  0.4993360000000  0.4183420000000 1.0
C      1  0.5668600000000  0.4252350000000  0.4861890000000 1.0
C      1  0.4690710000000  0.5282940000000  0.5795970000000 1.0
C      1  0.5670320000000  0.5340250000000  0.4360000000000 1.0
C      1  0.5059000000000  0.5331400000000  0.4772930000000 1.0
C      1  0.4929350000000  0.4473770000000  0.5325850000000 1.0
C      1  0.4533920000000  0.5850510000000  0.4947860000000 1.0
C      1  0.5207000000000  0.5756000000000  0.4547510000000 1.0
C      1  0.4100650000000  0.4785830000000  0.4449320000000 1.0
C      1  0.5009140000000  0.4382860000000  0.4710420000000 1.0
C      1  0.5025650000000  0.4443460000000  0.4099900000000 1.0
END
