TITL C-2778434-4341-72 0.000478311249762591 125000 -347.076155130273 0 0 62 (C1) n - 1
REM
REM in /home/nfs/bkarasulu/CARBON/AIRSS/Generating-Clusters/REBO/Only-C1/SD-CG/HFTN-CG
REM
REM
REM
REM
REM
REM ./C.cell (11c1c37f851c82e70ff6c80c92926a4b)
REM
REM compiler GCC version 9.2.1 20190827 (Red Hat 9.2.1-1)
REM options -cpp -mtune=generic -march=x86-64 -g -O0 -fpre-include=/usr/include/finclude/math-vector-fortran.h
REM seed 1455150089 1457789982 -1025502133 -613172860 1886873376 501247920 -939847405 1882876000 1760968617 -800838227 -1344591998 -1466465993 -485329912 -1824802564 -103718971 -725695745 -295740201 -644648479 1086746521 -422339510 1375825833 -1963569165 61047261 -1614207699 -740845791 -936037369 -1661570971 379647240 163663707 1678887619 883022025 1497408073 -1991182354
REM
CELL 1.54180   50.00000   50.00000   50.00000   90.00000   90.00000   90.00000
LATT -1
SFAC C  
C      1  0.5450680000000  0.4827570000000  0.4820150000000 1.0
C      1  0.4966810000000  0.4612850000000  0.5657750000000 1.0
C      1  0.5535580000000  0.4568190000000  0.4971290000000 1.0
C      1  0.5062080000000  0.5057380000000  0.4197330000000 1.0
C      1  0.4605010000000  0.5339240000000  0.4957840000000 1.0
C      1  0.4321640000000  0.4574590000000  0.5211770000000 1.0
C      1  0.4082480000000  0.4797360000000  0.4740240000000 1.0
C      1  0.4960450000000  0.4868650000000  0.4710310000000 1.0
C      1  0.5230310000000  0.4997860000000  0.5017920000000 1.0
C      1  0.5255340000000  0.4449000000000  0.4971630000000 1.0
C      1  0.4294130000000  0.4564570000000  0.4687070000000 1.0
C      1  0.4598850000000  0.4615010000000  0.5204410000000 1.0
C      1  0.5076480000000  0.4437760000000  0.5467970000000 1.0
C      1  0.4588970000000  0.4586700000000  0.4641500000000 1.0
C      1  0.4720590000000  0.4813120000000  0.5597530000000 1.0
C      1  0.5306500000000  0.5327880000000  0.5549730000000 1.0
C      1  0.5299220000000  0.4753740000000  0.4532780000000 1.0
C      1  0.4538090000000  0.5237090000000  0.5402170000000 1.0
C      1  0.5656860000000  0.5070760000000  0.4800090000000 1.0
C      1  0.5531110000000  0.5355340000000  0.4842140000000 1.0
C      1  0.5365370000000  0.5235300000000  0.4582440000000 1.0
C      1  0.4697590000000  0.5003840000000  0.5395320000000 1.0
C      1  0.5492820000000  0.4583490000000  0.5263880000000 1.0
C      1  0.5587830000000  0.5715530000000  0.5224150000000 1.0
C      1  0.5499350000000  0.5106950000000  0.5566780000000 1.0
C      1  0.4933160000000  0.5456830000000  0.5606260000000 1.0
C      1  0.5061150000000  0.5620130000000  0.5008430000000 1.0
C      1  0.5139180000000  0.5457450000000  0.4491640000000 1.0
C      1  0.4730590000000  0.4622090000000  0.4915820000000 1.0
C      1  0.4687700000000  0.5285090000000  0.4358650000000 1.0
C      1  0.5007080000000  0.4802430000000  0.4381240000000 1.0
C      1  0.5107750000000  0.4559140000000  0.4727580000000 1.0
C      1  0.4971800000000  0.5198240000000  0.5725750000000 1.0
C      1  0.4960090000000  0.5057270000000  0.5224860000000 1.0
C      1  0.5428480000000  0.5246210000000  0.5119890000000 1.0
C      1  0.4930050000000  0.5452650000000  0.4758800000000 1.0
C      1  0.4409730000000  0.5168510000000  0.4664590000000 1.0
C      1  0.4159760000000  0.4590190000000  0.4981340000000 1.0
C      1  0.5734130000000  0.5520380000000  0.5356070000000 1.0
C      1  0.4634100000000  0.5424210000000  0.4634950000000 1.0
C      1  0.5161430000000  0.4349580000000  0.5221610000000 1.0
C      1  0.4918420000000  0.4663450000000  0.5178190000000 1.0
C      1  0.4901250000000  0.5552280000000  0.5281250000000 1.0
C      1  0.4570040000000  0.5024640000000  0.4328690000000 1.0
C      1  0.5089970000000  0.5167710000000  0.4760700000000 1.0
C      1  0.4686170000000  0.4796500000000  0.4429720000000 1.0
C      1  0.5637370000000  0.5251110000000  0.5340130000000 1.0
C      1  0.5138910000000  0.5329790000000  0.5272120000000 1.0
C      1  0.5460340000000  0.4998690000000  0.4459230000000 1.0
C      1  0.4962390000000  0.5301210000000  0.4284610000000 1.0
C      1  0.4976690000000  0.4326170000000  0.4569870000000 1.0
C      1  0.4726790000000  0.4328890000000  0.4536310000000 1.0
C      1  0.5303510000000  0.5585510000000  0.4762210000000 1.0
C      1  0.4701590000000  0.5062200000000  0.4787130000000 1.0
C      1  0.4159410000000  0.5055880000000  0.4667750000000 1.0
C      1  0.5077630000000  0.5002300000000  0.5520030000000 1.0
C      1  0.5207860000000  0.4745300000000  0.5248470000000 1.0
C      1  0.5349890000000  0.4827550000000  0.5546310000000 1.0
C      1  0.5378880000000  0.5729190000000  0.5059220000000 1.0
C      1  0.4625300000000  0.5430410000000  0.5214310000000 1.0
C      1  0.5436080000000  0.4622720000000  0.5709340000000 1.0
C      1  0.4911230000000  0.4888320000000  0.5852730000000 1.0
END
