TITL C-2778422-5617-1071 -0.00255563941135613 125000 -813.74381173686 0 0 140 (C1) n - 1
REM
REM in /home/nfs/bkarasulu/CARBON/AIRSS/Generating-Clusters/REBO/Only-C1/SD-CG/HFTN-CG
REM
REM
REM
REM
REM
REM ./C.cell (11c1c37f851c82e70ff6c80c92926a4b)
REM
REM compiler GCC version 9.2.1 20190827 (Red Hat 9.2.1-1)
REM options -cpp -mtune=generic -march=x86-64 -g -O0 -fpre-include=/usr/include/finclude/math-vector-fortran.h
REM seed -738964157 716709198 762964318 1847621073 -160254385 339310917 1640063411 1678616518 307550793 -1192658783 -1019257602 1672453670 455913718 -1073477639 -1098802016 -2004493017 1295780684 -1515329486 -219562764 1845689885 -1145113036 -556821551 1574916816 -226918440 810089943 -387401501 -1253281140 -820296637 -551383163 -872904008 974485443 100078443 -1811515088
REM
CELL 1.54180   50.00000   50.00000   50.00000   90.00000   90.00000   90.00000
LATT -1
SFAC C  
C      1  0.5454400000000  0.4910310000000  0.5720410000000 1.0
C      1  0.4867080000000  0.4216770000000  0.5440790000000 1.0
C      1  0.5279210000000  0.4652200000000  0.5636470000000 1.0
C      1  0.4089950000000  0.5375660000000  0.4572220000000 1.0
C      1  0.5723680000000  0.5617460000000  0.5443570000000 1.0
C      1  0.5256780000000  0.5965120000000  0.5422120000000 1.0
C      1  0.4222210000000  0.5487180000000  0.5259160000000 1.0
C      1  0.5157810000000  0.5045600000000  0.5252510000000 1.0
C      1  0.4507500000000  0.5676990000000  0.4428920000000 1.0
C      1  0.5029690000000  0.5453550000000  0.5359350000000 1.0
C      1  0.5152310000000  0.5428190000000  0.4668480000000 1.0
C      1  0.4146160000000  0.4149940000000  0.5558560000000 1.0
C      1  0.4589510000000  0.5214540000000  0.4223530000000 1.0
C      1  0.5961250000000  0.5019030000000  0.4561690000000 1.0
C      1  0.4884910000000  0.5079030000000  0.4314680000000 1.0
C      1  0.4758540000000  0.4950200000000  0.4669560000000 1.0
C      1  0.4187040000000  0.5061920000000  0.5471090000000 1.0
C      1  0.5887780000000  0.5328980000000  0.4468010000000 1.0
C      1  0.4236110000000  0.5334350000000  0.5497480000000 1.0
C      1  0.4784980000000  0.5396090000000  0.5520580000000 1.0
C      1  0.5677220000000  0.4834960000000  0.5467190000000 1.0
C      1  0.5518990000000  0.5117750000000  0.5405940000000 1.0
C      1  0.4892410000000  0.4439780000000  0.4988530000000 1.0
C      1  0.5781400000000  0.4549890000000  0.5209550000000 1.0
C      1  0.4363090000000  0.4398740000000  0.4491770000000 1.0
C      1  0.5265130000000  0.4061190000000  0.5009970000000 1.0
C      1  0.4471430000000  0.5396650000000  0.5664380000000 1.0
C      1  0.4958360000000  0.4046110000000  0.4954410000000 1.0
C      1  0.4229520000000  0.5046950000000  0.4929770000000 1.0
C      1  0.5170680000000  0.4726340000000  0.4184030000000 1.0
C      1  0.5837710000000  0.4882510000000  0.5165320000000 1.0
C      1  0.5059100000000  0.4450660000000  0.5909440000000 1.0
C      1  0.5228240000000  0.5879960000000  0.4602660000000 1.0
C      1  0.5388540000000  0.4470550000000  0.4244710000000 1.0
C      1  0.4620520000000  0.5690610000000  0.5576660000000 1.0
C      1  0.4215700000000  0.5147720000000  0.4348700000000 1.0
C      1  0.5281050000000  0.5922820000000  0.4918040000000 1.0
C      1  0.4083600000000  0.4874620000000  0.4521690000000 1.0
C      1  0.5039310000000  0.4539020000000  0.4423880000000 1.0
C      1  0.4448240000000  0.4737810000000  0.4779490000000 1.0
C      1  0.4828910000000  0.4781450000000  0.4384240000000 1.0
C      1  0.4875370000000  0.5255420000000  0.4043740000000 1.0
C      1  0.5349130000000  0.5244510000000  0.4165290000000 1.0
C      1  0.5181450000000  0.4371670000000  0.4895510000000 1.0
C      1  0.4388950000000  0.4588530000000  0.5691470000000 1.0
C      1  0.5417740000000  0.5558640000000  0.4826170000000 1.0
C      1  0.4689350000000  0.5244190000000  0.5876540000000 1.0
C      1  0.4398510000000  0.5436720000000  0.4327710000000 1.0
C      1  0.5124890000000  0.4140060000000  0.5536580000000 1.0
C      1  0.4440020000000  0.4722210000000  0.4437090000000 1.0
C      1  0.5612140000000  0.5172300000000  0.4456860000000 1.0
C      1  0.4935990000000  0.5204530000000  0.5064620000000 1.0
C      1  0.5813470000000  0.5222240000000  0.5156620000000 1.0
C      1  0.4937540000000  0.4718270000000  0.5186880000000 1.0
C      1  0.4182190000000  0.5613910000000  0.4652490000000 1.0
C      1  0.4734290000000  0.5916050000000  0.4824470000000 1.0
C      1  0.5036330000000  0.5628400000000  0.5876440000000 1.0
C      1  0.5598820000000  0.4470160000000  0.4730850000000 1.0
C      1  0.4931190000000  0.5460500000000  0.4418380000000 1.0
C      1  0.4633160000000  0.4797980000000  0.5060160000000 1.0
C      1  0.4081780000000  0.4985390000000  0.5227140000000 1.0
C      1  0.5709410000000  0.4348840000000  0.5019420000000 1.0
C      1  0.4744520000000  0.5290870000000  0.4649850000000 1.0
C      1  0.4652830000000  0.4491290000000  0.4337320000000 1.0
C      1  0.4790670000000  0.5723420000000  0.4393780000000 1.0
C      1  0.4919430000000  0.5897440000000  0.4591350000000 1.0
C      1  0.5339740000000  0.4107790000000  0.5329880000000 1.0
C      1  0.5880370000000  0.5908200000000  0.5060240000000 1.0
C      1  0.4167260000000  0.4592120000000  0.4695360000000 1.0
C      1  0.5143540000000  0.4785350000000  0.4924510000000 1.0
C      1  0.4687470000000  0.4882270000000  0.4024120000000 1.0
C      1  0.5904750000000  0.4997550000000  0.4850770000000 1.0
C      1  0.4441110000000  0.5608090000000  0.5131120000000 1.0
C      1  0.5512770000000  0.5503100000000  0.5119790000000 1.0
C      1  0.4729580000000  0.4419790000000  0.5570800000000 1.0
C      1  0.4685280000000  0.4294290000000  0.4680640000000 1.0
C      1  0.4773560000000  0.4489990000000  0.5837750000000 1.0
C      1  0.4047180000000  0.5113550000000  0.4705900000000 1.0
C      1  0.5420070000000  0.4317980000000  0.4483390000000 1.0
C      1  0.4526020000000  0.5121140000000  0.4855180000000 1.0
C      1  0.5662850000000  0.5795370000000  0.5189940000000 1.0
C      1  0.5401920000000  0.5670600000000  0.4447570000000 1.0
C      1  0.5348890000000  0.5381050000000  0.5358770000000 1.0
C      1  0.4601510000000  0.4718820000000  0.5927690000000 1.0
C      1  0.5106050000000  0.5645680000000  0.4898900000000 1.0
C      1  0.5728570000000  0.4874970000000  0.4359190000000 1.0
C      1  0.5311700000000  0.5058320000000  0.5934450000000 1.0
C      1  0.5730030000000  0.4972190000000  0.4055230000000 1.0
C      1  0.4913810000000  0.5519650000000  0.5067020000000 1.0
C      1  0.4429840000000  0.4906230000000  0.5567930000000 1.0
C      1  0.4320840000000  0.4332650000000  0.5471980000000 1.0
C      1  0.5175450000000  0.4583180000000  0.5365150000000 1.0
C      1  0.5396510000000  0.5950220000000  0.5173360000000 1.0
C      1  0.5180300000000  0.4167850000000  0.4552440000000 1.0
C      1  0.4921200000000  0.4133730000000  0.4687240000000 1.0
C      1  0.4964080000000  0.5093330000000  0.5741830000000 1.0
C      1  0.4639090000000  0.5500050000000  0.4897960000000 1.0
C      1  0.4561060000000  0.4640840000000  0.5416340000000 1.0
C      1  0.5825790000000  0.4595040000000  0.4606490000000 1.0
C      1  0.4881580000000  0.4290560000000  0.4321700000000 1.0
C      1  0.4759320000000  0.4197900000000  0.5158160000000 1.0
C      1  0.5469610000000  0.5186360000000  0.4679210000000 1.0
C      1  0.5498380000000  0.4416090000000  0.5684340000000 1.0
C      1  0.5275600000000  0.4998060000000  0.4328980000000 1.0
C      1  0.5701570000000  0.4510100000000  0.5504600000000 1.0
C      1  0.5244320000000  0.5481490000000  0.4285640000000 1.0
C      1  0.4731770000000  0.4952760000000  0.6030990000000 1.0
C      1  0.4753040000000  0.5579560000000  0.5870440000000 1.0
C      1  0.5318370000000  0.5518930000000  0.5627870000000 1.0
C      1  0.4751660000000  0.4611710000000  0.4733150000000 1.0
C      1  0.4466990000000  0.5737970000000  0.4740990000000 1.0
C      1  0.4380330000000  0.4348050000000  0.4828950000000 1.0
C      1  0.4446670000000  0.4279950000000  0.5156910000000 1.0
C      1  0.5349770000000  0.4409400000000  0.5183670000000 1.0
C      1  0.5235080000000  0.4277210000000  0.5765130000000 1.0
C      1  0.4666230000000  0.5095780000000  0.5147020000000 1.0
C      1  0.5185220000000  0.5332110000000  0.5841840000000 1.0
C      1  0.5053450000000  0.4774730000000  0.5827280000000 1.0
C      1  0.4403050000000  0.4593010000000  0.5148520000000 1.0
C      1  0.5662680000000  0.5531810000000  0.4623550000000 1.0
C      1  0.5046070000000  0.4951080000000  0.6104860000000 1.0
C      1  0.5452580000000  0.4649830000000  0.4982650000000 1.0
C      1  0.5799890000000  0.5321500000000  0.4857510000000 1.0
C      1  0.4587140000000  0.5800220000000  0.5289020000000 1.0
C      1  0.4430570000000  0.4931100000000  0.4233240000000 1.0
C      1  0.5441840000000  0.4915970000000  0.5154090000000 1.0
C      1  0.5096200000000  0.5126940000000  0.4554090000000 1.0
C      1  0.5744170000000  0.5353260000000  0.5409430000000 1.0
C      1  0.5420340000000  0.5199530000000  0.4993130000000 1.0
C      1  0.4933720000000  0.4941970000000  0.5448230000000 1.0
C      1  0.5439850000000  0.4770240000000  0.4501210000000 1.0
C      1  0.4157980000000  0.4734130000000  0.5049980000000 1.0
C      1  0.5213830000000  0.4601630000000  0.4668420000000 1.0
C      1  0.4924140000000  0.4807620000000  0.3997320000000 1.0
C      1  0.5565040000000  0.5185060000000  0.3991300000000 1.0
C      1  0.5587360000000  0.4101440000000  0.5096200000000 1.0
C      1  0.4743110000000  0.5963960000000  0.5109780000000 1.0
C      1  0.5200600000000  0.5798750000000  0.5643730000000 1.0
C      1  0.4654290000000  0.5102490000000  0.5464550000000 1.0
C      1  0.5133230000000  0.5076040000000  0.4857100000000 1.0
END
