TITL C-2778422-5617-189 0.122079092629999 125000 -937.257609897187 0 0 163 (C1) n - 1
REM
REM in /home/nfs/bkarasulu/CARBON/AIRSS/Generating-Clusters/REBO/Only-C1/SD-CG/HFTN-CG
REM
REM
REM
REM
REM
REM ./C.cell (11c1c37f851c82e70ff6c80c92926a4b)
REM
REM compiler GCC version 9.2.1 20190827 (Red Hat 9.2.1-1)
REM options -cpp -mtune=generic -march=x86-64 -g -O0 -fpre-include=/usr/include/finclude/math-vector-fortran.h
REM seed 1064280510 824632928 -1326909756 1052611182 1625005215 308235396 -1162112929 -613176372 -1227655767 24322089 -1155197922 528908895 1393306260 538159608 -173255418 1489622264 775933279 -1962421221 2087188047 1681680520 -1104993654 1503880394 -769659683 -345295619 -1415310069 1227243768 -1865129853 -80081289 -369978248 2007011873 605844796 1912550461 -1038067315
REM
CELL 1.54180   50.00000   50.00000   50.00000   90.00000   90.00000   90.00000
LATT -1
SFAC C  
C      1  0.5244830000000  0.4199260000000  0.5463080000000 1.0
C      1  0.5600510000000  0.4488330000000  0.5317160000000 1.0
C      1  0.5097100000000  0.4306750000000  0.4930640000000 1.0
C      1  0.4231780000000  0.4726310000000  0.4027000000000 1.0
C      1  0.5926770000000  0.5150280000000  0.5004800000000 1.0
C      1  0.4871860000000  0.5609970000000  0.5845580000000 1.0
C      1  0.4430660000000  0.4841320000000  0.4966070000000 1.0
C      1  0.4067240000000  0.4613870000000  0.5626570000000 1.0
C      1  0.5218980000000  0.4606930000000  0.4230860000000 1.0
C      1  0.4673340000000  0.4757690000000  0.5892120000000 1.0
C      1  0.5316870000000  0.5693670000000  0.4898380000000 1.0
C      1  0.4041720000000  0.4543750000000  0.4801720000000 1.0
C      1  0.5556710000000  0.4793950000000  0.5770940000000 1.0
C      1  0.5784860000000  0.5012200000000  0.5769290000000 1.0
C      1  0.5911010000000  0.5481210000000  0.5004550000000 1.0
C      1  0.5153230000000  0.4788930000000  0.4790230000000 1.0
C      1  0.4293580000000  0.5556100000000  0.5459190000000 1.0
C      1  0.5553070000000  0.4108030000000  0.5085760000000 1.0
C      1  0.4984100000000  0.5033300000000  0.5452920000000 1.0
C      1  0.4080670000000  0.5293990000000  0.5410150000000 1.0
C      1  0.4909410000000  0.4614600000000  0.4523830000000 1.0
C      1  0.6006460000000  0.4952490000000  0.5513630000000 1.0
C      1  0.5065990000000  0.5939160000000  0.5329460000000 1.0
C      1  0.4512020000000  0.5614330000000  0.5070180000000 1.0
C      1  0.5335130000000  0.5067430000000  0.4730380000000 1.0
C      1  0.5166590000000  0.4890030000000  0.4054980000000 1.0
C      1  0.4107770000000  0.5495610000000  0.4522010000000 1.0
C      1  0.4047740000000  0.4807160000000  0.4596470000000 1.0
C      1  0.5092140000000  0.4894080000000  0.4474590000000 1.0
C      1  0.4592570000000  0.5457540000000  0.5842680000000 1.0
C      1  0.3903410000000  0.4838170000000  0.4904670000000 1.0
C      1  0.4834160000000  0.3981180000000  0.4606440000000 1.0
C      1  0.4553060000000  0.4076330000000  0.4770580000000 1.0
C      1  0.4571360000000  0.4928490000000  0.4293090000000 1.0
C      1  0.4647260000000  0.5076120000000  0.5011350000000 1.0
C      1  0.6094910000000  0.5153440000000  0.5776610000000 1.0
C      1  0.5420570000000  0.5788530000000  0.5407360000000 1.0
C      1  0.5300000000000  0.4039570000000  0.4713180000000 1.0
C      1  0.4643640000000  0.5304290000000  0.4405480000000 1.0
C      1  0.4420190000000  0.4549220000000  0.5141350000000 1.0
C      1  0.4339920000000  0.5331040000000  0.4992040000000 1.0
C      1  0.4433390000000  0.4517790000000  0.4025860000000 1.0
C      1  0.5177220000000  0.5309710000000  0.4869240000000 1.0
C      1  0.5241740000000  0.5612870000000  0.5183810000000 1.0
C      1  0.5274750000000  0.5609570000000  0.4586310000000 1.0
C      1  0.5494760000000  0.5334970000000  0.4166820000000 1.0
C      1  0.5570690000000  0.5261580000000  0.5853160000000 1.0
C      1  0.4397500000000  0.4920360000000  0.5281620000000 1.0
C      1  0.4470020000000  0.4965460000000  0.5799430000000 1.0
C      1  0.5636650000000  0.5499280000000  0.4704310000000 1.0
C      1  0.4677400000000  0.4978540000000  0.5559770000000 1.0
C      1  0.5123320000000  0.4547090000000  0.5124080000000 1.0
C      1  0.4757630000000  0.4800320000000  0.4741180000000 1.0
C      1  0.5896190000000  0.5273480000000  0.5487680000000 1.0
C      1  0.3909490000000  0.5061910000000  0.5358660000000 1.0
C      1  0.5059620000000  0.3927930000000  0.4789130000000 1.0
C      1  0.5663450000000  0.4950160000000  0.4432140000000 1.0
C      1  0.4914650000000  0.5133860000000  0.6046690000000 1.0
C      1  0.6026380000000  0.4761970000000  0.5287060000000 1.0
C      1  0.5598670000000  0.5266340000000  0.5523110000000 1.0
C      1  0.5958050000000  0.5032570000000  0.4581980000000 1.0
C      1  0.5356650000000  0.5993370000000  0.5158680000000 1.0
C      1  0.5209370000000  0.4371890000000  0.4351660000000 1.0
C      1  0.5022260000000  0.5203860000000  0.4480950000000 1.0
C      1  0.4804720000000  0.5225050000000  0.5750780000000 1.0
C      1  0.5339880000000  0.5383690000000  0.5410600000000 1.0
C      1  0.3829260000000  0.5134030000000  0.4856620000000 1.0
C      1  0.4453040000000  0.4405590000000  0.4342370000000 1.0
C      1  0.4842730000000  0.5501630000000  0.5465650000000 1.0
C      1  0.5579340000000  0.5717670000000  0.5620670000000 1.0
C      1  0.5048240000000  0.6001340000000  0.4589040000000 1.0
C      1  0.5219470000000  0.4963500000000  0.5642030000000 1.0
C      1  0.4352880000000  0.5093100000000  0.4749080000000 1.0
C      1  0.4830830000000  0.4872480000000  0.6104470000000 1.0
C      1  0.4268900000000  0.4551290000000  0.4561110000000 1.0
C      1  0.5388560000000  0.4319870000000  0.4592010000000 1.0
C      1  0.5286100000000  0.5161410000000  0.5912090000000 1.0
C      1  0.3901750000000  0.4821760000000  0.5215530000000 1.0
C      1  0.4338440000000  0.4650760000000  0.5456310000000 1.0
C      1  0.4772390000000  0.5186870000000  0.5233050000000 1.0
C      1  0.5433730000000  0.4508080000000  0.5763040000000 1.0
C      1  0.5082810000000  0.5331980000000  0.5585150000000 1.0
C      1  0.4816300000000  0.5667520000000  0.4915610000000 1.0
C      1  0.5902370000000  0.4505320000000  0.5293830000000 1.0
C      1  0.6065270000000  0.4880330000000  0.5035280000000 1.0
C      1  0.5900730000000  0.5751390000000  0.5179100000000 1.0
C      1  0.4849280000000  0.5801460000000  0.5561110000000 1.0
C      1  0.4151310000000  0.5097960000000  0.4473860000000 1.0
C      1  0.5722940000000  0.5283890000000  0.4383860000000 1.0
C      1  0.5186510000000  0.5191380000000  0.4181320000000 1.0
C      1  0.5256030000000  0.4818660000000  0.5935530000000 1.0
C      1  0.4817000000000  0.5845000000000  0.5171780000000 1.0
C      1  0.5548700000000  0.4844390000000  0.4800210000000 1.0
C      1  0.4838450000000  0.4583290000000  0.5697320000000 1.0
C      1  0.5424660000000  0.5304640000000  0.4556070000000 1.0
C      1  0.5439370000000  0.4927590000000  0.5197550000000 1.0
C      1  0.4602440000000  0.4174140000000  0.4448430000000 1.0
C      1  0.4885850000000  0.5752440000000  0.4588200000000 1.0
C      1  0.4422430000000  0.5656950000000  0.4778470000000 1.0
C      1  0.5042300000000  0.4248480000000  0.5656870000000 1.0
C      1  0.4691300000000  0.4623750000000  0.4306940000000 1.0
C      1  0.4888250000000  0.4869460000000  0.3933790000000 1.0
C      1  0.5629610000000  0.5087300000000  0.5004750000000 1.0
C      1  0.5506640000000  0.5350740000000  0.4950130000000 1.0
C      1  0.4399360000000  0.5229460000000  0.5888820000000 1.0
C      1  0.4742790000000  0.4618500000000  0.3976360000000 1.0
C      1  0.4999800000000  0.5421560000000  0.5205400000000 1.0
C      1  0.5562840000000  0.6003140000000  0.4885090000000 1.0
C      1  0.5295520000000  0.5569000000000  0.4246120000000 1.0
C      1  0.5861090000000  0.4229860000000  0.5162730000000 1.0
C      1  0.5767820000000  0.4222880000000  0.4859170000000 1.0
C      1  0.4972530000000  0.3957250000000  0.5069840000000 1.0
C      1  0.5883170000000  0.5561140000000  0.4512170000000 1.0
C      1  0.4890630000000  0.5387080000000  0.4736780000000 1.0
C      1  0.4240230000000  0.4324140000000  0.5417520000000 1.0
C      1  0.5382290000000  0.4559400000000  0.4813000000000 1.0
C      1  0.4391430000000  0.4057900000000  0.5266270000000 1.0
C      1  0.5247110000000  0.4114560000000  0.5169920000000 1.0
C      1  0.3992070000000  0.4529140000000  0.5303400000000 1.0
C      1  0.4305410000000  0.4128710000000  0.4965590000000 1.0
C      1  0.5993030000000  0.5320410000000  0.4715740000000 1.0
C      1  0.4706150000000  0.4797830000000  0.5290530000000 1.0
C      1  0.4902650000000  0.4558180000000  0.5360880000000 1.0
C      1  0.4353020000000  0.5209710000000  0.5276910000000 1.0
C      1  0.4272430000000  0.4918410000000  0.4217840000000 1.0
C      1  0.5264450000000  0.5983650000000  0.4757190000000 1.0
C      1  0.3869940000000  0.5269870000000  0.4559830000000 1.0
C      1  0.4681430000000  0.4075070000000  0.5085640000000 1.0
C      1  0.5418230000000  0.4641850000000  0.5138530000000 1.0
C      1  0.5043660000000  0.5481450000000  0.4063750000000 1.0
C      1  0.5742490000000  0.5808160000000  0.4711480000000 1.0
C      1  0.4936560000000  0.5551080000000  0.3798250000000 1.0
C      1  0.4724520000000  0.5063990000000  0.4055040000000 1.0
C      1  0.4917470000000  0.5502600000000  0.4357180000000 1.0
C      1  0.4934980000000  0.4208000000000  0.4380770000000 1.0
C      1  0.5724790000000  0.5539830000000  0.5785110000000 1.0
C      1  0.4572800000000  0.5367020000000  0.5442850000000 1.0
C      1  0.4345020000000  0.5348940000000  0.4336750000000 1.0
C      1  0.5495350000000  0.4973160000000  0.5490270000000 1.0
C      1  0.4730360000000  0.4280610000000  0.5584640000000 1.0
C      1  0.4906510000000  0.4774320000000  0.5024730000000 1.0
C      1  0.4460510000000  0.4138310000000  0.5575360000000 1.0
C      1  0.6051030000000  0.4794590000000  0.4759020000000 1.0
C      1  0.5069310000000  0.5416500000000  0.5975380000000 1.0
C      1  0.4074130000000  0.5368200000000  0.4826920000000 1.0
C      1  0.5001800000000  0.4342760000000  0.4690690000000 1.0
C      1  0.5364690000000  0.5860780000000  0.4390100000000 1.0
C      1  0.5473240000000  0.4355200000000  0.5530350000000 1.0
C      1  0.4629650000000  0.5039910000000  0.4590610000000 1.0
C      1  0.5768910000000  0.4687210000000  0.4626770000000 1.0
C      1  0.6015920000000  0.5470960000000  0.5727490000000 1.0
C      1  0.4659540000000  0.4353090000000  0.5256470000000 1.0
C      1  0.4545760000000  0.4584650000000  0.4686500000000 1.0
C      1  0.4153700000000  0.4398340000000  0.5034300000000 1.0
C      1  0.4555840000000  0.5760420000000  0.5375170000000 1.0
C      1  0.5395820000000  0.4879070000000  0.4316140000000 1.0
C      1  0.5229250000000  0.5170820000000  0.5171560000000 1.0
C      1  0.5122210000000  0.4516180000000  0.5853630000000 1.0
C      1  0.4214640000000  0.5634590000000  0.4252270000000 1.0
C      1  0.4610430000000  0.5553780000000  0.4599180000000 1.0
C      1  0.4986160000000  0.6212750000000  0.4423470000000 1.0
C      1  0.5616860000000  0.5651970000000  0.5066070000000 1.0
C      1  0.5696860000000  0.4386340000000  0.4640180000000 1.0
END
