TITL C-2778423-5760-1082 -6.41524720301951e-05 125000 -723.024497982115 0 0 124 (C1) n - 1
REM
REM in /home/nfs/bkarasulu/CARBON/AIRSS/Generating-Clusters/REBO/Only-C1/SD-CG/HFTN-CG
REM
REM
REM
REM
REM
REM ./C.cell (11c1c37f851c82e70ff6c80c92926a4b)
REM
REM compiler GCC version 9.2.1 20190827 (Red Hat 9.2.1-1)
REM options -cpp -mtune=generic -march=x86-64 -g -O0 -fpre-include=/usr/include/finclude/math-vector-fortran.h
REM seed 686846535 1865470536 -92461210 99489140 199957181 659684172 -167597350 -2128996138 -1009253701 -1559457250 -1140859999 1747923892 1544131607 -743388544 -687075997 747873345 -623162610 -1277211781 -816224589 1937514033 -1034371547 870728200 1055226528 -1109252808 -1532347865 463642931 246430474 776836304 1238807231 -1523181517 1558062526 190196892 256370746
REM
CELL 1.54180   50.00000   50.00000   50.00000   90.00000   90.00000   90.00000
LATT -1
SFAC C  
C      1  0.4589000000000  0.4197100000000  0.4679060000000 1.0
C      1  0.4120480000000  0.5280120000000  0.5184990000000 1.0
C      1  0.5791740000000  0.4679950000000  0.5408890000000 1.0
C      1  0.4815570000000  0.4584240000000  0.4441450000000 1.0
C      1  0.5607520000000  0.5237880000000  0.4260940000000 1.0
C      1  0.5164420000000  0.5984060000000  0.5100450000000 1.0
C      1  0.4951350000000  0.5762440000000  0.4321630000000 1.0
C      1  0.4772830000000  0.5343140000000  0.4372350000000 1.0
C      1  0.5414080000000  0.4508840000000  0.4528240000000 1.0
C      1  0.5027750000000  0.4039850000000  0.4441130000000 1.0
C      1  0.4492300000000  0.4602670000000  0.4449060000000 1.0
C      1  0.4489380000000  0.4902450000000  0.4595950000000 1.0
C      1  0.5226950000000  0.5827930000000  0.5399250000000 1.0
C      1  0.5442290000000  0.4982140000000  0.4865590000000 1.0
C      1  0.5124400000000  0.4445810000000  0.5444950000000 1.0
C      1  0.5798020000000  0.4535400000000  0.4636600000000 1.0
C      1  0.5492340000000  0.5295930000000  0.4897260000000 1.0
C      1  0.4826360000000  0.5868420000000  0.4576190000000 1.0
C      1  0.5537810000000  0.4917220000000  0.4306740000000 1.0
C      1  0.5840390000000  0.5024450000000  0.5006940000000 1.0
C      1  0.5628700000000  0.4422230000000  0.5339970000000 1.0
C      1  0.5598800000000  0.4642800000000  0.5900140000000 1.0
C      1  0.4842170000000  0.5532700000000  0.4628290000000 1.0
C      1  0.4562970000000  0.4857770000000  0.4260560000000 1.0
C      1  0.4416770000000  0.5320280000000  0.5300820000000 1.0
C      1  0.4043460000000  0.4942080000000  0.4671530000000 1.0
C      1  0.4869950000000  0.4068970000000  0.5062000000000 1.0
C      1  0.4334980000000  0.4286070000000  0.5053380000000 1.0
C      1  0.4576030000000  0.4978730000000  0.5131590000000 1.0
C      1  0.4847730000000  0.4888660000000  0.4184700000000 1.0
C      1  0.4866640000000  0.5242990000000  0.5186140000000 1.0
C      1  0.4184660000000  0.4446340000000  0.5266440000000 1.0
C      1  0.5051810000000  0.5321990000000  0.5459330000000 1.0
C      1  0.5158770000000  0.5499430000000  0.4308680000000 1.0
C      1  0.4832550000000  0.4190070000000  0.5365330000000 1.0
C      1  0.4969840000000  0.4922170000000  0.5124950000000 1.0
C      1  0.4490260000000  0.5330260000000  0.4346180000000 1.0
C      1  0.5547660000000  0.4690480000000  0.5630800000000 1.0
C      1  0.5169290000000  0.4234360000000  0.5108460000000 1.0
C      1  0.5490750000000  0.5622160000000  0.5760340000000 1.0
C      1  0.4365940000000  0.4594410000000  0.5475910000000 1.0
C      1  0.5093540000000  0.5678200000000  0.4797970000000 1.0
C      1  0.4346050000000  0.5489360000000  0.4565910000000 1.0
C      1  0.4318580000000  0.4559990000000  0.4907800000000 1.0
C      1  0.4681360000000  0.5097620000000  0.5938570000000 1.0
C      1  0.5044840000000  0.4608840000000  0.4205040000000 1.0
C      1  0.4760110000000  0.4586100000000  0.5792080000000 1.0
C      1  0.5418700000000  0.4175080000000  0.4547160000000 1.0
C      1  0.5284370000000  0.5207280000000  0.4203990000000 1.0
C      1  0.4760980000000  0.4817850000000  0.5956920000000 1.0
C      1  0.4143190000000  0.5119910000000  0.5686270000000 1.0
C      1  0.4190530000000  0.5613130000000  0.5152500000000 1.0
C      1  0.4711940000000  0.5907280000000  0.5336650000000 1.0
C      1  0.5761870000000  0.5435980000000  0.4492390000000 1.0
C      1  0.5218340000000  0.5439990000000  0.4955780000000 1.0
C      1  0.5666520000000  0.4266250000000  0.4720580000000 1.0
C      1  0.5353010000000  0.4372120000000  0.5492070000000 1.0
C      1  0.4407550000000  0.5720780000000  0.4787020000000 1.0
C      1  0.4156870000000  0.5495460000000  0.4850300000000 1.0
C      1  0.5178310000000  0.5163870000000  0.5104330000000 1.0
C      1  0.5437990000000  0.4111870000000  0.5179100000000 1.0
C      1  0.5774890000000  0.5352810000000  0.5068170000000 1.0
C      1  0.4871230000000  0.5317460000000  0.5910320000000 1.0
C      1  0.5232220000000  0.4878070000000  0.4272900000000 1.0
C      1  0.5377170000000  0.5132440000000  0.5328680000000 1.0
C      1  0.5057660000000  0.4798420000000  0.4553680000000 1.0
C      1  0.5020940000000  0.5472410000000  0.5721550000000 1.0
C      1  0.5180300000000  0.4331910000000  0.4351820000000 1.0
C      1  0.4886410000000  0.5223110000000  0.4760350000000 1.0
C      1  0.4781980000000  0.5668100000000  0.5216260000000 1.0
C      1  0.5553940000000  0.5781760000000  0.4839790000000 1.0
C      1  0.4392170000000  0.4331090000000  0.4538690000000 1.0
C      1  0.5698730000000  0.4260390000000  0.5049220000000 1.0
C      1  0.5024020000000  0.4998340000000  0.5456630000000 1.0
C      1  0.4637140000000  0.5429270000000  0.5172060000000 1.0
C      1  0.4556740000000  0.4132370000000  0.4952530000000 1.0
C      1  0.5464890000000  0.5072400000000  0.5854470000000 1.0
C      1  0.4920120000000  0.3955310000000  0.4739790000000 1.0
C      1  0.5454490000000  0.5804990000000  0.5142250000000 1.0
C      1  0.5123380000000  0.4207430000000  0.4788060000000 1.0
C      1  0.4848330000000  0.4333900000000  0.4638350000000 1.0
C      1  0.4428940000000  0.5142030000000  0.5794440000000 1.0
C      1  0.5153540000000  0.5305240000000  0.4562710000000 1.0
C      1  0.4849130000000  0.4671400000000  0.5040980000000 1.0
C      1  0.4543550000000  0.4716230000000  0.4964530000000 1.0
C      1  0.5637830000000  0.5177750000000  0.5626950000000 1.0
C      1  0.4841180000000  0.4512810000000  0.5303790000000 1.0
C      1  0.4086990000000  0.5045190000000  0.5412060000000 1.0
C      1  0.4949780000000  0.5158170000000  0.4242610000000 1.0
C      1  0.5645830000000  0.5456330000000  0.5586120000000 1.0
C      1  0.4497080000000  0.5146430000000  0.5504020000000 1.0
C      1  0.4129070000000  0.4772180000000  0.5348490000000 1.0
C      1  0.4358810000000  0.5093310000000  0.4271130000000 1.0
C      1  0.4652730000000  0.4650270000000  0.5504200000000 1.0
C      1  0.5739930000000  0.4994360000000  0.4721300000000 1.0
C      1  0.5319510000000  0.4927320000000  0.5582480000000 1.0
C      1  0.5343630000000  0.5751000000000  0.4390390000000 1.0
C      1  0.4994260000000  0.4583260000000  0.4795910000000 1.0
C      1  0.5850220000000  0.4544250000000  0.4938020000000 1.0
C      1  0.4889610000000  0.5925560000000  0.4908070000000 1.0
C      1  0.5333770000000  0.5448540000000  0.5337400000000 1.0
C      1  0.5223730000000  0.5691260000000  0.5679800000000 1.0
C      1  0.4634750000000  0.5086440000000  0.4836580000000 1.0
C      1  0.4082440000000  0.5173870000000  0.4884180000000 1.0
C      1  0.5388630000000  0.4503350000000  0.5116670000000 1.0
C      1  0.4806310000000  0.4309420000000  0.5645380000000 1.0
C      1  0.4356180000000  0.5188080000000  0.4694930000000 1.0
C      1  0.4572460000000  0.5892980000000  0.4962150000000 1.0
C      1  0.5638330000000  0.4706550000000  0.4455450000000 1.0
C      1  0.5653610000000  0.4972670000000  0.5369090000000 1.0
C      1  0.5820610000000  0.5125320000000  0.4495550000000 1.0
C      1  0.5074480000000  0.5617050000000  0.5192720000000 1.0
C      1  0.4105390000000  0.4684280000000  0.4770370000000 1.0
C      1  0.5706950000000  0.5521160000000  0.4779790000000 1.0
C      1  0.5549780000000  0.4876420000000  0.6045970000000 1.0
C      1  0.5879340000000  0.4764090000000  0.5114440000000 1.0
C      1  0.5635760000000  0.5551580000000  0.5280070000000 1.0
C      1  0.4360210000000  0.5824770000000  0.5170070000000 1.0
C      1  0.5164120000000  0.5027840000000  0.4728550000000 1.0
C      1  0.5333630000000  0.5807280000000  0.4657980000000 1.0
C      1  0.5482280000000  0.4810960000000  0.5122090000000 1.0
C      1  0.5296430000000  0.4481100000000  0.4821940000000 1.0
C      1  0.4706860000000  0.4936540000000  0.5423510000000 1.0
C      1  0.4116240000000  0.5021400000000  0.4405910000000 1.0
END
