TITL C-2778422-5617-793 -0.00205270737880606 125000 -692.3571253732 0 0 119 (C1) n - 1
REM
REM in /home/nfs/bkarasulu/CARBON/AIRSS/Generating-Clusters/REBO/Only-C1/SD-CG/HFTN-CG
REM
REM
REM
REM
REM
REM ./C.cell (11c1c37f851c82e70ff6c80c92926a4b)
REM
REM compiler GCC version 9.2.1 20190827 (Red Hat 9.2.1-1)
REM options -cpp -mtune=generic -march=x86-64 -g -O0 -fpre-include=/usr/include/finclude/math-vector-fortran.h
REM seed 1445741381 -913642358 1373115984 188979640 1763634865 -957017266 200600010 1802861540 2012040276 2113117335 -1565125137 -1514461486 891340413 202184168 1430608251 867176486 -1999878506 970660812 1319621476 -1236440936 -957655632 -729098918 1982399360 1850959958 1643095090 114409674 987906349 -2049046593 1991914755 -2125769543 -1609256241 1016569298 217969047
REM
CELL 1.54180   50.00000   50.00000   50.00000   90.00000   90.00000   90.00000
LATT -1
SFAC C  
C      1  0.4611020000000  0.5279410000000  0.5517690000000 1.0
C      1  0.4355800000000  0.5453690000000  0.5393260000000 1.0
C      1  0.4563570000000  0.5793780000000  0.4922010000000 1.0
C      1  0.4143090000000  0.5096910000000  0.4839830000000 1.0
C      1  0.4684940000000  0.3578610000000  0.4664110000000 1.0
C      1  0.5518450000000  0.5060790000000  0.5453010000000 1.0
C      1  0.4382620000000  0.4747470000000  0.5411210000000 1.0
C      1  0.5041140000000  0.4492690000000  0.4243360000000 1.0
C      1  0.4614120000000  0.4484080000000  0.5044880000000 1.0
C      1  0.5800270000000  0.4493070000000  0.5604650000000 1.0
C      1  0.5912640000000  0.5050810000000  0.5396050000000 1.0
C      1  0.4626610000000  0.4731580000000  0.4281860000000 1.0
C      1  0.4546410000000  0.4572610000000  0.4508330000000 1.0
C      1  0.4961600000000  0.5500420000000  0.4209950000000 1.0
C      1  0.5387710000000  0.5468670000000  0.5188400000000 1.0
C      1  0.5196680000000  0.5264340000000  0.5332990000000 1.0
C      1  0.4425490000000  0.5435450000000  0.4229580000000 1.0
C      1  0.5505740000000  0.4342430000000  0.5567540000000 1.0
C      1  0.4970420000000  0.5248930000000  0.4658370000000 1.0
C      1  0.5131130000000  0.4499520000000  0.4832860000000 1.0
C      1  0.4653820000000  0.5633970000000  0.4282250000000 1.0
C      1  0.4327250000000  0.5223040000000  0.4661080000000 1.0
C      1  0.5583940000000  0.4944710000000  0.5746120000000 1.0
C      1  0.4493840000000  0.5195580000000  0.4084560000000 1.0
C      1  0.4852710000000  0.5508710000000  0.4593870000000 1.0
C      1  0.4845090000000  0.5759850000000  0.5070560000000 1.0
C      1  0.5896910000000  0.4683900000000  0.4957650000000 1.0
C      1  0.4593640000000  0.4338390000000  0.4739220000000 1.0
C      1  0.4662340000000  0.5193170000000  0.5846110000000 1.0
C      1  0.5095270000000  0.4251150000000  0.5259080000000 1.0
C      1  0.5786790000000  0.5482430000000  0.4983890000000 1.0
C      1  0.5415910000000  0.5583770000000  0.5651420000000 1.0
C      1  0.4415360000000  0.4452050000000  0.5500740000000 1.0
C      1  0.4912770000000  0.5332740000000  0.5672360000000 1.0
C      1  0.4872300000000  0.4449400000000  0.5709970000000 1.0
C      1  0.4932350000000  0.5708760000000  0.5538810000000 1.0
C      1  0.5794600000000  0.4440030000000  0.5021720000000 1.0
C      1  0.5315790000000  0.4744430000000  0.4536040000000 1.0
C      1  0.4836070000000  0.4424880000000  0.5248970000000 1.0
C      1  0.4908360000000  0.4734370000000  0.4186550000000 1.0
C      1  0.5221160000000  0.5026560000000  0.5568850000000 1.0
C      1  0.5755480000000  0.5290680000000  0.4631340000000 1.0
C      1  0.5821620000000  0.5316070000000  0.5489030000000 1.0
C      1  0.4450430000000  0.6051000000000  0.4947440000000 1.0
C      1  0.5310490000000  0.5568380000000  0.4924620000000 1.0
C      1  0.4598180000000  0.4886810000000  0.5599640000000 1.0
C      1  0.5610960000000  0.4753120000000  0.4688650000000 1.0
C      1  0.5257700000000  0.5341320000000  0.4712240000000 1.0
C      1  0.5529530000000  0.4662860000000  0.5468720000000 1.0
C      1  0.4131800000000  0.5483720000000  0.4940280000000 1.0
C      1  0.4850430000000  0.5597310000000  0.5296660000000 1.0
C      1  0.4965620000000  0.4720220000000  0.5241030000000 1.0
C      1  0.4473450000000  0.4735440000000  0.4768180000000 1.0
C      1  0.5582650000000  0.5340270000000  0.5729700000000 1.0
C      1  0.4122000000000  0.4943940000000  0.5340530000000 1.0
C      1  0.5266660000000  0.4412570000000  0.4470010000000 1.0
C      1  0.5136980000000  0.4199080000000  0.4705040000000 1.0
C      1  0.4738400000000  0.5201630000000  0.3936720000000 1.0
C      1  0.4478270000000  0.5101550000000  0.5254780000000 1.0
C      1  0.4242450000000  0.5418010000000  0.4447100000000 1.0
C      1  0.5140730000000  0.4732000000000  0.5668290000000 1.0
C      1  0.4838400000000  0.4777850000000  0.5784370000000 1.0
C      1  0.5263990000000  0.4876150000000  0.4836980000000 1.0
C      1  0.4593970000000  0.5320970000000  0.5054450000000 1.0
C      1  0.5584180000000  0.5570860000000  0.4724280000000 1.0
C      1  0.4212810000000  0.5200400000000  0.5535380000000 1.0
C      1  0.5740870000000  0.5019880000000  0.4421670000000 1.0
C      1  0.5577570000000  0.4299780000000  0.4894470000000 1.0
C      1  0.5539150000000  0.4439610000000  0.4648070000000 1.0
C      1  0.5933650000000  0.5211780000000  0.4888910000000 1.0
C      1  0.5513680000000  0.5674400000000  0.5389320000000 1.0
C      1  0.5287440000000  0.4151350000000  0.4992490000000 1.0
C      1  0.4748120000000  0.3825840000000  0.4661140000000 1.0
C      1  0.5891220000000  0.4923750000000  0.4712320000000 1.0
C      1  0.5442430000000  0.5229130000000  0.4573130000000 1.0
C      1  0.5186900000000  0.5685350000000  0.4316690000000 1.0
C      1  0.4448510000000  0.4937340000000  0.4194340000000 1.0
C      1  0.4314240000000  0.4265660000000  0.4905330000000 1.0
C      1  0.5575080000000  0.4965430000000  0.4953680000000 1.0
C      1  0.4508550000000  0.4797190000000  0.5104700000000 1.0
C      1  0.4900130000000  0.5856550000000  0.4354910000000 1.0
C      1  0.4827830000000  0.4971700000000  0.5387080000000 1.0
C      1  0.4993730000000  0.5805270000000  0.4644450000000 1.0
C      1  0.4122350000000  0.4698070000000  0.5112360000000 1.0
C      1  0.4980100000000  0.5072280000000  0.5882260000000 1.0
C      1  0.5568250000000  0.5195150000000  0.5202990000000 1.0
C      1  0.5422300000000  0.5675110000000  0.4467030000000 1.0
C      1  0.4404620000000  0.5568050000000  0.5085940000000 1.0
C      1  0.5772100000000  0.5530220000000  0.5274850000000 1.0
C      1  0.4971050000000  0.5247430000000  0.4092440000000 1.0
C      1  0.4589490000000  0.5213320000000  0.4774580000000 1.0
C      1  0.5077170000000  0.5767300000000  0.4911580000000 1.0
C      1  0.5407320000000  0.4993900000000  0.4352390000000 1.0
C      1  0.4676060000000  0.4368350000000  0.5510010000000 1.0
C      1  0.5229720000000  0.5004430000000  0.5151320000000 1.0
C      1  0.5136000000000  0.5561250000000  0.5689750000000 1.0
C      1  0.4607990000000  0.5708550000000  0.4615720000000 1.0
C      1  0.4181090000000  0.4817270000000  0.4858420000000 1.0
C      1  0.4821960000000  0.4114820000000  0.4657670000000 1.0
C      1  0.5818000000000  0.4822780000000  0.5565950000000 1.0
C      1  0.4882600000000  0.5269660000000  0.5228710000000 1.0
C      1  0.5380180000000  0.4813030000000  0.5866720000000 1.0
C      1  0.4369840000000  0.5073890000000  0.5754090000000 1.0
C      1  0.5277080000000  0.4543260000000  0.5058030000000 1.0
C      1  0.5293400000000  0.5202150000000  0.5834870000000 1.0
C      1  0.4941900000000  0.4829180000000  0.4947080000000 1.0
C      1  0.5887360000000  0.4979480000000  0.5105890000000 1.0
C      1  0.4871290000000  0.4356880000000  0.4454520000000 1.0
C      1  0.4278170000000  0.4459660000000  0.5131450000000 1.0
C      1  0.5088530000000  0.5001940000000  0.4234510000000 1.0
C      1  0.4950140000000  0.4935170000000  0.4528420000000 1.0
C      1  0.5172500000000  0.4412370000000  0.5554250000000 1.0
C      1  0.4081510000000  0.5537350000000  0.4677760000000 1.0
C      1  0.4710370000000  0.4941520000000  0.4755460000000 1.0
C      1  0.5302960000000  0.4738680000000  0.5304180000000 1.0
C      1  0.4951270000000  0.4608520000000  0.4616950000000 1.0
C      1  0.4174550000000  0.5209440000000  0.5137580000000 1.0
C      1  0.5423940000000  0.4310850000000  0.5261810000000 1.0
C      1  0.4994920000000  0.5149300000000  0.4944580000000 1.0
END
