TITL C-2778425-5191-784 -0.00436268042049564 125000 -289.706771597928 0 0 52 (C1) n - 1
REM
REM in /home/nfs/bkarasulu/CARBON/AIRSS/Generating-Clusters/REBO/Only-C1/SD-CG/HFTN-CG
REM
REM
REM
REM
REM
REM ./C.cell (11c1c37f851c82e70ff6c80c92926a4b)
REM
REM compiler GCC version 9.2.1 20190827 (Red Hat 9.2.1-1)
REM options -cpp -mtune=generic -march=x86-64 -g -O0 -fpre-include=/usr/include/finclude/math-vector-fortran.h
REM seed 828428098 1145922187 -987220997 219621296 892976154 -1317347512 -571510282 -88826544 775791053 -1002915028 -1372571860 -203705707 -1866152237 -381069545 364871731 -1170012215 -401018022 -546175262 -34441484 898578299 334713535 -834050550 1423664138 -813540284 995813682 1556960447 -612576101 1182899610 -50140279 -696955150 1076669484 -300772159 -2000118925
REM
CELL 1.54180   50.00000   50.00000   50.00000   90.00000   90.00000   90.00000
LATT -1
SFAC C  
C      1  0.4045950000000  0.5455960000000  0.4860910000000 1.0
C      1  0.5189470000000  0.4795420000000  0.5178970000000 1.0
C      1  0.4701540000000  0.5029240000000  0.4997350000000 1.0
C      1  0.4379270000000  0.4746240000000  0.5433110000000 1.0
C      1  0.5798180000000  0.5119000000000  0.4871740000000 1.0
C      1  0.4902750000000  0.5157180000000  0.4390340000000 1.0
C      1  0.4618960000000  0.4603230000000  0.5373670000000 1.0
C      1  0.5658010000000  0.4688980000000  0.5341170000000 1.0
C      1  0.4396050000000  0.4974440000000  0.4930430000000 1.0
C      1  0.4801220000000  0.4462350000000  0.4759970000000 1.0
C      1  0.5641000000000  0.5352720000000  0.4867670000000 1.0
C      1  0.5157180000000  0.5567400000000  0.5071200000000 1.0
C      1  0.5029600000000  0.4430330000000  0.4584060000000 1.0
C      1  0.5396120000000  0.4700910000000  0.5425210000000 1.0
C      1  0.4240750000000  0.5197820000000  0.4903020000000 1.0
C      1  0.5590800000000  0.5153600000000  0.5209060000000 1.0
C      1  0.5035230000000  0.5473560000000  0.5381630000000 1.0
C      1  0.5484310000000  0.5469260000000  0.5125430000000 1.0
C      1  0.4410510000000  0.5029110000000  0.5430190000000 1.0
C      1  0.5305390000000  0.5068000000000  0.5305410000000 1.0
C      1  0.5435840000000  0.5371380000000  0.4670400000000 1.0
C      1  0.4781710000000  0.5295290000000  0.4847730000000 1.0
C      1  0.4622350000000  0.4667610000000  0.4610650000000 1.0
C      1  0.4819280000000  0.4881260000000  0.4470930000000 1.0
C      1  0.4532220000000  0.5324980000000  0.5383500000000 1.0
C      1  0.4848770000000  0.4661030000000  0.5538010000000 1.0
C      1  0.4506650000000  0.4701160000000  0.4881370000000 1.0
C      1  0.5751620000000  0.4893000000000  0.5123750000000 1.0
C      1  0.4722630000000  0.4542990000000  0.5082490000000 1.0
C      1  0.5151380000000  0.4845160000000  0.4876800000000 1.0
C      1  0.4715580000000  0.5062760000000  0.5302310000000 1.0
C      1  0.5388650000000  0.4852830000000  0.4668600000000 1.0
C      1  0.4840920000000  0.5361460000000  0.4579140000000 1.0
C      1  0.5234110000000  0.5563640000000  0.4747520000000 1.0
C      1  0.4823290000000  0.5508040000000  0.5044390000000 1.0
C      1  0.4333850000000  0.5504640000000  0.5000270000000 1.0
C      1  0.5269200000000  0.4463800000000  0.4899770000000 1.0
C      1  0.5371470000000  0.5134350000000  0.4518160000000 1.0
C      1  0.5055700000000  0.4470280000000  0.5125860000000 1.0
C      1  0.4920770000000  0.4978560000000  0.5542960000000 1.0
C      1  0.5056550000000  0.4493260000000  0.5462570000000 1.0
C      1  0.5012970000000  0.5588780000000  0.4571640000000 1.0
C      1  0.5177010000000  0.5160650000000  0.4311710000000 1.0
C      1  0.5290810000000  0.4614220000000  0.4500780000000 1.0
C      1  0.5304490000000  0.5362290000000  0.5376730000000 1.0
C      1  0.5011160000000  0.4657640000000  0.4352130000000 1.0
C      1  0.4888880000000  0.5316920000000  0.5554450000000 1.0
C      1  0.4895720000000  0.4897820000000  0.4789990000000 1.0
C      1  0.5025000000000  0.4160970000000  0.5133580000000 1.0
C      1  0.4559200000000  0.5523450000000  0.5178860000000 1.0
C      1  0.5660350000000  0.4834520000000  0.4801880000000 1.0
C      1  0.5209550000000  0.4830490000000  0.5610500000000 1.0
END
