TITL C-2778423-5760-616 -0.00459763365271992 125000 -986.024818617469 0 0 173 (C1) n - 1
REM
REM in /home/nfs/bkarasulu/CARBON/AIRSS/Generating-Clusters/REBO/Only-C1/SD-CG/HFTN-CG
REM
REM
REM
REM
REM
REM ./C.cell (11c1c37f851c82e70ff6c80c92926a4b)
REM
REM compiler GCC version 9.2.1 20190827 (Red Hat 9.2.1-1)
REM options -cpp -mtune=generic -march=x86-64 -g -O0 -fpre-include=/usr/include/finclude/math-vector-fortran.h
REM seed 1191402218 -2114848044 1464806111 -414610278 -937610023 1882930988 -150186594 1875073497 -965578840 308209580 -1332661152 64826526 -1521284402 -112767493 -1647832255 -116023172 -358383979 -130309968 1602382854 1941690320 -1396245359 2001126539 661559435 2143544590 -32973971 -336632730 -155695193 -1143247110 1368783090 1237711368 -1819900372 784652690 -762677193
REM
CELL 1.54180   50.00000   50.00000   50.00000   90.00000   90.00000   90.00000
LATT -1
SFAC C  
C      1  0.4725170000000  0.5166980000000  0.4321460000000 1.0
C      1  0.5029090000000  0.4854130000000  0.5384120000000 1.0
C      1  0.5884610000000  0.4577290000000  0.5411600000000 1.0
C      1  0.5601630000000  0.5772810000000  0.4794520000000 1.0
C      1  0.5157550000000  0.5282180000000  0.5877340000000 1.0
C      1  0.4290620000000  0.5222540000000  0.4472020000000 1.0
C      1  0.5335000000000  0.5932170000000  0.5580160000000 1.0
C      1  0.5054500000000  0.4082960000000  0.4486500000000 1.0
C      1  0.4956620000000  0.4730040000000  0.4391500000000 1.0
C      1  0.4017820000000  0.4779750000000  0.5166590000000 1.0
C      1  0.4401170000000  0.4668700000000  0.5160190000000 1.0
C      1  0.5305530000000  0.5760830000000  0.5220980000000 1.0
C      1  0.5409160000000  0.5371100000000  0.4066110000000 1.0
C      1  0.4832780000000  0.5865030000000  0.4968260000000 1.0
C      1  0.5268930000000  0.4969960000000  0.4405030000000 1.0
C      1  0.5785800000000  0.4882390000000  0.5400760000000 1.0
C      1  0.4584860000000  0.5950990000000  0.4591530000000 1.0
C      1  0.4900230000000  0.5476640000000  0.4772850000000 1.0
C      1  0.5322990000000  0.3981580000000  0.4762870000000 1.0
C      1  0.4779840000000  0.4222700000000  0.4334270000000 1.0
C      1  0.4546390000000  0.5622100000000  0.4193520000000 1.0
C      1  0.4628420000000  0.5736360000000  0.5378870000000 1.0
C      1  0.4599350000000  0.4822320000000  0.4164920000000 1.0
C      1  0.5162520000000  0.5229410000000  0.5190240000000 1.0
C      1  0.4645620000000  0.4774760000000  0.5452610000000 1.0
C      1  0.4657470000000  0.5061910000000  0.5592600000000 1.0
C      1  0.5229010000000  0.4498250000000  0.4056410000000 1.0
C      1  0.5191060000000  0.5359270000000  0.4399240000000 1.0
C      1  0.5643620000000  0.4857230000000  0.5027940000000 1.0
C      1  0.5447370000000  0.5014540000000  0.4828070000000 1.0
C      1  0.4379310000000  0.4216130000000  0.4752250000000 1.0
C      1  0.5374120000000  0.5291610000000  0.4944070000000 1.0
C      1  0.4047360000000  0.5303390000000  0.4976040000000 1.0
C      1  0.4949570000000  0.4173540000000  0.5336090000000 1.0
C      1  0.5528340000000  0.5381150000000  0.5233900000000 1.0
C      1  0.5137080000000  0.5081580000000  0.5607240000000 1.0
C      1  0.4687230000000  0.4122980000000  0.4635970000000 1.0
C      1  0.4559420000000  0.6021300000000  0.4895860000000 1.0
C      1  0.4279170000000  0.4865010000000  0.5902400000000 1.0
C      1  0.5232690000000  0.4409460000000  0.5979430000000 1.0
C      1  0.4555690000000  0.5337800000000  0.4096350000000 1.0
C      1  0.5598060000000  0.5192890000000  0.5810980000000 1.0
C      1  0.5531270000000  0.4198290000000  0.5369980000000 1.0
C      1  0.5310660000000  0.4830820000000  0.4097030000000 1.0
C      1  0.4821450000000  0.4718400000000  0.5710860000000 1.0
C      1  0.5697790000000  0.5666670000000  0.5275850000000 1.0
C      1  0.4203280000000  0.4708250000000  0.5432800000000 1.0
C      1  0.5064770000000  0.4731070000000  0.3884060000000 1.0
C      1  0.4782840000000  0.4786800000000  0.5156570000000 1.0
C      1  0.4512330000000  0.5949030000000  0.5191190000000 1.0
C      1  0.4707120000000  0.5303660000000  0.3831890000000 1.0
C      1  0.5838160000000  0.4254620000000  0.5436400000000 1.0
C      1  0.5297410000000  0.4799580000000  0.5673860000000 1.0
C      1  0.5583780000000  0.5891230000000  0.5074490000000 1.0
C      1  0.5239330000000  0.5444950000000  0.4729080000000 1.0
C      1  0.4959140000000  0.5157680000000  0.4817670000000 1.0
C      1  0.3946380000000  0.5084730000000  0.5196370000000 1.0
C      1  0.5149790000000  0.5589820000000  0.5391610000000 1.0
C      1  0.4367240000000  0.4345150000000  0.4443290000000 1.0
C      1  0.4752510000000  0.5387720000000  0.5613390000000 1.0
C      1  0.4334480000000  0.4856020000000  0.6167920000000 1.0
C      1  0.5526040000000  0.5005200000000  0.5558060000000 1.0
C      1  0.4921050000000  0.4917450000000  0.4108740000000 1.0
C      1  0.5192200000000  0.5654190000000  0.5723910000000 1.0
C      1  0.5877130000000  0.5505360000000  0.5060300000000 1.0
C      1  0.4851090000000  0.5731530000000  0.4209570000000 1.0
C      1  0.4071640000000  0.4649890000000  0.4919120000000 1.0
C      1  0.4230240000000  0.5109950000000  0.5757010000000 1.0
C      1  0.5233470000000  0.4564140000000  0.4380940000000 1.0
C      1  0.4250300000000  0.5788040000000  0.5262420000000 1.0
C      1  0.5889020000000  0.4665550000000  0.5082740000000 1.0
C      1  0.5719440000000  0.4862100000000  0.4314530000000 1.0
C      1  0.4861880000000  0.5515510000000  0.5329620000000 1.0
C      1  0.5096780000000  0.4575790000000  0.5572040000000 1.0
C      1  0.4526270000000  0.5705670000000  0.5680650000000 1.0
C      1  0.4398230000000  0.4142820000000  0.5084800000000 1.0
C      1  0.4653320000000  0.5279660000000  0.5923310000000 1.0
C      1  0.4949240000000  0.5936550000000  0.5250670000000 1.0
C      1  0.4887240000000  0.5962100000000  0.4462240000000 1.0
C      1  0.5164120000000  0.4669250000000  0.5143790000000 1.0
C      1  0.6009340000000  0.5285260000000  0.5170920000000 1.0
C      1  0.4656720000000  0.3945980000000  0.5192810000000 1.0
C      1  0.4783790000000  0.4403200000000  0.5771900000000 1.0
C      1  0.4968840000000  0.5044850000000  0.4515480000000 1.0
C      1  0.4542870000000  0.5051870000000  0.4763000000000 1.0
C      1  0.4382150000000  0.5408500000000  0.5762490000000 1.0
C      1  0.4280450000000  0.5509530000000  0.5451170000000 1.0
C      1  0.4945250000000  0.5225870000000  0.3843000000000 1.0
C      1  0.5722870000000  0.4594830000000  0.4200160000000 1.0
C      1  0.5811750000000  0.4331410000000  0.5104740000000 1.0
C      1  0.4957140000000  0.5572310000000  0.4482340000000 1.0
C      1  0.5472700000000  0.4342250000000  0.4836990000000 1.0
C      1  0.5159860000000  0.4971270000000  0.6004470000000 1.0
C      1  0.4848060000000  0.5001820000000  0.5871930000000 1.0
C      1  0.4679770000000  0.4474990000000  0.5116190000000 1.0
C      1  0.5190740000000  0.6025780000000  0.5034920000000 1.0
C      1  0.5887240000000  0.5170200000000  0.5383520000000 1.0
C      1  0.5011540000000  0.4400480000000  0.5118480000000 1.0
C      1  0.5520730000000  0.5177860000000  0.4454700000000 1.0
C      1  0.5879940000000  0.5276010000000  0.4311080000000 1.0
C      1  0.5185690000000  0.4121420000000  0.5550160000000 1.0
C      1  0.5774370000000  0.5540250000000  0.4801650000000 1.0
C      1  0.4370300000000  0.5079260000000  0.4168260000000 1.0
C      1  0.5930840000000  0.5017060000000  0.4533400000000 1.0
C      1  0.5630380000000  0.4508550000000  0.4605090000000 1.0
C      1  0.5598370000000  0.4828820000000  0.4631750000000 1.0
C      1  0.5563810000000  0.5679540000000  0.5588200000000 1.0
C      1  0.4986250000000  0.3920990000000  0.5105830000000 1.0
C      1  0.4936300000000  0.3930160000000  0.4768570000000 1.0
C      1  0.4286420000000  0.4633510000000  0.5729570000000 1.0
C      1  0.5120690000000  0.5193400000000  0.4109610000000 1.0
C      1  0.5706120000000  0.4456480000000  0.5679350000000 1.0
C      1  0.5190860000000  0.5820050000000  0.4390020000000 1.0
C      1  0.5084210000000  0.4247710000000  0.4189020000000 1.0
C      1  0.5411920000000  0.5000860000000  0.5237760000000 1.0
C      1  0.4197290000000  0.5687160000000  0.4661280000000 1.0
C      1  0.4525940000000  0.4469460000000  0.5552090000000 1.0
C      1  0.4343150000000  0.5819940000000  0.4387240000000 1.0
C      1  0.4344920000000  0.4673450000000  0.4484030000000 1.0
C      1  0.4944950000000  0.4724190000000  0.4816510000000 1.0
C      1  0.5910390000000  0.4753760000000  0.4751030000000 1.0
C      1  0.5374150000000  0.4460820000000  0.5456540000000 1.0
C      1  0.5769800000000  0.5305660000000  0.4625540000000 1.0
C      1  0.5299450000000  0.5321170000000  0.5476670000000 1.0
C      1  0.4566520000000  0.5616510000000  0.4526250000000 1.0
C      1  0.4340950000000  0.4541900000000  0.4787080000000 1.0
C      1  0.5361730000000  0.4220500000000  0.4538930000000 1.0
C      1  0.5691750000000  0.5366910000000  0.5539360000000 1.0
C      1  0.4333790000000  0.4364750000000  0.5281780000000 1.0
C      1  0.5069290000000  0.5935310000000  0.4748530000000 1.0
C      1  0.5158130000000  0.5590080000000  0.4141180000000 1.0
C      1  0.5537950000000  0.5061860000000  0.4133040000000 1.0
C      1  0.4510500000000  0.5361680000000  0.4698500000000 1.0
C      1  0.5206490000000  0.4655770000000  0.6082730000000 1.0
C      1  0.4653130000000  0.4169100000000  0.5450080000000 1.0
C      1  0.4298230000000  0.5426260000000  0.5120720000000 1.0
C      1  0.5417190000000  0.4287940000000  0.5740390000000 1.0
C      1  0.5508810000000  0.4689230000000  0.5342950000000 1.0
C      1  0.4592680000000  0.4488380000000  0.4232670000000 1.0
C      1  0.4997870000000  0.4430450000000  0.4673530000000 1.0
C      1  0.5026860000000  0.4263110000000  0.5811090000000 1.0
C      1  0.5159660000000  0.4937030000000  0.4925350000000 1.0
C      1  0.5891210000000  0.4413440000000  0.4784290000000 1.0
C      1  0.4113950000000  0.5403180000000  0.4669370000000 1.0
C      1  0.5488070000000  0.4898320000000  0.5938720000000 1.0
C      1  0.5332000000000  0.5736920000000  0.4671380000000 1.0
C      1  0.5530670000000  0.4140870000000  0.5055210000000 1.0
C      1  0.4726120000000  0.4565750000000  0.4525950000000 1.0
C      1  0.4426030000000  0.5203120000000  0.5424510000000 1.0
C      1  0.4389040000000  0.4940300000000  0.5036770000000 1.0
C      1  0.5408180000000  0.6086170000000  0.5291490000000 1.0
C      1  0.4167460000000  0.4924590000000  0.4389790000000 1.0
C      1  0.5733850000000  0.5408030000000  0.4117740000000 1.0
C      1  0.4999560000000  0.5935700000000  0.5522100000000 1.0
C      1  0.5289250000000  0.3991970000000  0.5247200000000 1.0
C      1  0.4030870000000  0.4839260000000  0.4665400000000 1.0
C      1  0.4629640000000  0.4722420000000  0.4811290000000 1.0
C      1  0.5095120000000  0.4214470000000  0.4861420000000 1.0
C      1  0.4147380000000  0.5032010000000  0.5447600000000 1.0
C      1  0.4925060000000  0.5417060000000  0.5972940000000 1.0
C      1  0.5431700000000  0.5467030000000  0.5824350000000 1.0
C      1  0.4834920000000  0.5277460000000  0.5111620000000 1.0
C      1  0.5251140000000  0.4637210000000  0.4682740000000 1.0
C      1  0.5674600000000  0.4668230000000  0.5884570000000 1.0
C      1  0.4642860000000  0.5596150000000  0.4915110000000 1.0
C      1  0.4328860000000  0.5698950000000  0.4941360000000 1.0
C      1  0.4149600000000  0.5034690000000  0.4860320000000 1.0
C      1  0.4557160000000  0.4925130000000  0.4479640000000 1.0
C      1  0.5521030000000  0.4405480000000  0.4313360000000 1.0
C      1  0.4541600000000  0.5206750000000  0.5130900000000 1.0
C      1  0.5420030000000  0.4636420000000  0.4952520000000 1.0
C      1  0.4710470000000  0.4189650000000  0.4965430000000 1.0
C      1  0.4861530000000  0.5699580000000  0.5698860000000 1.0
END
