TITL C-2778432-5617-634 0.00316092076368077 125000 -827.822944561063 0 0 141 (C1) n - 1
REM
REM in /home/nfs/bkarasulu/CARBON/AIRSS/Generating-Clusters/REBO/Only-C1/SD-CG/HFTN-CG
REM
REM
REM
REM
REM
REM ./C.cell (11c1c37f851c82e70ff6c80c92926a4b)
REM
REM compiler GCC version 9.2.1 20190827 (Red Hat 9.2.1-1)
REM options -cpp -mtune=generic -march=x86-64 -g -O0 -fpre-include=/usr/include/finclude/math-vector-fortran.h
REM seed 398025566 -1211058912 930276972 -1619815768 603406551 1694104187 1637531223 -1386328268 -155909835 1849422552 -253482603 391784939 1595838701 951368776 -1694138490 110127341 -703794006 -883315646 509380434 -446649047 2137801685 -886631216 649749194 -1486304663 1254204669 -48422815 -1950107445 -1330183893 -1573130145 1007200834 740538606 927676091 -1666314920
REM
CELL 1.54180   50.00000   50.00000   50.00000   90.00000   90.00000   90.00000
LATT -1
SFAC C  
C      1  0.4301360000000  0.4342000000000  0.4652730000000 1.0
C      1  0.5535820000000  0.4706760000000  0.4657910000000 1.0
C      1  0.5233900000000  0.4809110000000  0.3947740000000 1.0
C      1  0.4426510000000  0.4296910000000  0.5795790000000 1.0
C      1  0.5067400000000  0.5552600000000  0.5854610000000 1.0
C      1  0.4804230000000  0.4151990000000  0.5502250000000 1.0
C      1  0.5581010000000  0.4305970000000  0.4928780000000 1.0
C      1  0.4317330000000  0.5545390000000  0.4607860000000 1.0
C      1  0.5738510000000  0.5287450000000  0.5746860000000 1.0
C      1  0.4772190000000  0.4596290000000  0.4135840000000 1.0
C      1  0.4549710000000  0.5223730000000  0.4587420000000 1.0
C      1  0.4075470000000  0.5399770000000  0.4662110000000 1.0
C      1  0.5944100000000  0.4936030000000  0.5272160000000 1.0
C      1  0.4843280000000  0.4086030000000  0.5174700000000 1.0
C      1  0.4473310000000  0.4731610000000  0.4232080000000 1.0
C      1  0.4939890000000  0.5101610000000  0.4846290000000 1.0
C      1  0.4059850000000  0.4840150000000  0.4804230000000 1.0
C      1  0.5870700000000  0.5631530000000  0.4771710000000 1.0
C      1  0.5882640000000  0.5296780000000  0.4702320000000 1.0
C      1  0.5938280000000  0.4977450000000  0.4794270000000 1.0
C      1  0.4752390000000  0.4981100000000  0.4479090000000 1.0
C      1  0.5792800000000  0.5714700000000  0.5462540000000 1.0
C      1  0.4745560000000  0.5280560000000  0.5014630000000 1.0
C      1  0.5525110000000  0.5632650000000  0.5665760000000 1.0
C      1  0.5619650000000  0.4995430000000  0.4705990000000 1.0
C      1  0.4917320000000  0.4261810000000  0.4441610000000 1.0
C      1  0.4885450000000  0.4541990000000  0.5783880000000 1.0
C      1  0.4927860000000  0.5503910000000  0.4090350000000 1.0
C      1  0.4850470000000  0.4402080000000  0.4930280000000 1.0
C      1  0.5575830000000  0.5783220000000  0.4370550000000 1.0
C      1  0.5074880000000  0.5751690000000  0.4504030000000 1.0
C      1  0.4946200000000  0.5250820000000  0.4551690000000 1.0
C      1  0.5011850000000  0.5884000000000  0.4950320000000 1.0
C      1  0.5869440000000  0.5567440000000  0.5165680000000 1.0
C      1  0.4061220000000  0.5237550000000  0.4883790000000 1.0
C      1  0.5123800000000  0.4470390000000  0.5320900000000 1.0
C      1  0.4332310000000  0.5814730000000  0.5267340000000 1.0
C      1  0.5826250000000  0.5393710000000  0.5518100000000 1.0
C      1  0.5941770000000  0.4791230000000  0.5021670000000 1.0
C      1  0.5606810000000  0.4516510000000  0.4138300000000 1.0
C      1  0.5441610000000  0.5318080000000  0.4251490000000 1.0
C      1  0.4467480000000  0.5274740000000  0.4265710000000 1.0
C      1  0.4423340000000  0.4651900000000  0.4874090000000 1.0
C      1  0.5259620000000  0.4235090000000  0.5719200000000 1.0
C      1  0.4290660000000  0.5308870000000  0.5104730000000 1.0
C      1  0.4344760000000  0.4549580000000  0.5850130000000 1.0
C      1  0.4823330000000  0.4910150000000  0.4167440000000 1.0
C      1  0.5436600000000  0.5897710000000  0.4956960000000 1.0
C      1  0.4378270000000  0.4249430000000  0.5315130000000 1.0
C      1  0.4538610000000  0.5027230000000  0.4074330000000 1.0
C      1  0.4700570000000  0.4682850000000  0.5313860000000 1.0
C      1  0.5295670000000  0.5432190000000  0.5237950000000 1.0
C      1  0.5376930000000  0.4058710000000  0.5512440000000 1.0
C      1  0.4112730000000  0.4516760000000  0.4811350000000 1.0
C      1  0.4838040000000  0.5020390000000  0.5947040000000 1.0
C      1  0.5134640000000  0.5698830000000  0.4235010000000 1.0
C      1  0.5627520000000  0.5809670000000  0.4688330000000 1.0
C      1  0.4146770000000  0.5579910000000  0.5244740000000 1.0
C      1  0.5387870000000  0.5355220000000  0.4996650000000 1.0
C      1  0.5548460000000  0.4203230000000  0.5254690000000 1.0
C      1  0.5154000000000  0.4153750000000  0.5292760000000 1.0
C      1  0.5533450000000  0.4367840000000  0.4626520000000 1.0
C      1  0.5686870000000  0.4550160000000  0.4397580000000 1.0
C      1  0.5051730000000  0.4140610000000  0.4910580000000 1.0
C      1  0.5139450000000  0.5047700000000  0.5461380000000 1.0
C      1  0.4614830000000  0.4738120000000  0.4606060000000 1.0
C      1  0.5740330000000  0.5255760000000  0.4202300000000 1.0
C      1  0.5287200000000  0.5832560000000  0.4665270000000 1.0
C      1  0.5838430000000  0.5235290000000  0.5235890000000 1.0
C      1  0.4842870000000  0.5691760000000  0.5645780000000 1.0
C      1  0.5032500000000  0.4655730000000  0.5046740000000 1.0
C      1  0.5307730000000  0.5021290000000  0.5743360000000 1.0
C      1  0.5422420000000  0.4502570000000  0.5764760000000 1.0
C      1  0.4524060000000  0.4192380000000  0.5553370000000 1.0
C      1  0.5295210000000  0.4539340000000  0.4081340000000 1.0
C      1  0.5674170000000  0.4623140000000  0.5581850000000 1.0
C      1  0.5008400000000  0.4411670000000  0.4188060000000 1.0
C      1  0.5410490000000  0.5157900000000  0.4516930000000 1.0
C      1  0.5437100000000  0.4443820000000  0.5428590000000 1.0
C      1  0.4111500000000  0.5111210000000  0.5401910000000 1.0
C      1  0.4495320000000  0.5069050000000  0.4988220000000 1.0
C      1  0.5022110000000  0.5728850000000  0.5366240000000 1.0
C      1  0.4900930000000  0.5633110000000  0.4917950000000 1.0
C      1  0.5164640000000  0.4715010000000  0.5537130000000 1.0
C      1  0.5197900000000  0.4910460000000  0.4614210000000 1.0
C      1  0.4320800000000  0.4787530000000  0.5728760000000 1.0
C      1  0.5858230000000  0.4790470000000  0.5496880000000 1.0
C      1  0.6065620000000  0.5733200000000  0.4987120000000 1.0
C      1  0.5666060000000  0.5428370000000  0.4930970000000 1.0
C      1  0.4979230000000  0.4283730000000  0.5690710000000 1.0
C      1  0.5141590000000  0.4329400000000  0.4668460000000 1.0
C      1  0.4775990000000  0.4883950000000  0.5049700000000 1.0
C      1  0.4901870000000  0.5460570000000  0.5214110000000 1.0
C      1  0.4329780000000  0.4990860000000  0.5543180000000 1.0
C      1  0.4124430000000  0.5392310000000  0.5475610000000 1.0
C      1  0.4023970000000  0.4933140000000  0.4487640000000 1.0
C      1  0.5902100000000  0.5267670000000  0.4391990000000 1.0
C      1  0.5030510000000  0.5258510000000  0.3908340000000 1.0
C      1  0.4766910000000  0.4461370000000  0.4644220000000 1.0
C      1  0.4633630000000  0.5529210000000  0.4172190000000 1.0
C      1  0.5048840000000  0.5000900000000  0.3993830000000 1.0
C      1  0.4585990000000  0.5601990000000  0.4462720000000 1.0
C      1  0.5234070000000  0.4730580000000  0.5855910000000 1.0
C      1  0.4540500000000  0.5454640000000  0.4829000000000 1.0
C      1  0.4743140000000  0.4705000000000  0.5586070000000 1.0
C      1  0.5112800000000  0.5305370000000  0.4295820000000 1.0
C      1  0.4918270000000  0.5242960000000  0.5463720000000 1.0
C      1  0.4312280000000  0.5460010000000  0.5688620000000 1.0
C      1  0.5344400000000  0.4087010000000  0.5018480000000 1.0
C      1  0.4339050000000  0.5004990000000  0.4716420000000 1.0
C      1  0.5535530000000  0.4800760000000  0.5142270000000 1.0
C      1  0.4847680000000  0.5318140000000  0.5782240000000 1.0
C      1  0.5333240000000  0.5588620000000  0.5862980000000 1.0
C      1  0.5297470000000  0.4365740000000  0.4376420000000 1.0
C      1  0.4419280000000  0.4504780000000  0.4454170000000 1.0
C      1  0.5255830000000  0.4835440000000  0.5231130000000 1.0
C      1  0.4595670000000  0.4497810000000  0.5089900000000 1.0
C      1  0.4861030000000  0.5557810000000  0.4618230000000 1.0
C      1  0.4220040000000  0.4483890000000  0.5296260000000 1.0
C      1  0.4572710000000  0.5502410000000  0.5740360000000 1.0
C      1  0.4542910000000  0.5618280000000  0.5084270000000 1.0
C      1  0.5639410000000  0.5051460000000  0.5041010000000 1.0
C      1  0.5248320000000  0.5188560000000  0.4805330000000 1.0
C      1  0.5406720000000  0.5628570000000  0.4220980000000 1.0
C      1  0.5575150000000  0.5831240000000  0.5226000000000 1.0
C      1  0.4059730000000  0.4985020000000  0.5113870000000 1.0
C      1  0.5220320000000  0.4629660000000  0.4763900000000 1.0
C      1  0.4305870000000  0.4992370000000  0.4375050000000 1.0
C      1  0.4588750000000  0.5178880000000  0.5506040000000 1.0
C      1  0.5187180000000  0.5904300000000  0.5191240000000 1.0
C      1  0.4500120000000  0.5406530000000  0.5340060000000 1.0
C      1  0.4626430000000  0.5712970000000  0.5405600000000 1.0
C      1  0.4231060000000  0.4705020000000  0.5137070000000 1.0
C      1  0.4698050000000  0.4959360000000  0.5693580000000 1.0
C      1  0.4552960000000  0.4169480000000  0.5059690000000 1.0
C      1  0.5410520000000  0.5637340000000  0.5387970000000 1.0
C      1  0.4685370000000  0.4075260000000  0.4581480000000 1.0
C      1  0.4962880000000  0.4758990000000  0.6006530000000 1.0
C      1  0.5516570000000  0.5160980000000  0.5827790000000 1.0
C      1  0.5709660000000  0.4577680000000  0.5040280000000 1.0
C      1  0.4483790000000  0.4144620000000  0.4757600000000 1.0
END
