TITL C-2778436-5916-289 -0.00122138631596446 125000 -844.133808090992 0 0 141 (C1) n - 1
REM
REM in /home/nfs/bkarasulu/CARBON/AIRSS/Generating-Clusters/REBO/Only-C1/SD-CG/HFTN-CG
REM
REM
REM
REM
REM
REM ./C.cell (11c1c37f851c82e70ff6c80c92926a4b)
REM
REM compiler GCC version 9.2.1 20190827 (Red Hat 9.2.1-1)
REM options -cpp -mtune=generic -march=x86-64 -g -O0 -fpre-include=/usr/include/finclude/math-vector-fortran.h
REM seed -619599983 1068093045 -1496109558 1232314080 1544258685 565635705 1373626844 -209583739 763236829 1616833188 1881547928 -1790095836 1601053067 2022775228 -420459925 748242566 1574733375 1964155925 -226347907 -98481013 872761778 1628457549 -2005879337 230143930 -1307195045 -1026793313 406936950 -2058108716 -1830039013 389571592 -58685871 -232230497 1954882322
REM
CELL 1.54180   50.00000   50.00000   50.00000   90.00000   90.00000   90.00000
LATT -1
SFAC C  
C      1  0.6000290000000  0.5220890000000  0.4907890000000 1.0
C      1  0.5011360000000  0.6164540000000  0.5415760000000 1.0
C      1  0.4391950000000  0.5278160000000  0.5160270000000 1.0
C      1  0.5239040000000  0.5510360000000  0.4044890000000 1.0
C      1  0.4699040000000  0.5571450000000  0.4369920000000 1.0
C      1  0.5306780000000  0.5311710000000  0.4678310000000 1.0
C      1  0.5932060000000  0.4820850000000  0.4562360000000 1.0
C      1  0.4802220000000  0.5540240000000  0.5866300000000 1.0
C      1  0.5089630000000  0.5450010000000  0.5862510000000 1.0
C      1  0.4646550000000  0.4892130000000  0.5774190000000 1.0
C      1  0.4599000000000  0.5074850000000  0.5287650000000 1.0
C      1  0.4675990000000  0.4084180000000  0.5342120000000 1.0
C      1  0.4485830000000  0.5722720000000  0.5359680000000 1.0
C      1  0.4657540000000  0.5380460000000  0.5537930000000 1.0
C      1  0.4979380000000  0.4158000000000  0.4296210000000 1.0
C      1  0.4752880000000  0.5104890000000  0.4184660000000 1.0
C      1  0.6011970000000  0.4998890000000  0.5365320000000 1.0
C      1  0.5089000000000  0.4854630000000  0.5032730000000 1.0
C      1  0.5395750000000  0.4115450000000  0.5362490000000 1.0
C      1  0.5782570000000  0.4574730000000  0.4667140000000 1.0
C      1  0.4715610000000  0.4200870000000  0.4392700000000 1.0
C      1  0.6093400000000  0.4910750000000  0.4838480000000 1.0
C      1  0.5798270000000  0.5464940000000  0.5335030000000 1.0
C      1  0.5555890000000  0.4847270000000  0.5778800000000 1.0
C      1  0.5197160000000  0.4239770000000  0.4463210000000 1.0
C      1  0.5576310000000  0.4235420000000  0.5172620000000 1.0
C      1  0.5388320000000  0.4583640000000  0.5803280000000 1.0
C      1  0.4421560000000  0.5254170000000  0.4848170000000 1.0
C      1  0.5170980000000  0.3995260000000  0.5236030000000 1.0
C      1  0.4508560000000  0.4668050000000  0.4337510000000 1.0
C      1  0.5436450000000  0.5311500000000  0.4070010000000 1.0
C      1  0.4350270000000  0.4698760000000  0.5507030000000 1.0
C      1  0.4949040000000  0.5886310000000  0.5516660000000 1.0
C      1  0.4994110000000  0.4313590000000  0.5603580000000 1.0
C      1  0.4314750000000  0.5500380000000  0.5370480000000 1.0
C      1  0.4998410000000  0.5617350000000  0.5104560000000 1.0
C      1  0.5568310000000  0.4668740000000  0.4242500000000 1.0
C      1  0.3772100000000  0.4898080000000  0.4943360000000 1.0
C      1  0.4860510000000  0.4049630000000  0.4840270000000 1.0
C      1  0.5421300000000  0.4493960000000  0.5039160000000 1.0
C      1  0.5218780000000  0.4521210000000  0.4528890000000 1.0
C      1  0.5488750000000  0.4944900000000  0.5454710000000 1.0
C      1  0.5720540000000  0.5719150000000  0.5157920000000 1.0
C      1  0.5582640000000  0.5323190000000  0.5557550000000 1.0
C      1  0.4104610000000  0.4526650000000  0.4712960000000 1.0
C      1  0.5337270000000  0.4113800000000  0.4688190000000 1.0
C      1  0.4559410000000  0.4726540000000  0.4907830000000 1.0
C      1  0.4713540000000  0.4277120000000  0.5558800000000 1.0
C      1  0.4781790000000  0.4771630000000  0.4249420000000 1.0
C      1  0.4896220000000  0.6409820000000  0.5381670000000 1.0
C      1  0.5582870000000  0.5376710000000  0.4837550000000 1.0
C      1  0.5599000000000  0.4224250000000  0.4658380000000 1.0
C      1  0.5794870000000  0.4987510000000  0.5600400000000 1.0
C      1  0.5014720000000  0.5588380000000  0.4290170000000 1.0
C      1  0.4483030000000  0.4398710000000  0.4425700000000 1.0
C      1  0.4118280000000  0.4791740000000  0.4622230000000 1.0
C      1  0.5241300000000  0.5147300000000  0.5445690000000 1.0
C      1  0.5078530000000  0.4867600000000  0.5346090000000 1.0
C      1  0.4435620000000  0.5767660000000  0.4830180000000 1.0
C      1  0.5741230000000  0.5620230000000  0.4897760000000 1.0
C      1  0.4365020000000  0.4906100000000  0.4479080000000 1.0
C      1  0.3806870000000  0.4621220000000  0.5086440000000 1.0
C      1  0.5678130000000  0.5332650000000  0.4484990000000 1.0
C      1  0.5147350000000  0.4376540000000  0.5118680000000 1.0
C      1  0.5871440000000  0.4892700000000  0.5090730000000 1.0
C      1  0.4909150000000  0.5562810000000  0.4789710000000 1.0
C      1  0.5376050000000  0.4872610000000  0.4924470000000 1.0
C      1  0.5092010000000  0.5742090000000  0.4565540000000 1.0
C      1  0.4095150000000  0.5176340000000  0.5264500000000 1.0
C      1  0.4778150000000  0.5206380000000  0.5805050000000 1.0
C      1  0.4815290000000  0.4669710000000  0.5856290000000 1.0
C      1  0.5061990000000  0.4870290000000  0.4105740000000 1.0
C      1  0.5864540000000  0.4695960000000  0.5438890000000 1.0
C      1  0.5626690000000  0.5170450000000  0.4238970000000 1.0
C      1  0.5287140000000  0.5578890000000  0.5143450000000 1.0
C      1  0.4455860000000  0.5105980000000  0.5597980000000 1.0
C      1  0.4933650000000  0.4581060000000  0.5031440000000 1.0
C      1  0.5800100000000  0.4577370000000  0.5130440000000 1.0
C      1  0.4625490000000  0.5016600000000  0.4970460000000 1.0
C      1  0.5499150000000  0.5352130000000  0.5226860000000 1.0
C      1  0.5222010000000  0.5187910000000  0.5874640000000 1.0
C      1  0.5184630000000  0.5320630000000  0.4388100000000 1.0
C      1  0.5237070000000  0.4998240000000  0.4441180000000 1.0
C      1  0.3895720000000  0.4907850000000  0.5247440000000 1.0
C      1  0.5801610000000  0.5099430000000  0.4658450000000 1.0
C      1  0.5769490000000  0.4343600000000  0.4916790000000 1.0
C      1  0.4779530000000  0.4527390000000  0.4742960000000 1.0
C      1  0.5585590000000  0.4527270000000  0.5539740000000 1.0
C      1  0.5489000000000  0.5169730000000  0.5783050000000 1.0
C      1  0.5054360000000  0.5234570000000  0.5192410000000 1.0
C      1  0.4710420000000  0.5715740000000  0.5592110000000 1.0
C      1  0.4852700000000  0.5933180000000  0.4651040000000 1.0
C      1  0.5451130000000  0.4601460000000  0.4740750000000 1.0
C      1  0.4575000000000  0.5304540000000  0.4256870000000 1.0
C      1  0.4506390000000  0.5837490000000  0.5100170000000 1.0
C      1  0.5744950000000  0.4899110000000  0.4288940000000 1.0
C      1  0.4548410000000  0.4216770000000  0.5112600000000 1.0
C      1  0.4065740000000  0.4176320000000  0.5019350000000 1.0
C      1  0.3945100000000  0.4427340000000  0.4939430000000 1.0
C      1  0.5032010000000  0.4986430000000  0.5745990000000 1.0
C      1  0.5478290000000  0.5034260000000  0.4660740000000 1.0
C      1  0.5104750000000  0.4554620000000  0.5406410000000 1.0
C      1  0.4943690000000  0.4958050000000  0.4563790000000 1.0
C      1  0.4909220000000  0.3915270000000  0.5320270000000 1.0
C      1  0.5288580000000  0.6019330000000  0.5358380000000 1.0
C      1  0.4915400000000  0.5042330000000  0.4870560000000 1.0
C      1  0.4647070000000  0.5074120000000  0.4575420000000 1.0
C      1  0.4812500000000  0.4974670000000  0.5482520000000 1.0
C      1  0.5586110000000  0.5618990000000  0.4519860000000 1.0
C      1  0.4524060000000  0.4495780000000  0.5567430000000 1.0
C      1  0.5604060000000  0.5094740000000  0.5033290000000 1.0
C      1  0.5209840000000  0.5727760000000  0.5505470000000 1.0
C      1  0.4835010000000  0.5431950000000  0.5290400000000 1.0
C      1  0.5451690000000  0.5818250000000  0.5202290000000 1.0
C      1  0.3951320000000  0.4975120000000  0.4744770000000 1.0
C      1  0.5080180000000  0.5304940000000  0.4872960000000 1.0
C      1  0.4325000000000  0.4342380000000  0.4661850000000 1.0
C      1  0.4337340000000  0.5221060000000  0.4372990000000 1.0
C      1  0.5392920000000  0.5760530000000  0.4581910000000 1.0
C      1  0.4613590000000  0.5793780000000  0.4610030000000 1.0
C      1  0.4200870000000  0.5393550000000  0.4546340000000 1.0
C      1  0.5335410000000  0.4303720000000  0.5612200000000 1.0
C      1  0.4728160000000  0.4234340000000  0.4693330000000 1.0
C      1  0.5305000000000  0.4762250000000  0.4223970000000 1.0
C      1  0.5993160000000  0.5267870000000  0.5195370000000 1.0
C      1  0.4045120000000  0.5433080000000  0.5045700000000 1.0
C      1  0.5151030000000  0.4095640000000  0.4937880000000 1.0
C      1  0.4623720000000  0.4491130000000  0.5107270000000 1.0
C      1  0.5508430000000  0.4702050000000  0.5261160000000 1.0
C      1  0.4785730000000  0.6645200000000  0.5348960000000 1.0
C      1  0.4341370000000  0.4160300000000  0.4912660000000 1.0
C      1  0.4180200000000  0.4881270000000  0.5415620000000 1.0
C      1  0.5624370000000  0.4440110000000  0.4418530000000 1.0
C      1  0.4086230000000  0.5223380000000  0.4793110000000 1.0
C      1  0.4264400000000  0.5361310000000  0.5606770000000 1.0
C      1  0.4944090000000  0.4651190000000  0.4523470000000 1.0
C      1  0.4208100000000  0.5598610000000  0.4799300000000 1.0
C      1  0.5207770000000  0.5457750000000  0.5581350000000 1.0
C      1  0.5095630000000  0.4673320000000  0.5728350000000 1.0
C      1  0.5043810000000  0.5173400000000  0.4136160000000 1.0
C      1  0.4643570000000  0.5398030000000  0.4655630000000 1.0
END
