TITL C-2778423-5760-613 0.0130105472588727 125000 -236.659460276106 0 0 42 (C1) n - 1
REM
REM in /home/nfs/bkarasulu/CARBON/AIRSS/Generating-Clusters/REBO/Only-C1/SD-CG/HFTN-CG
REM
REM
REM
REM
REM
REM ./C.cell (11c1c37f851c82e70ff6c80c92926a4b)
REM
REM compiler GCC version 9.2.1 20190827 (Red Hat 9.2.1-1)
REM options -cpp -mtune=generic -march=x86-64 -g -O0 -fpre-include=/usr/include/finclude/math-vector-fortran.h
REM seed 444145985 1683493056 -1099429523 -1373796272 2121151772 2139249860 -777884347 760224613 -54815832 198660691 -558346885 1765882935 2072022901 430989209 252392557 1754455705 230208807 1935581593 1778695193 25544826 -2055361386 750078230 -615482884 258905569 -1052689964 -237155216 781137155 -421851759 -871292977 -2094563244 -50030693 -678534575 419999621
REM
CELL 1.54180   50.00000   50.00000   50.00000   90.00000   90.00000   90.00000
LATT -1
SFAC C  
C      1  0.4761000000000  0.4403980000000  0.5113260000000 1.0
C      1  0.5389650000000  0.4487070000000  0.5254070000000 1.0
C      1  0.4169120000000  0.5063200000000  0.4606640000000 1.0
C      1  0.5485650000000  0.5331840000000  0.5613450000000 1.0
C      1  0.4966270000000  0.4496680000000  0.4683340000000 1.0
C      1  0.5435140000000  0.4529250000000  0.4726200000000 1.0
C      1  0.5369380000000  0.5664330000000  0.4946510000000 1.0
C      1  0.5222880000000  0.5418110000000  0.5626100000000 1.0
C      1  0.5128240000000  0.5046370000000  0.4504060000000 1.0
C      1  0.4922040000000  0.4775060000000  0.4510040000000 1.0
C      1  0.4763280000000  0.4852820000000  0.5271860000000 1.0
C      1  0.5352590000000  0.5228930000000  0.4682140000000 1.0
C      1  0.4344990000000  0.5345160000000  0.5091590000000 1.0
C      1  0.4685770000000  0.4151070000000  0.5173750000000 1.0
C      1  0.4988470000000  0.4478110000000  0.4955070000000 1.0
C      1  0.5004140000000  0.5086930000000  0.4878200000000 1.0
C      1  0.5316780000000  0.5205880000000  0.5187560000000 1.0
C      1  0.4751860000000  0.5586950000000  0.4963130000000 1.0
C      1  0.4943020000000  0.5602830000000  0.4766310000000 1.0
C      1  0.4524180000000  0.5553970000000  0.5180350000000 1.0
C      1  0.5257950000000  0.4739440000000  0.4564710000000 1.0
C      1  0.5186490000000  0.4674410000000  0.5080530000000 1.0
C      1  0.5689800000000  0.5083160000000  0.5116800000000 1.0
C      1  0.5565710000000  0.5210110000000  0.5370070000000 1.0
C      1  0.5012300000000  0.4777970000000  0.5424230000000 1.0
C      1  0.4812210000000  0.5392220000000  0.5238130000000 1.0
C      1  0.5248150000000  0.4887350000000  0.4858030000000 1.0
C      1  0.5183030000000  0.4551100000000  0.5466900000000 1.0
C      1  0.4487070000000  0.5135360000000  0.4976260000000 1.0
C      1  0.4479850000000  0.4603170000000  0.4680640000000 1.0
C      1  0.4626460000000  0.4817400000000  0.4535630000000 1.0
C      1  0.5353430000000  0.5382740000000  0.4966110000000 1.0
C      1  0.5152480000000  0.4982480000000  0.5232830000000 1.0
C      1  0.4779320000000  0.5104140000000  0.5094270000000 1.0
C      1  0.5158390000000  0.5782260000000  0.4812240000000 1.0
C      1  0.5536520000000  0.5036170000000  0.4895240000000 1.0
C      1  0.5027120000000  0.5333730000000  0.4659200000000 1.0
C      1  0.4601490000000  0.4641810000000  0.5163800000000 1.0
C      1  0.5001150000000  0.5425900000000  0.5472870000000 1.0
C      1  0.4415320000000  0.4697760000000  0.4952610000000 1.0
C      1  0.4406370000000  0.4990290000000  0.4728760000000 1.0
C      1  0.5494950000000  0.4442490000000  0.4976510000000 1.0
END
