TITL C-2778426-5645-75 -0.00155047293488844 125000 -872.957837604185 0 0 153 (C1) n - 1
REM
REM in /home/nfs/bkarasulu/CARBON/AIRSS/Generating-Clusters/REBO/Only-C1/SD-CG/HFTN-CG
REM
REM
REM
REM
REM
REM ./C.cell (11c1c37f851c82e70ff6c80c92926a4b)
REM
REM compiler GCC version 9.2.1 20190827 (Red Hat 9.2.1-1)
REM options -cpp -mtune=generic -march=x86-64 -g -O0 -fpre-include=/usr/include/finclude/math-vector-fortran.h
REM seed 1755693912 -863520239 -1792595409 -372406417 -1277855857 1855959840 -1253575018 978456826 -642618445 -615916229 1661862204 -833694416 -682518917 1305968072 1316842130 -1672269858 49501030 6495690 -178563826 314065109 -1579471648 788158055 -388258770 -1372757795 1524126293 -1625707398 -1135532111 272913838 -1440887812 1030937764 1333489915 -1360996428 2119770705
REM
CELL 1.54180   50.00000   50.00000   50.00000   90.00000   90.00000   90.00000
LATT -1
SFAC C  
C      1  0.4299800000000  0.4241180000000  0.5382940000000 1.0
C      1  0.5547370000000  0.4770350000000  0.4374430000000 1.0
C      1  0.5598290000000  0.4602410000000  0.4756460000000 1.0
C      1  0.4887690000000  0.5598760000000  0.4270440000000 1.0
C      1  0.4731660000000  0.4940200000000  0.4806310000000 1.0
C      1  0.5843310000000  0.4918140000000  0.4387200000000 1.0
C      1  0.4787300000000  0.4386100000000  0.5898150000000 1.0
C      1  0.4687910000000  0.4751390000000  0.5155980000000 1.0
C      1  0.5128280000000  0.4387710000000  0.4100500000000 1.0
C      1  0.5455040000000  0.4693100000000  0.5512860000000 1.0
C      1  0.4892150000000  0.5492950000000  0.5850050000000 1.0
C      1  0.5446170000000  0.4848600000000  0.4929450000000 1.0
C      1  0.4122420000000  0.4515940000000  0.5342060000000 1.0
C      1  0.5958580000000  0.5344710000000  0.4664000000000 1.0
C      1  0.5184100000000  0.4977090000000  0.4848080000000 1.0
C      1  0.4679200000000  0.5084170000000  0.4239150000000 1.0
C      1  0.5375560000000  0.4642040000000  0.5840470000000 1.0
C      1  0.4762060000000  0.5758300000000  0.4879080000000 1.0
C      1  0.5328280000000  0.4660140000000  0.4153710000000 1.0
C      1  0.4769810000000  0.4290940000000  0.5579260000000 1.0
C      1  0.5379360000000  0.4099400000000  0.5651800000000 1.0
C      1  0.4497810000000  0.4277180000000  0.5037400000000 1.0
C      1  0.4369460000000  0.5055970000000  0.4346150000000 1.0
C      1  0.4407340000000  0.5647170000000  0.4732440000000 1.0
C      1  0.4744310000000  0.5422370000000  0.5207570000000 1.0
C      1  0.5672690000000  0.5058820000000  0.4966310000000 1.0
C      1  0.4194150000000  0.5435510000000  0.4600110000000 1.0
C      1  0.5188370000000  0.4139190000000  0.4585000000000 1.0
C      1  0.4012560000000  0.5215670000000  0.5316840000000 1.0
C      1  0.4288440000000  0.5310870000000  0.5747170000000 1.0
C      1  0.4590730000000  0.4179460000000  0.5349790000000 1.0
C      1  0.5048420000000  0.5738900000000  0.5673230000000 1.0
C      1  0.4503020000000  0.4502820000000  0.5795240000000 1.0
C      1  0.4499990000000  0.5507650000000  0.4255010000000 1.0
C      1  0.5901760000000  0.5248040000000  0.5233850000000 1.0
C      1  0.4637040000000  0.5665100000000  0.4494830000000 1.0
C      1  0.4296210000000  0.5335270000000  0.4357940000000 1.0
C      1  0.5006660000000  0.4645520000000  0.3919990000000 1.0
C      1  0.5750440000000  0.5004300000000  0.5534990000000 1.0
C      1  0.4850690000000  0.5948470000000  0.4675740000000 1.0
C      1  0.6072810000000  0.5404130000000  0.4937690000000 1.0
C      1  0.5629650000000  0.5285230000000  0.5831990000000 1.0
C      1  0.4275250000000  0.4623380000000  0.4733350000000 1.0
C      1  0.5046960000000  0.4714810000000  0.4309240000000 1.0
C      1  0.4265020000000  0.4535400000000  0.5651590000000 1.0
C      1  0.5750550000000  0.5600910000000  0.5467840000000 1.0
C      1  0.4776880000000  0.5360830000000  0.3794280000000 1.0
C      1  0.4501860000000  0.5458710000000  0.5443590000000 1.0
C      1  0.5658670000000  0.5080340000000  0.4148330000000 1.0
C      1  0.5391280000000  0.4671010000000  0.5193390000000 1.0
C      1  0.4566750000000  0.5072400000000  0.5383630000000 1.0
C      1  0.5163920000000  0.4081420000000  0.5028620000000 1.0
C      1  0.5152340000000  0.4322520000000  0.5781340000000 1.0
C      1  0.5418140000000  0.5902160000000  0.5122390000000 1.0
C      1  0.4219090000000  0.5044430000000  0.4957780000000 1.0
C      1  0.5717720000000  0.4484130000000  0.5445740000000 1.0
C      1  0.5179300000000  0.5294400000000  0.4813050000000 1.0
C      1  0.4729590000000  0.4756260000000  0.5776140000000 1.0
C      1  0.3936630000000  0.4910480000000  0.4884020000000 1.0
C      1  0.4824750000000  0.4620170000000  0.4877440000000 1.0
C      1  0.5324870000000  0.4278810000000  0.4349070000000 1.0
C      1  0.4993960000000  0.5770310000000  0.5128970000000 1.0
C      1  0.5868750000000  0.4626510000000  0.5195830000000 1.0
C      1  0.5399200000000  0.4336790000000  0.4755160000000 1.0
C      1  0.5953820000000  0.5161220000000  0.5635390000000 1.0
C      1  0.5137520000000  0.4526960000000  0.4647790000000 1.0
C      1  0.5215770000000  0.4922070000000  0.5785630000000 1.0
C      1  0.4952230000000  0.4949140000000  0.5061100000000 1.0
C      1  0.5053110000000  0.4593680000000  0.5945940000000 1.0
C      1  0.4396220000000  0.4365440000000  0.4301310000000 1.0
C      1  0.5665980000000  0.5726020000000  0.4963660000000 1.0
C      1  0.4682370000000  0.4321630000000  0.4479760000000 1.0
C      1  0.5540660000000  0.5322690000000  0.5025040000000 1.0
C      1  0.4943770000000  0.4912960000000  0.5994280000000 1.0
C      1  0.4459380000000  0.5160240000000  0.5124620000000 1.0
C      1  0.4280040000000  0.4491380000000  0.5050980000000 1.0
C      1  0.4850730000000  0.4880260000000  0.4113340000000 1.0
C      1  0.4200020000000  0.4851530000000  0.5619590000000 1.0
C      1  0.4223760000000  0.5478170000000  0.5389790000000 1.0
C      1  0.5580310000000  0.5643890000000  0.4395230000000 1.0
C      1  0.3660260000000  0.4641080000000  0.5484270000000 1.0
C      1  0.4412790000000  0.4785200000000  0.4997250000000 1.0
C      1  0.4981710000000  0.5250690000000  0.5970610000000 1.0
C      1  0.5215730000000  0.5821370000000  0.5383990000000 1.0
C      1  0.4949650000000  0.4406720000000  0.4390930000000 1.0
C      1  0.5252490000000  0.4434150000000  0.5483110000000 1.0
C      1  0.6088860000000  0.5073840000000  0.5019580000000 1.0
C      1  0.4906220000000  0.5552280000000  0.5451660000000 1.0
C      1  0.5482060000000  0.4895900000000  0.3976560000000 1.0
C      1  0.5614410000000  0.4475080000000  0.5060270000000 1.0
C      1  0.5088340000000  0.5290120000000  0.5568920000000 1.0
C      1  0.3884490000000  0.4701810000000  0.5333780000000 1.0
C      1  0.4945260000000  0.4094940000000  0.4787140000000 1.0
C      1  0.5291400000000  0.5428720000000  0.5726400000000 1.0
C      1  0.5109680000000  0.4850240000000  0.4592550000000 1.0
C      1  0.5653120000000  0.5362860000000  0.4544880000000 1.0
C      1  0.5866230000000  0.5575620000000  0.5147930000000 1.0
C      1  0.4136170000000  0.5134390000000  0.5601190000000 1.0
C      1  0.5048810000000  0.4093620000000  0.5563600000000 1.0
C      1  0.4345350000000  0.5426030000000  0.4983050000000 1.0
C      1  0.4728850000000  0.5366730000000  0.4090310000000 1.0
C      1  0.4370490000000  0.4344890000000  0.4616010000000 1.0
C      1  0.5559830000000  0.4378470000000  0.5730070000000 1.0
C      1  0.5855530000000  0.5433020000000  0.5701860000000 1.0
C      1  0.3942630000000  0.4818260000000  0.4627980000000 1.0
C      1  0.4756850000000  0.5154060000000  0.4563880000000 1.0
C      1  0.5219820000000  0.5565480000000  0.5078930000000 1.0
C      1  0.5147270000000  0.4954330000000  0.3957560000000 1.0
C      1  0.5547750000000  0.4436940000000  0.4398600000000 1.0
C      1  0.4768420000000  0.4071600000000  0.5079310000000 1.0
C      1  0.5603490000000  0.5867190000000  0.4651720000000 1.0
C      1  0.4942300000000  0.4919550000000  0.5599100000000 1.0
C      1  0.5517000000000  0.5504030000000  0.4780630000000 1.0
C      1  0.4756670000000  0.5456490000000  0.4720570000000 1.0
C      1  0.4458990000000  0.5792340000000  0.5036200000000 1.0
C      1  0.5038890000000  0.4503020000000  0.5276880000000 1.0
C      1  0.4700390000000  0.4603440000000  0.5463340000000 1.0
C      1  0.5225440000000  0.5555440000000  0.4235250000000 1.0
C      1  0.5269160000000  0.5154840000000  0.4192190000000 1.0
C      1  0.5134300000000  0.4602720000000  0.4979480000000 1.0
C      1  0.4772980000000  0.5199880000000  0.5579790000000 1.0
C      1  0.5229490000000  0.5086110000000  0.5379790000000 1.0
C      1  0.5137310000000  0.5382150000000  0.4492510000000 1.0
C      1  0.5421960000000  0.6014710000000  0.4841900000000 1.0
C      1  0.4012790000000  0.5432360000000  0.5062280000000 1.0
C      1  0.4598950000000  0.5423450000000  0.5745010000000 1.0
C      1  0.5851500000000  0.5053750000000  0.4699010000000 1.0
C      1  0.3906550000000  0.4943530000000  0.5184210000000 1.0
C      1  0.4718290000000  0.4348660000000  0.4801200000000 1.0
C      1  0.5048740000000  0.5803760000000  0.4490550000000 1.0
C      1  0.4174270000000  0.5711590000000  0.5178560000000 1.0
C      1  0.5497100000000  0.5102990000000  0.4444810000000 1.0
C      1  0.5460120000000  0.4183450000000  0.5051090000000 1.0
C      1  0.4044010000000  0.5277650000000  0.4781520000000 1.0
C      1  0.4693490000000  0.5752860000000  0.5269050000000 1.0
C      1  0.6029660000000  0.4800860000000  0.4951780000000 1.0
C      1  0.5450820000000  0.5073690000000  0.5634750000000 1.0
C      1  0.4254610000000  0.4585630000000  0.4219550000000 1.0
C      1  0.4221870000000  0.4804320000000  0.4448770000000 1.0
C      1  0.4715550000000  0.5250110000000  0.4948310000000 1.0
C      1  0.5335510000000  0.5861060000000  0.4337480000000 1.0
C      1  0.5516300000000  0.5391120000000  0.4171520000000 1.0
C      1  0.5037950000000  0.5099760000000  0.4411620000000 1.0
C      1  0.5426940000000  0.5638100000000  0.5571440000000 1.0
C      1  0.5502060000000  0.4235740000000  0.5363310000000 1.0
C      1  0.5788680000000  0.4930210000000  0.5240360000000 1.0
C      1  0.5005270000000  0.4191480000000  0.5274420000000 1.0
C      1  0.5487650000000  0.5535510000000  0.5265870000000 1.0
C      1  0.5042910000000  0.4814500000000  0.5326980000000 1.0
C      1  0.5230150000000  0.5615070000000  0.4700680000000 1.0
C      1  0.5250050000000  0.5240900000000  0.5139290000000 1.0
C      1  0.4470650000000  0.4828460000000  0.5481250000000 1.0
C      1  0.5864690000000  0.4724350000000  0.4667880000000 1.0
END
