TITL C-2778430-5657-341 0.00144038026141615 125000 -236.127994150183 0 0 42 (C1) n - 1
REM
REM in /home/nfs/bkarasulu/CARBON/AIRSS/Generating-Clusters/REBO/Only-C1/SD-CG/HFTN-CG
REM
REM
REM
REM
REM
REM ./C.cell (11c1c37f851c82e70ff6c80c92926a4b)
REM
REM compiler GCC version 9.2.1 20190827 (Red Hat 9.2.1-1)
REM options -cpp -mtune=generic -march=x86-64 -g -O0 -fpre-include=/usr/include/finclude/math-vector-fortran.h
REM seed -1573929483 1115158331 79572232 1723307440 1966655674 1019910701 1958651797 774326103 473560644 359227740 129379308 1769916524 -2001402026 -1265321609 1879049402 970529675 -1942854658 366923111 1343630409 -1696343998 -2107297522 -455154111 -679653156 -1512945652 -600921573 -1681201669 1371107151 1966184374 -166989921 -1415153348 1229201994 -1826438979 -166277193
REM
CELL 1.54180   50.00000   50.00000   50.00000   90.00000   90.00000   90.00000
LATT -1
SFAC C  
C      1  0.5180350000000  0.4417510000000  0.4702590000000 1.0
C      1  0.5262440000000  0.4955680000000  0.5255160000000 1.0
C      1  0.5042100000000  0.5172400000000  0.4855720000000 1.0
C      1  0.4206500000000  0.4895960000000  0.4981820000000 1.0
C      1  0.5008890000000  0.5255250000000  0.4468040000000 1.0
C      1  0.4317300000000  0.5055710000000  0.4719430000000 1.0
C      1  0.5349990000000  0.5819690000000  0.5438690000000 1.0
C      1  0.5492100000000  0.4963040000000  0.5034810000000 1.0
C      1  0.4710700000000  0.5305610000000  0.4557990000000 1.0
C      1  0.5264320000000  0.5332040000000  0.4680520000000 1.0
C      1  0.5278310000000  0.4878820000000  0.5646740000000 1.0
C      1  0.5336750000000  0.4461520000000  0.5006230000000 1.0
C      1  0.4957200000000  0.4752880000000  0.5277300000000 1.0
C      1  0.4824230000000  0.5023620000000  0.5239290000000 1.0
C      1  0.5516350000000  0.4791400000000  0.5420530000000 1.0
C      1  0.5393670000000  0.4508390000000  0.5303260000000 1.0
C      1  0.4900430000000  0.4979030000000  0.4685360000000 1.0
C      1  0.5012110000000  0.4391230000000  0.4967850000000 1.0
C      1  0.4829570000000  0.4536490000000  0.5117450000000 1.0
C      1  0.5081800000000  0.4527040000000  0.4462480000000 1.0
C      1  0.4797020000000  0.4560370000000  0.4449780000000 1.0
C      1  0.5233860000000  0.5577270000000  0.5464930000000 1.0
C      1  0.5173200000000  0.5140610000000  0.5627760000000 1.0
C      1  0.5014530000000  0.5419230000000  0.5629400000000 1.0
C      1  0.5389010000000  0.5020160000000  0.4727380000000 1.0
C      1  0.4550580000000  0.4531900000000  0.5106400000000 1.0
C      1  0.5405870000000  0.5564030000000  0.4684920000000 1.0
C      1  0.5739780000000  0.5057050000000  0.5116200000000 1.0
C      1  0.5215250000000  0.4754280000000  0.4349970000000 1.0
C      1  0.4539220000000  0.5067270000000  0.4539560000000 1.0
C      1  0.4752300000000  0.5456250000000  0.5528040000000 1.0
C      1  0.4986180000000  0.5211320000000  0.5122250000000 1.0
C      1  0.4612420000000  0.5475250000000  0.5296570000000 1.0
C      1  0.4374900000000  0.5170780000000  0.5012900000000 1.0
C      1  0.5220240000000  0.5282380000000  0.5318510000000 1.0
C      1  0.4529820000000  0.5403160000000  0.5037060000000 1.0
C      1  0.5447080000000  0.4704890000000  0.4840760000000 1.0
C      1  0.4656340000000  0.5473090000000  0.4786940000000 1.0
C      1  0.4702980000000  0.4810860000000  0.4535020000000 1.0
C      1  0.5159090000000  0.4640140000000  0.5476110000000 1.0
C      1  0.5225580000000  0.5005750000000  0.4456380000000 1.0
C      1  0.4309630000000  0.4650680000000  0.5071900000000 1.0
END
