TITL C-2778428-5639-124 0.00672531403909931 125000 -943.256990854101 0 0 161 (C1) n - 1
REM
REM in /home/nfs/bkarasulu/CARBON/AIRSS/Generating-Clusters/REBO/Only-C1/SD-CG/HFTN-CG
REM
REM
REM
REM
REM
REM ./C.cell (11c1c37f851c82e70ff6c80c92926a4b)
REM
REM compiler GCC version 9.2.1 20190827 (Red Hat 9.2.1-1)
REM options -cpp -mtune=generic -march=x86-64 -g -O0 -fpre-include=/usr/include/finclude/math-vector-fortran.h
REM seed 889363262 -1185919593 -1680493568 2042049929 -637751356 1752296103 2061707222 1798755943 -1126579837 -366580575 -464518981 954215495 -2003054378 -341547398 -396516481 -1001777832 1211318269 1533666051 1400388128 -551541223 -983484072 1800605187 1592545557 -685344462 2147062761 -2102021881 384066568 1916539328 897691724 -695333166 -1389138176 476391758 -2146476117
REM
CELL 1.54180   50.00000   50.00000   50.00000   90.00000   90.00000   90.00000
LATT -1
SFAC C  
C      1  0.5814830000000  0.4413450000000  0.5017150000000 1.0
C      1  0.4608850000000  0.5159750000000  0.4480330000000 1.0
C      1  0.4844380000000  0.3928360000000  0.4770700000000 1.0
C      1  0.5659370000000  0.5658300000000  0.4953310000000 1.0
C      1  0.6007890000000  0.5116930000000  0.5026500000000 1.0
C      1  0.4774250000000  0.6079370000000  0.4650060000000 1.0
C      1  0.4341530000000  0.5090690000000  0.5743130000000 1.0
C      1  0.4923780000000  0.4247500000000  0.4416490000000 1.0
C      1  0.5056160000000  0.5862470000000  0.5060730000000 1.0
C      1  0.5039780000000  0.5341560000000  0.6006110000000 1.0
C      1  0.5088210000000  0.5086340000000  0.5781540000000 1.0
C      1  0.5492900000000  0.5208020000000  0.5452140000000 1.0
C      1  0.4250790000000  0.4596770000000  0.5467860000000 1.0
C      1  0.4623820000000  0.4561610000000  0.4518810000000 1.0
C      1  0.5294840000000  0.5585250000000  0.4306940000000 1.0
C      1  0.5250130000000  0.5463160000000  0.4709190000000 1.0
C      1  0.4798970000000  0.5124470000000  0.5354850000000 1.0
C      1  0.5871650000000  0.5296260000000  0.4029630000000 1.0
C      1  0.5413600000000  0.4368480000000  0.4319900000000 1.0
C      1  0.5217180000000  0.5007860000000  0.3941810000000 1.0
C      1  0.5020130000000  0.4732640000000  0.4560200000000 1.0
C      1  0.4491900000000  0.4528770000000  0.4215800000000 1.0
C      1  0.5511420000000  0.5101090000000  0.5958260000000 1.0
C      1  0.4516020000000  0.4877750000000  0.5563720000000 1.0
C      1  0.5107080000000  0.3977440000000  0.4886070000000 1.0
C      1  0.5919410000000  0.4664840000000  0.4934130000000 1.0
C      1  0.4960870000000  0.6046840000000  0.4925100000000 1.0
C      1  0.4839570000000  0.4895910000000  0.4005800000000 1.0
C      1  0.4847220000000  0.4078230000000  0.5360460000000 1.0
C      1  0.4448550000000  0.4283910000000  0.4872230000000 1.0
C      1  0.4591180000000  0.3977570000000  0.4921890000000 1.0
C      1  0.4770240000000  0.5386550000000  0.6040610000000 1.0
C      1  0.4726150000000  0.4892530000000  0.6041690000000 1.0
C      1  0.4318500000000  0.4445700000000  0.4499420000000 1.0
C      1  0.4591940000000  0.4892240000000  0.5237920000000 1.0
C      1  0.4245950000000  0.5391710000000  0.5639920000000 1.0
C      1  0.5885740000000  0.5375860000000  0.5297390000000 1.0
C      1  0.5509850000000  0.4225180000000  0.5367660000000 1.0
C      1  0.5367900000000  0.4288580000000  0.5651220000000 1.0
C      1  0.5228750000000  0.5788590000000  0.5478620000000 1.0
C      1  0.5116800000000  0.3965210000000  0.5219530000000 1.0
C      1  0.4120300000000  0.4953120000000  0.4367020000000 1.0
C      1  0.4753520000000  0.4599800000000  0.5172210000000 1.0
C      1  0.4081570000000  0.4892400000000  0.5263120000000 1.0
C      1  0.4584600000000  0.5198880000000  0.4776450000000 1.0
C      1  0.4361360000000  0.5779240000000  0.5043800000000 1.0
C      1  0.5097340000000  0.4373360000000  0.4947600000000 1.0
C      1  0.5784020000000  0.4564760000000  0.5505690000000 1.0
C      1  0.4363660000000  0.4110490000000  0.5145010000000 1.0
C      1  0.4301770000000  0.5661540000000  0.5561490000000 1.0
C      1  0.5979840000000  0.4860510000000  0.5128540000000 1.0
C      1  0.5929640000000  0.5536990000000  0.4780350000000 1.0
C      1  0.5321460000000  0.4789540000000  0.4069890000000 1.0
C      1  0.5687660000000  0.5798210000000  0.5217100000000 1.0
C      1  0.5361860000000  0.5537010000000  0.5637220000000 1.0
C      1  0.4522110000000  0.4838900000000  0.4089970000000 1.0
C      1  0.4602410000000  0.5875870000000  0.4433290000000 1.0
C      1  0.4193930000000  0.5169500000000  0.5127010000000 1.0
C      1  0.5099640000000  0.5551400000000  0.5065920000000 1.0
C      1  0.5235570000000  0.4217890000000  0.4476130000000 1.0
C      1  0.5321160000000  0.4119970000000  0.4734430000000 1.0
C      1  0.4514930000000  0.4564690000000  0.5683360000000 1.0
C      1  0.4472290000000  0.4785870000000  0.4961910000000 1.0
C      1  0.5401380000000  0.5502530000000  0.4985970000000 1.0
C      1  0.4936670000000  0.5789830000000  0.4620160000000 1.0
C      1  0.4968310000000  0.4860240000000  0.5109050000000 1.0
C      1  0.5878140000000  0.5644720000000  0.5359220000000 1.0
C      1  0.5674610000000  0.4470420000000  0.4513300000000 1.0
C      1  0.5110610000000  0.4984490000000  0.4722120000000 1.0
C      1  0.4389450000000  0.4335820000000  0.5351800000000 1.0
C      1  0.5427330000000  0.5233100000000  0.5158560000000 1.0
C      1  0.5828600000000  0.5178700000000  0.5532360000000 1.0
C      1  0.4455830000000  0.5492970000000  0.4873000000000 1.0
C      1  0.5284540000000  0.4486220000000  0.4087350000000 1.0
C      1  0.4662660000000  0.5177020000000  0.3922820000000 1.0
C      1  0.5619240000000  0.4285830000000  0.4769950000000 1.0
C      1  0.5267120000000  0.4959230000000  0.5238750000000 1.0
C      1  0.5561310000000  0.5500940000000  0.4447490000000 1.0
C      1  0.4643750000000  0.5859420000000  0.5233800000000 1.0
C      1  0.4416830000000  0.5341750000000  0.4263840000000 1.0
C      1  0.4127060000000  0.5532930000000  0.4650080000000 1.0
C      1  0.5080580000000  0.4653280000000  0.5499920000000 1.0
C      1  0.5434880000000  0.5906830000000  0.4736660000000 1.0
C      1  0.4299530000000  0.5057490000000  0.4175960000000 1.0
C      1  0.5307010000000  0.4196160000000  0.5152350000000 1.0
C      1  0.4868560000000  0.5091810000000  0.4906830000000 1.0
C      1  0.5325790000000  0.5201730000000  0.4581490000000 1.0
C      1  0.4552760000000  0.5810630000000  0.5549440000000 1.0
C      1  0.5562980000000  0.5338790000000  0.4082790000000 1.0
C      1  0.4088280000000  0.5179710000000  0.5450660000000 1.0
C      1  0.4273850000000  0.5115540000000  0.4854850000000 1.0
C      1  0.5721150000000  0.5270310000000  0.5020350000000 1.0
C      1  0.6018140000000  0.5255340000000  0.4756150000000 1.0
C      1  0.5272610000000  0.4765970000000  0.4370300000000 1.0
C      1  0.4554980000000  0.5862130000000  0.4772820000000 1.0
C      1  0.4701540000000  0.4619120000000  0.5949160000000 1.0
C      1  0.4428130000000  0.5510380000000  0.4540610000000 1.0
C      1  0.5423750000000  0.6009180000000  0.5003200000000 1.0
C      1  0.4207900000000  0.4498720000000  0.4817870000000 1.0
C      1  0.4328190000000  0.5422870000000  0.5243540000000 1.0
C      1  0.5042610000000  0.4953630000000  0.6096800000000 1.0
C      1  0.5420640000000  0.4428750000000  0.4967250000000 1.0
C      1  0.5740750000000  0.4375670000000  0.5296110000000 1.0
C      1  0.4888630000000  0.5800490000000  0.5470750000000 1.0
C      1  0.5207680000000  0.5759280000000  0.4655740000000 1.0
C      1  0.5442310000000  0.4947380000000  0.4745390000000 1.0
C      1  0.4704710000000  0.4451910000000  0.4894670000000 1.0
C      1  0.4165240000000  0.5693020000000  0.5282460000000 1.0
C      1  0.5411450000000  0.5909560000000  0.5291610000000 1.0
C      1  0.4011720000000  0.5039450000000  0.4660920000000 1.0
C      1  0.4726230000000  0.5651720000000  0.4985230000000 1.0
C      1  0.4844350000000  0.4840470000000  0.5537480000000 1.0
C      1  0.5137550000000  0.4056870000000  0.5548930000000 1.0
C      1  0.4737220000000  0.4750410000000  0.4751220000000 1.0
C      1  0.5870650000000  0.4859450000000  0.5417760000000 1.0
C      1  0.4964690000000  0.4432410000000  0.4676900000000 1.0
C      1  0.5571730000000  0.4903040000000  0.4986080000000 1.0
C      1  0.4776990000000  0.5486700000000  0.5520190000000 1.0
C      1  0.4222220000000  0.4639180000000  0.5127920000000 1.0
C      1  0.5303200000000  0.5290810000000  0.4036520000000 1.0
C      1  0.5046430000000  0.5679550000000  0.4252210000000 1.0
C      1  0.4761190000000  0.5725830000000  0.4232210000000 1.0
C      1  0.4556610000000  0.4868670000000  0.4415610000000 1.0
C      1  0.4906810000000  0.4070850000000  0.5753290000000 1.0
C      1  0.4615600000000  0.5462230000000  0.5246530000000 1.0
C      1  0.3962870000000  0.5349760000000  0.4693060000000 1.0
C      1  0.4999380000000  0.5170810000000  0.4132700000000 1.0
C      1  0.5288380000000  0.5169450000000  0.6115390000000 1.0
C      1  0.4977120000000  0.4588900000000  0.4055710000000 1.0
C      1  0.5847120000000  0.4751860000000  0.4621580000000 1.0
C      1  0.4754610000000  0.4323890000000  0.5685740000000 1.0
C      1  0.4695270000000  0.4374390000000  0.5373550000000 1.0
C      1  0.4119750000000  0.4873910000000  0.5600490000000 1.0
C      1  0.4795880000000  0.4410160000000  0.4192560000000 1.0
C      1  0.5230420000000  0.4932900000000  0.5575910000000 1.0
C      1  0.4616600000000  0.5485890000000  0.4059600000000 1.0
C      1  0.5528520000000  0.4758720000000  0.4526330000000 1.0
C      1  0.5584680000000  0.4542920000000  0.5716890000000 1.0
C      1  0.5111400000000  0.5413780000000  0.5548210000000 1.0
C      1  0.5146230000000  0.4583110000000  0.5208020000000 1.0
C      1  0.4946320000000  0.5390240000000  0.4807450000000 1.0
C      1  0.4764980000000  0.5516200000000  0.4572790000000 1.0
C      1  0.5905650000000  0.5080220000000  0.4551510000000 1.0
C      1  0.4614920000000  0.3913190000000  0.5244800000000 1.0
C      1  0.5534710000000  0.4827140000000  0.5850220000000 1.0
C      1  0.5555790000000  0.4891110000000  0.5525500000000 1.0
C      1  0.4802560000000  0.5205450000000  0.5686220000000 1.0
C      1  0.5594740000000  0.5313030000000  0.5745830000000 1.0
C      1  0.5693710000000  0.5732990000000  0.4632240000000 1.0
C      1  0.4962510000000  0.4496680000000  0.5976900000000 1.0
C      1  0.4590930000000  0.5139860000000  0.5916660000000 1.0
C      1  0.5081550000000  0.4424490000000  0.5693920000000 1.0
C      1  0.4357770000000  0.4841610000000  0.4667010000000 1.0
C      1  0.5620060000000  0.5302780000000  0.4719220000000 1.0
C      1  0.4814720000000  0.5334930000000  0.4289740000000 1.0
C      1  0.5758480000000  0.5242840000000  0.4346420000000 1.0
C      1  0.4817590000000  0.3973760000000  0.4501260000000 1.0
C      1  0.5028100000000  0.5321990000000  0.5263520000000 1.0
C      1  0.5457340000000  0.4688840000000  0.5146680000000 1.0
C      1  0.4054860000000  0.4704860000000  0.4593780000000 1.0
C      1  0.5124530000000  0.4654190000000  0.6135920000000 1.0
END
