TITL C-2778429-3646-180 -0.0844750433397421 125000 -765.587430550167 0 0 134 (C1) n - 1
REM
REM in /home/nfs/bkarasulu/CARBON/AIRSS/Generating-Clusters/REBO/Only-C1/SD-CG/HFTN-CG
REM
REM
REM
REM
REM
REM ./C.cell (11c1c37f851c82e70ff6c80c92926a4b)
REM
REM compiler GCC version 9.2.1 20190827 (Red Hat 9.2.1-1)
REM options -cpp -mtune=generic -march=x86-64 -g -O0 -fpre-include=/usr/include/finclude/math-vector-fortran.h
REM seed -283695065 658472573 1448354624 -123359616 -1359081611 -2075130713 1786926247 -1358392206 -755709641 1107422674 1874790004 363706573 -2055877414 -574434805 -1005934153 487534826 -1534841246 1580903304 1183387611 54054994 -766538487 2008511486 -722232426 681043045 751742510 -792095707 -1910220102 1641462217 32426423 -803800996 -1377394849 1128820317 1870693931
REM
CELL 1.54180   50.00000   50.00000   50.00000   90.00000   90.00000   90.00000
LATT -1
SFAC C  
C      1  0.4802800000000  0.4576570000000  0.5270370000000 1.0
C      1  0.4754580000000  0.4165390000000  0.4776520000000 1.0
C      1  0.5486260000000  0.4230460000000  0.5222140000000 1.0
C      1  0.4524150000000  0.5799840000000  0.4744160000000 1.0
C      1  0.4852130000000  0.4934430000000  0.4749650000000 1.0
C      1  0.4525690000000  0.5724810000000  0.5182290000000 1.0
C      1  0.5933760000000  0.4841640000000  0.5193960000000 1.0
C      1  0.4641440000000  0.4462500000000  0.5016240000000 1.0
C      1  0.5925270000000  0.5283500000000  0.5371310000000 1.0
C      1  0.4554060000000  0.4062840000000  0.5014860000000 1.0
C      1  0.5103010000000  0.5086480000000  0.5636990000000 1.0
C      1  0.4286930000000  0.5101180000000  0.5162760000000 1.0
C      1  0.5058390000000  0.4210520000000  0.4923510000000 1.0
C      1  0.4771260000000  0.4968660000000  0.5198520000000 1.0
C      1  0.4272540000000  0.5069730000000  0.4634170000000 1.0
C      1  0.4239960000000  0.4370340000000  0.4390990000000 1.0
C      1  0.4562610000000  0.5153340000000  0.5032030000000 1.0
C      1  0.4661180000000  0.5237270000000  0.4147710000000 1.0
C      1  0.5248580000000  0.5388880000000  0.5694080000000 1.0
C      1  0.5463830000000  0.5163510000000  0.4281170000000 1.0
C      1  0.6064200000000  0.5055890000000  0.5326630000000 1.0
C      1  0.5492310000000  0.5259270000000  0.5003390000000 1.0
C      1  0.5449280000000  0.4729380000000  0.5151110000000 1.0
C      1  0.5157930000000  0.4527110000000  0.4832640000000 1.0
C      1  0.5679800000000  0.4393520000000  0.4817570000000 1.0
C      1  0.5563300000000  0.4450250000000  0.5471580000000 1.0
C      1  0.4227540000000  0.5432070000000  0.5401630000000 1.0
C      1  0.4411410000000  0.5327510000000  0.4363920000000 1.0
C      1  0.5253360000000  0.4113710000000  0.4610710000000 1.0
C      1  0.5056920000000  0.4709280000000  0.5110470000000 1.0
C      1  0.5850600000000  0.5375900000000  0.4659590000000 1.0
C      1  0.4688550000000  0.5303960000000  0.5911930000000 1.0
C      1  0.4170810000000  0.4925420000000  0.5431810000000 1.0
C      1  0.4618030000000  0.5486500000000  0.4726760000000 1.0
C      1  0.5137080000000  0.4271580000000  0.5460280000000 1.0
C      1  0.5498840000000  0.4976550000000  0.5718120000000 1.0
C      1  0.4979590000000  0.5121280000000  0.4104650000000 1.0
C      1  0.5452930000000  0.4154030000000  0.4889780000000 1.0
C      1  0.5330760000000  0.4868660000000  0.4684640000000 1.0
C      1  0.4279880000000  0.4639390000000  0.5498190000000 1.0
C      1  0.4776230000000  0.4484700000000  0.5811370000000 1.0
C      1  0.4764870000000  0.5288100000000  0.5596570000000 1.0
C      1  0.4779970000000  0.4192410000000  0.4469270000000 1.0
C      1  0.5378060000000  0.5179820000000  0.5375040000000 1.0
C      1  0.4792160000000  0.5784420000000  0.4532230000000 1.0
C      1  0.4480510000000  0.4601800000000  0.5685430000000 1.0
C      1  0.4924640000000  0.5459050000000  0.4841770000000 1.0
C      1  0.5224740000000  0.5726860000000  0.5698800000000 1.0
C      1  0.5542640000000  0.5056900000000  0.4578790000000 1.0
C      1  0.4661760000000  0.4310610000000  0.5388200000000 1.0
C      1  0.4348490000000  0.4706430000000  0.4783310000000 1.0
C      1  0.5190400000000  0.4986610000000  0.4258080000000 1.0
C      1  0.5478290000000  0.4880090000000  0.5399430000000 1.0
C      1  0.4509540000000  0.5049870000000  0.5783830000000 1.0
C      1  0.4304950000000  0.5157440000000  0.5567010000000 1.0
C      1  0.4168440000000  0.4446840000000  0.4650370000000 1.0
C      1  0.4243070000000  0.4463120000000  0.5258260000000 1.0
C      1  0.4310230000000  0.5618410000000  0.4941170000000 1.0
C      1  0.5015590000000  0.5945320000000  0.5263630000000 1.0
C      1  0.4852360000000  0.4500830000000  0.4749350000000 1.0
C      1  0.4308350000000  0.5396710000000  0.4681350000000 1.0
C      1  0.5640100000000  0.5362100000000  0.5265270000000 1.0
C      1  0.4640800000000  0.4773240000000  0.4949620000000 1.0
C      1  0.4872160000000  0.3987360000000  0.5110960000000 1.0
C      1  0.5059460000000  0.4220470000000  0.4414630000000 1.0
C      1  0.5134260000000  0.4481300000000  0.4282210000000 1.0
C      1  0.4587290000000  0.5598320000000  0.5771340000000 1.0
C      1  0.5392580000000  0.5704580000000  0.4690400000000 1.0
C      1  0.5082390000000  0.4480090000000  0.5674390000000 1.0
C      1  0.5319530000000  0.4997480000000  0.4984100000000 1.0
C      1  0.4544710000000  0.5324360000000  0.5392580000000 1.0
C      1  0.5400500000000  0.5684660000000  0.5267090000000 1.0
C      1  0.5202350000000  0.4870140000000  0.5851250000000 1.0
C      1  0.4740340000000  0.4914550000000  0.4046620000000 1.0
C      1  0.4669440000000  0.4788930000000  0.5897470000000 1.0
C      1  0.5411680000000  0.5973850000000  0.4984640000000 1.0
C      1  0.4752710000000  0.4754240000000  0.4408330000000 1.0
C      1  0.5687950000000  0.4696050000000  0.5677900000000 1.0
C      1  0.4101260000000  0.4930020000000  0.4854670000000 1.0
C      1  0.5548620000000  0.5306630000000  0.5650260000000 1.0
C      1  0.5434450000000  0.5459470000000  0.4280590000000 1.0
C      1  0.5163770000000  0.5541130000000  0.4302880000000 1.0
C      1  0.4498210000000  0.4829200000000  0.4260020000000 1.0
C      1  0.5708680000000  0.5154180000000  0.4817110000000 1.0
C      1  0.5026720000000  0.5421590000000  0.5225970000000 1.0
C      1  0.4300340000000  0.5012890000000  0.4328170000000 1.0
C      1  0.4706720000000  0.5443390000000  0.5113110000000 1.0
C      1  0.5071580000000  0.5151560000000  0.4863640000000 1.0
C      1  0.5728340000000  0.5662470000000  0.4755670000000 1.0
C      1  0.5408010000000  0.4768650000000  0.4255900000000 1.0
C      1  0.5526890000000  0.4682640000000  0.4855450000000 1.0
C      1  0.5194320000000  0.4080160000000  0.5185030000000 1.0
C      1  0.4846360000000  0.4692520000000  0.5552310000000 1.0
C      1  0.5728180000000  0.5536210000000  0.5610500000000 1.0
C      1  0.4565110000000  0.5093470000000  0.4726730000000 1.0
C      1  0.5809240000000  0.4659950000000  0.5364020000000 1.0
C      1  0.5346040000000  0.4497380000000  0.4548010000000 1.0
C      1  0.5860330000000  0.4902400000000  0.4923280000000 1.0
C      1  0.5556300000000  0.4227730000000  0.4566330000000 1.0
C      1  0.4382870000000  0.4318100000000  0.4868920000000 1.0
C      1  0.5229980000000  0.5840120000000  0.5433100000000 1.0
C      1  0.4772220000000  0.5267880000000  0.4525960000000 1.0
C      1  0.4683920000000  0.5528820000000  0.4334560000000 1.0
C      1  0.4805720000000  0.5690070000000  0.5589820000000 1.0
C      1  0.4867360000000  0.4111440000000  0.5406360000000 1.0
C      1  0.5655390000000  0.5838670000000  0.5005460000000 1.0
C      1  0.5260980000000  0.4472960000000  0.5214760000000 1.0
C      1  0.5002020000000  0.5437600000000  0.4112800000000 1.0
C      1  0.5836170000000  0.4664250000000  0.4718980000000 1.0
C      1  0.4561380000000  0.4487360000000  0.4627500000000 1.0
C      1  0.5053340000000  0.5218870000000  0.4553430000000 1.0
C      1  0.5588940000000  0.5603280000000  0.4460090000000 1.0
C      1  0.5362100000000  0.4602890000000  0.5708480000000 1.0
C      1  0.4950820000000  0.5973440000000  0.4767320000000 1.0
C      1  0.4894880000000  0.5026840000000  0.5888500000000 1.0
C      1  0.5918230000000  0.5251590000000  0.4411440000000 1.0
C      1  0.5622870000000  0.4683190000000  0.4465530000000 1.0
C      1  0.5742520000000  0.4973290000000  0.4324610000000 1.0
C      1  0.4413350000000  0.4242570000000  0.5258410000000 1.0
C      1  0.5064440000000  0.4823830000000  0.4529310000000 1.0
C      1  0.4416050000000  0.5682970000000  0.5503800000000 1.0
C      1  0.5121160000000  0.5993870000000  0.4996100000000 1.0
C      1  0.4127220000000  0.5394680000000  0.5099590000000 1.0
C      1  0.4535890000000  0.4320650000000  0.4345970000000 1.0
C      1  0.4997990000000  0.5453200000000  0.5519670000000 1.0
C      1  0.3966520000000  0.5185270000000  0.4940490000000 1.0
C      1  0.4730550000000  0.4970270000000  0.5529030000000 1.0
C      1  0.4953040000000  0.4672930000000  0.4177740000000 1.0
C      1  0.4177190000000  0.4772580000000  0.5136110000000 1.0
C      1  0.5095360000000  0.4989260000000  0.5309880000000 1.0
C      1  0.4764450000000  0.5853040000000  0.5359030000000 1.0
C      1  0.5090740000000  0.5636360000000  0.4608810000000 1.0
C      1  0.5284980000000  0.5477270000000  0.5124410000000 1.0
C      1  0.5714870000000  0.5685740000000  0.5303560000000 1.0
END
