TITL C-2778429-3646-316 0.00421734959843489 125000 -897.041786826519 0 0 156 (C1) n - 1
REM
REM in /home/nfs/bkarasulu/CARBON/AIRSS/Generating-Clusters/REBO/Only-C1/SD-CG/HFTN-CG
REM
REM
REM
REM
REM
REM ./C.cell (11c1c37f851c82e70ff6c80c92926a4b)
REM
REM compiler GCC version 9.2.1 20190827 (Red Hat 9.2.1-1)
REM options -cpp -mtune=generic -march=x86-64 -g -O0 -fpre-include=/usr/include/finclude/math-vector-fortran.h
REM seed 368377261 -1691739413 1353870079 -109248615 1809083666 -570804583 562212290 -1244757329 -161113826 -1509120313 1112022883 1236413974 116589975 1257309973 -698110611 -323319766 -1049200310 -1246275177 1482881181 -1331577505 -1652256447 1903182718 1455270095 -2052865950 -1370157208 -371180331 1897867349 751594965 1047252705 42633240 -943136827 -412674638 1495439014
REM
CELL 1.54180   50.00000   50.00000   50.00000   90.00000   90.00000   90.00000
LATT -1
SFAC C  
C      1  0.5405790000000  0.4990440000000  0.4692770000000 1.0
C      1  0.5122860000000  0.5260610000000  0.5035210000000 1.0
C      1  0.5248540000000  0.4979580000000  0.5487900000000 1.0
C      1  0.4105610000000  0.5217350000000  0.4638450000000 1.0
C      1  0.4631600000000  0.4312200000000  0.4548080000000 1.0
C      1  0.4823360000000  0.5314880000000  0.5155100000000 1.0
C      1  0.5492150000000  0.4829330000000  0.5213060000000 1.0
C      1  0.4811330000000  0.5436620000000  0.6010450000000 1.0
C      1  0.4831910000000  0.4728940000000  0.5431760000000 1.0
C      1  0.5471050000000  0.5514460000000  0.4172640000000 1.0
C      1  0.5773650000000  0.5032150000000  0.4238780000000 1.0
C      1  0.4572520000000  0.4498980000000  0.4289620000000 1.0
C      1  0.4964980000000  0.5904820000000  0.5540840000000 1.0
C      1  0.5065690000000  0.5609210000000  0.4849570000000 1.0
C      1  0.5038760000000  0.4563090000000  0.4076870000000 1.0
C      1  0.4753740000000  0.5504930000000  0.4879780000000 1.0
C      1  0.4502750000000  0.4238330000000  0.5514670000000 1.0
C      1  0.4259090000000  0.5178900000000  0.5764550000000 1.0
C      1  0.5000240000000  0.5815110000000  0.4514310000000 1.0
C      1  0.5452760000000  0.5923690000000  0.4832660000000 1.0
C      1  0.5537020000000  0.5731950000000  0.4400610000000 1.0
C      1  0.4447460000000  0.4178180000000  0.5204280000000 1.0
C      1  0.3990730000000  0.5642820000000  0.5112680000000 1.0
C      1  0.5100130000000  0.4249350000000  0.4943460000000 1.0
C      1  0.4753930000000  0.5007960000000  0.5286150000000 1.0
C      1  0.4634150000000  0.4720580000000  0.5692620000000 1.0
C      1  0.4101940000000  0.4715500000000  0.5384670000000 1.0
C      1  0.5576410000000  0.4894170000000  0.5519990000000 1.0
C      1  0.4918460000000  0.5073470000000  0.4831270000000 1.0
C      1  0.5587590000000  0.5335650000000  0.4416440000000 1.0
C      1  0.5921980000000  0.5205690000000  0.4751930000000 1.0
C      1  0.4940510000000  0.4116510000000  0.4387380000000 1.0
C      1  0.5822930000000  0.4488540000000  0.5493730000000 1.0
C      1  0.4793560000000  0.4325020000000  0.4812310000000 1.0
C      1  0.4722970000000  0.4023360000000  0.5643610000000 1.0
C      1  0.4516380000000  0.4987620000000  0.4498620000000 1.0
C      1  0.5657360000000  0.4478870000000  0.4343500000000 1.0
C      1  0.4786910000000  0.5497450000000  0.4301590000000 1.0
C      1  0.5054210000000  0.4717090000000  0.5047970000000 1.0
C      1  0.5424120000000  0.5283590000000  0.5299800000000 1.0
C      1  0.5914880000000  0.4483630000000  0.5050690000000 1.0
C      1  0.4900980000000  0.5362100000000  0.3900490000000 1.0
C      1  0.4340350000000  0.4518430000000  0.5284010000000 1.0
C      1  0.4362940000000  0.5610990000000  0.4512500000000 1.0
C      1  0.4654600000000  0.5924680000000  0.5426880000000 1.0
C      1  0.4685720000000  0.4991640000000  0.4975040000000 1.0
C      1  0.4305590000000  0.4360870000000  0.4547410000000 1.0
C      1  0.5783410000000  0.5586210000000  0.5128280000000 1.0
C      1  0.5039480000000  0.5554750000000  0.5909870000000 1.0
C      1  0.5507150000000  0.4308210000000  0.5658130000000 1.0
C      1  0.4184580000000  0.5307940000000  0.5457680000000 1.0
C      1  0.4369090000000  0.4935150000000  0.4979620000000 1.0
C      1  0.4684530000000  0.5134290000000  0.3977040000000 1.0
C      1  0.5313710000000  0.5887080000000  0.4550470000000 1.0
C      1  0.4266520000000  0.4599320000000  0.4336090000000 1.0
C      1  0.4270390000000  0.4869090000000  0.5623020000000 1.0
C      1  0.5408240000000  0.5309480000000  0.4673140000000 1.0
C      1  0.4846340000000  0.5387840000000  0.4599720000000 1.0
C      1  0.5862800000000  0.5344740000000  0.4470850000000 1.0
C      1  0.5035050000000  0.4965180000000  0.5908240000000 1.0
C      1  0.3912970000000  0.4757890000000  0.5192900000000 1.0
C      1  0.4301820000000  0.5101640000000  0.5238390000000 1.0
C      1  0.5677420000000  0.5426300000000  0.4847910000000 1.0
C      1  0.4941320000000  0.4661860000000  0.4540200000000 1.0
C      1  0.5558150000000  0.5210760000000  0.4043910000000 1.0
C      1  0.5255870000000  0.4613380000000  0.5289500000000 1.0
C      1  0.5469300000000  0.4134380000000  0.5362750000000 1.0
C      1  0.5737680000000  0.4980100000000  0.4576300000000 1.0
C      1  0.4116560000000  0.5185740000000  0.4307710000000 1.0
C      1  0.6063000000000  0.5158160000000  0.5311370000000 1.0
C      1  0.5171060000000  0.5608480000000  0.4302410000000 1.0
C      1  0.5790410000000  0.5425360000000  0.5427860000000 1.0
C      1  0.4790300000000  0.4934490000000  0.4215940000000 1.0
C      1  0.4826500000000  0.4395690000000  0.5340520000000 1.0
C      1  0.4131800000000  0.4930370000000  0.4773800000000 1.0
C      1  0.5826820000000  0.5020620000000  0.5113000000000 1.0
C      1  0.4432860000000  0.4579250000000  0.4764240000000 1.0
C      1  0.4637940000000  0.4734900000000  0.4604610000000 1.0
C      1  0.6078230000000  0.5488860000000  0.5259600000000 1.0
C      1  0.4429950000000  0.5107270000000  0.4201380000000 1.0
C      1  0.4640410000000  0.4944470000000  0.5850880000000 1.0
C      1  0.4903020000000  0.5384740000000  0.5575580000000 1.0
C      1  0.4867020000000  0.5854340000000  0.5158710000000 1.0
C      1  0.5287040000000  0.4783840000000  0.4098490000000 1.0
C      1  0.5004200000000  0.4365160000000  0.4418870000000 1.0
C      1  0.4515210000000  0.5053970000000  0.5487220000000 1.0
C      1  0.5408640000000  0.5109920000000  0.5874420000000 1.0
C      1  0.4670180000000  0.4089450000000  0.5022630000000 1.0
C      1  0.5218310000000  0.5375330000000  0.5447690000000 1.0
C      1  0.5261750000000  0.4535850000000  0.4333280000000 1.0
C      1  0.6117550000000  0.5118720000000  0.4977590000000 1.0
C      1  0.5182660000000  0.4273470000000  0.5659420000000 1.0
C      1  0.5597920000000  0.5221650000000  0.5107950000000 1.0
C      1  0.5156640000000  0.5854040000000  0.5290350000000 1.0
C      1  0.5534700000000  0.5554040000000  0.5607990000000 1.0
C      1  0.5425970000000  0.4240930000000  0.5042790000000 1.0
C      1  0.6008250000000  0.4446440000000  0.5302460000000 1.0
C      1  0.4182570000000  0.4241960000000  0.5044370000000 1.0
C      1  0.4974410000000  0.5214850000000  0.4264660000000 1.0
C      1  0.5643990000000  0.5715860000000  0.4689050000000 1.0
C      1  0.4982070000000  0.4096620000000  0.5694410000000 1.0
C      1  0.4475560000000  0.5799300000000  0.5163670000000 1.0
C      1  0.4386690000000  0.5484970000000  0.5666260000000 1.0
C      1  0.5101460000000  0.4575620000000  0.5565410000000 1.0
C      1  0.5236860000000  0.5576590000000  0.5105350000000 1.0
C      1  0.4336360000000  0.5386800000000  0.4699330000000 1.0
C      1  0.5272300000000  0.5407470000000  0.5776330000000 1.0
C      1  0.5133720000000  0.4664650000000  0.5892100000000 1.0
C      1  0.5640140000000  0.5264580000000  0.5753920000000 1.0
C      1  0.4206030000000  0.5763080000000  0.4998190000000 1.0
C      1  0.4646400000000  0.5610430000000  0.5573380000000 1.0
C      1  0.5183050000000  0.4007780000000  0.5360630000000 1.0
C      1  0.5662360000000  0.4384780000000  0.4860860000000 1.0
C      1  0.5417210000000  0.4157880000000  0.4716680000000 1.0
C      1  0.3965740000000  0.5477330000000  0.5326390000000 1.0
C      1  0.4668790000000  0.5735320000000  0.4517960000000 1.0
C      1  0.4868120000000  0.3935400000000  0.4859700000000 1.0
C      1  0.5809970000000  0.5103880000000  0.5529820000000 1.0
C      1  0.5162780000000  0.4764310000000  0.4767110000000 1.0
C      1  0.4489540000000  0.5346710000000  0.5955570000000 1.0
C      1  0.4575060000000  0.5223930000000  0.4669350000000 1.0
C      1  0.4747950000000  0.4419870000000  0.5668840000000 1.0
C      1  0.5411890000000  0.5934580000000  0.5105840000000 1.0
C      1  0.5662120000000  0.4686150000000  0.4701440000000 1.0
C      1  0.5125830000000  0.3999610000000  0.4721900000000 1.0
C      1  0.4153970000000  0.4470680000000  0.4895970000000 1.0
C      1  0.5235290000000  0.5113550000000  0.4103620000000 1.0
C      1  0.5378470000000  0.4607980000000  0.4598230000000 1.0
C      1  0.5061880000000  0.5512920000000  0.4012840000000 1.0
C      1  0.4374060000000  0.4541370000000  0.5612010000000 1.0
C      1  0.4560120000000  0.5411290000000  0.4111570000000 1.0
C      1  0.4204740000000  0.4885360000000  0.4444310000000 1.0
C      1  0.5610560000000  0.4629670000000  0.5711690000000 1.0
C      1  0.5164240000000  0.5460570000000  0.4599700000000 1.0
C      1  0.4501150000000  0.4648600000000  0.5065650000000 1.0
C      1  0.5579460000000  0.4766130000000  0.4264100000000 1.0
C      1  0.4710200000000  0.5570650000000  0.5266510000000 1.0
C      1  0.4874640000000  0.5880520000000  0.4825440000000 1.0
C      1  0.4285950000000  0.5475000000000  0.4256450000000 1.0
C      1  0.4999540000000  0.4171500000000  0.5233510000000 1.0
C      1  0.4922170000000  0.5003110000000  0.4526040000000 1.0
C      1  0.4778050000000  0.4645510000000  0.4157540000000 1.0
C      1  0.4914300000000  0.4433850000000  0.5906090000000 1.0
C      1  0.5726240000000  0.4745760000000  0.5016190000000 1.0
C      1  0.4553590000000  0.5767210000000  0.4841350000000 1.0
C      1  0.5194540000000  0.4986270000000  0.5165650000000 1.0
C      1  0.5007580000000  0.5810440000000  0.5790520000000 1.0
C      1  0.3989530000000  0.4701710000000  0.4924330000000 1.0
C      1  0.5510730000000  0.5672660000000  0.5289320000000 1.0
C      1  0.4672180000000  0.5210520000000  0.5711920000000 1.0
C      1  0.5584770000000  0.4286300000000  0.4481410000000 1.0
C      1  0.5051670000000  0.5092320000000  0.5668580000000 1.0
C      1  0.5519310000000  0.4460960000000  0.5361730000000 1.0
C      1  0.4795750000000  0.4555650000000  0.5061820000000 1.0
C      1  0.5407910000000  0.4824150000000  0.5875580000000 1.0
C      1  0.5405600000000  0.5047050000000  0.4372300000000 1.0
END
