TITL C-2778432-5617-354 0.00169768859507094 125000 -1062.44629665914 0 0 181 (C1) n - 1
REM
REM in /home/nfs/bkarasulu/CARBON/AIRSS/Generating-Clusters/REBO/Only-C1/SD-CG/HFTN-CG
REM
REM
REM
REM
REM
REM ./C.cell (11c1c37f851c82e70ff6c80c92926a4b)
REM
REM compiler GCC version 9.2.1 20190827 (Red Hat 9.2.1-1)
REM options -cpp -mtune=generic -march=x86-64 -g -O0 -fpre-include=/usr/include/finclude/math-vector-fortran.h
REM seed -1641822986 -1386274763 1045925972 1192496019 -827015946 -2057468392 110973296 -878458363 892225905 999425234 -1436531715 -149262336 1121597573 -804639616 -1481256008 586834341 -1442630448 1027329891 315169456 1768719379 1734600255 -289838248 -1914100471 -2109632102 566183177 298345907 -459478887 -2143980334 1599357909 -1381652751 833848728 -1160451032 836250868
REM
CELL 1.54180   50.00000   50.00000   50.00000   90.00000   90.00000   90.00000
LATT -1
SFAC C  
C      1  0.4232890000000  0.5646370000000  0.5123680000000 1.0
C      1  0.4188980000000  0.5602250000000  0.4544520000000 1.0
C      1  0.5788810000000  0.5740580000000  0.5123780000000 1.0
C      1  0.5352830000000  0.5813870000000  0.5334990000000 1.0
C      1  0.5035230000000  0.5550440000000  0.4403120000000 1.0
C      1  0.5026900000000  0.5472850000000  0.4697380000000 1.0
C      1  0.4576290000000  0.5267090000000  0.4925280000000 1.0
C      1  0.5139480000000  0.4283410000000  0.4981110000000 1.0
C      1  0.4486850000000  0.4429890000000  0.5301460000000 1.0
C      1  0.5724240000000  0.5042550000000  0.4725150000000 1.0
C      1  0.5333840000000  0.4786770000000  0.5951500000000 1.0
C      1  0.4897270000000  0.4008860000000  0.4420920000000 1.0
C      1  0.4227150000000  0.5323530000000  0.5175610000000 1.0
C      1  0.5214390000000  0.4411390000000  0.5534850000000 1.0
C      1  0.5856990000000  0.4637050000000  0.4679500000000 1.0
C      1  0.4677370000000  0.5932930000000  0.4720870000000 1.0
C      1  0.5966220000000  0.5069060000000  0.4940350000000 1.0
C      1  0.5534780000000  0.4897800000000  0.4925880000000 1.0
C      1  0.5458540000000  0.3910250000000  0.4931950000000 1.0
C      1  0.4053200000000  0.4858370000000  0.5325740000000 1.0
C      1  0.4998660000000  0.5950180000000  0.5634130000000 1.0
C      1  0.5252970000000  0.4621850000000  0.4215600000000 1.0
C      1  0.5044760000000  0.4578440000000  0.3987380000000 1.0
C      1  0.5113860000000  0.4527390000000  0.5931170000000 1.0
C      1  0.4866920000000  0.4085260000000  0.5484780000000 1.0
C      1  0.5171460000000  0.6054650000000  0.4664750000000 1.0
C      1  0.4443910000000  0.4239950000000  0.5068590000000 1.0
C      1  0.4054080000000  0.5107420000000  0.5557580000000 1.0
C      1  0.4442890000000  0.5074070000000  0.5642980000000 1.0
C      1  0.4738850000000  0.4532190000000  0.6069220000000 1.0
C      1  0.5166500000000  0.4201260000000  0.5868100000000 1.0
C      1  0.5296450000000  0.5029110000000  0.4278450000000 1.0
C      1  0.4376120000000  0.4613300000000  0.4319600000000 1.0
C      1  0.4934060000000  0.5086590000000  0.4082480000000 1.0
C      1  0.4520230000000  0.5663980000000  0.5242900000000 1.0
C      1  0.4017140000000  0.5019040000000  0.5030850000000 1.0
C      1  0.5041210000000  0.5234510000000  0.4377390000000 1.0
C      1  0.5850540000000  0.5141900000000  0.4444150000000 1.0
C      1  0.4937550000000  0.5505310000000  0.5550490000000 1.0
C      1  0.4997540000000  0.4801430000000  0.3813240000000 1.0
C      1  0.5553590000000  0.6142870000000  0.5025930000000 1.0
C      1  0.4307450000000  0.5056500000000  0.4890880000000 1.0
C      1  0.4866720000000  0.5358030000000  0.5041820000000 1.0
C      1  0.4695000000000  0.4099560000000  0.4978660000000 1.0
C      1  0.4765840000000  0.5385040000000  0.6001630000000 1.0
C      1  0.5655050000000  0.5635750000000  0.4510440000000 1.0
C      1  0.5209870000000  0.4975990000000  0.3764480000000 1.0
C      1  0.5034680000000  0.5473910000000  0.5936890000000 1.0
C      1  0.5479260000000  0.4488310000000  0.5026070000000 1.0
C      1  0.4092490000000  0.4354660000000  0.5428760000000 1.0
C      1  0.5490490000000  0.4930020000000  0.5432360000000 1.0
C      1  0.5514590000000  0.5451820000000  0.5368620000000 1.0
C      1  0.4574180000000  0.4476630000000  0.4772960000000 1.0
C      1  0.5626850000000  0.4788910000000  0.5826790000000 1.0
C      1  0.4816710000000  0.5186560000000  0.5558030000000 1.0
C      1  0.4902760000000  0.5047410000000  0.5836980000000 1.0
C      1  0.4854830000000  0.5594780000000  0.5246060000000 1.0
C      1  0.4477400000000  0.5351900000000  0.5823770000000 1.0
C      1  0.4681370000000  0.4916100000000  0.5111310000000 1.0
C      1  0.6019450000000  0.5352950000000  0.4958090000000 1.0
C      1  0.4001330000000  0.4819410000000  0.4781920000000 1.0
C      1  0.5423930000000  0.4272890000000  0.4598930000000 1.0
C      1  0.4606660000000  0.4304590000000  0.6109960000000 1.0
C      1  0.4286170000000  0.4247780000000  0.5592350000000 1.0
C      1  0.5185340000000  0.5180970000000  0.5710820000000 1.0
C      1  0.5094590000000  0.4025290000000  0.5645680000000 1.0
C      1  0.5845180000000  0.5081080000000  0.5331680000000 1.0
C      1  0.5905710000000  0.4805050000000  0.4461800000000 1.0
C      1  0.5664170000000  0.4504930000000  0.5722130000000 1.0
C      1  0.5410960000000  0.5330020000000  0.4483150000000 1.0
C      1  0.4044460000000  0.4532620000000  0.4948010000000 1.0
C      1  0.5969140000000  0.5515020000000  0.5198310000000 1.0
C      1  0.4936400000000  0.4961320000000  0.6157450000000 1.0
C      1  0.3989490000000  0.5557820000000  0.5334120000000 1.0
C      1  0.4266770000000  0.4921880000000  0.4230240000000 1.0
C      1  0.4632050000000  0.5879640000000  0.4424690000000 1.0
C      1  0.4927010000000  0.4402650000000  0.4439050000000 1.0
C      1  0.5429720000000  0.4351920000000  0.5759800000000 1.0
C      1  0.4776660000000  0.5198710000000  0.6218390000000 1.0
C      1  0.4904660000000  0.4982940000000  0.5350350000000 1.0
C      1  0.5811270000000  0.4858100000000  0.4166350000000 1.0
C      1  0.5751900000000  0.4357380000000  0.4991580000000 1.0
C      1  0.3923940000000  0.5229930000000  0.5267960000000 1.0
C      1  0.4889450000000  0.4120160000000  0.4159770000000 1.0
C      1  0.5169470000000  0.5612120000000  0.5152860000000 1.0
C      1  0.5422050000000  0.5651240000000  0.5622670000000 1.0
C      1  0.5117820000000  0.4745260000000  0.4496560000000 1.0
C      1  0.4464540000000  0.4856140000000  0.5482210000000 1.0
C      1  0.5509870000000  0.4124990000000  0.5368960000000 1.0
C      1  0.4875480000000  0.4592630000000  0.4693170000000 1.0
C      1  0.4677010000000  0.4663380000000  0.5582920000000 1.0
C      1  0.5759820000000  0.4294270000000  0.5285670000000 1.0
C      1  0.5034870000000  0.3920090000000  0.4672690000000 1.0
C      1  0.5324170000000  0.5422350000000  0.4166960000000 1.0
C      1  0.5277820000000  0.4081860000000  0.4797730000000 1.0
C      1  0.4763220000000  0.4754400000000  0.5862560000000 1.0
C      1  0.4640910000000  0.5607680000000  0.5693710000000 1.0
C      1  0.5606860000000  0.5391630000000  0.5748090000000 1.0
C      1  0.4707170000000  0.4598530000000  0.4331940000000 1.0
C      1  0.5257750000000  0.5286750000000  0.5115680000000 1.0
C      1  0.4653270000000  0.5270100000000  0.3823790000000 1.0
C      1  0.4045610000000  0.5573930000000  0.5626020000000 1.0
C      1  0.5217350000000  0.5347810000000  0.5448030000000 1.0
C      1  0.5152980000000  0.5930410000000  0.4411100000000 1.0
C      1  0.4724970000000  0.4924400000000  0.4802460000000 1.0
C      1  0.5111640000000  0.6010540000000  0.5373930000000 1.0
C      1  0.4918940000000  0.4935340000000  0.4367360000000 1.0
C      1  0.4398340000000  0.4745600000000  0.4886210000000 1.0
C      1  0.4472040000000  0.4804600000000  0.3985420000000 1.0
C      1  0.4649640000000  0.4892310000000  0.4495030000000 1.0
C      1  0.4710990000000  0.4956660000000  0.3869220000000 1.0
C      1  0.5152880000000  0.5706670000000  0.4860400000000 1.0
C      1  0.4262890000000  0.4371030000000  0.4865500000000 1.0
C      1  0.5326400000000  0.5035050000000  0.6114690000000 1.0
C      1  0.5128610000000  0.4594700000000  0.4866920000000 1.0
C      1  0.4579220000000  0.5417110000000  0.4629090000000 1.0
C      1  0.4309640000000  0.5232070000000  0.4634720000000 1.0
C      1  0.5852040000000  0.4825920000000  0.5559600000000 1.0
C      1  0.5400300000000  0.5088230000000  0.3962950000000 1.0
C      1  0.5404520000000  0.4665140000000  0.4760550000000 1.0
C      1  0.5908240000000  0.4757530000000  0.4935510000000 1.0
C      1  0.5710070000000  0.5461560000000  0.4253000000000 1.0
C      1  0.4908560000000  0.4435150000000  0.5672450000000 1.0
C      1  0.4550720000000  0.4493660000000  0.4051660000000 1.0
C      1  0.5601600000000  0.5930350000000  0.5207510000000 1.0
C      1  0.4572320000000  0.5390320000000  0.5438440000000 1.0
C      1  0.4601100000000  0.5410830000000  0.4287670000000 1.0
C      1  0.5204480000000  0.5014250000000  0.4667240000000 1.0
C      1  0.5984090000000  0.4780940000000  0.3962780000000 1.0
C      1  0.5341060000000  0.5324460000000  0.5953010000000 1.0
C      1  0.4941040000000  0.5968150000000  0.4871360000000 1.0
C      1  0.5339000000000  0.4984890000000  0.5154470000000 1.0
C      1  0.3994420000000  0.4544680000000  0.5237870000000 1.0
C      1  0.5483880000000  0.4900210000000  0.4531390000000 1.0
C      1  0.5450180000000  0.5743000000000  0.4752980000000 1.0
C      1  0.4466120000000  0.5116440000000  0.4391270000000 1.0
C      1  0.5824870000000  0.5381770000000  0.5477510000000 1.0
C      1  0.4847940000000  0.4374470000000  0.4032490000000 1.0
C      1  0.4979720000000  0.4688980000000  0.6190410000000 1.0
C      1  0.4153290000000  0.5333690000000  0.5725470000000 1.0
C      1  0.4622760000000  0.4271760000000  0.5571560000000 1.0
C      1  0.4770130000000  0.3586060000000  0.4945090000000 1.0
C      1  0.4516000000000  0.5691550000000  0.4756730000000 1.0
C      1  0.5142560000000  0.5701380000000  0.5744250000000 1.0
C      1  0.4489970000000  0.5164160000000  0.5228490000000 1.0
C      1  0.5438070000000  0.6061030000000  0.4783950000000 1.0
C      1  0.4421190000000  0.5673830000000  0.4369010000000 1.0
C      1  0.4718660000000  0.5899660000000  0.5603170000000 1.0
C      1  0.5825540000000  0.4498780000000  0.5473210000000 1.0
C      1  0.5700560000000  0.4818440000000  0.5191120000000 1.0
C      1  0.5299120000000  0.5305320000000  0.4803310000000 1.0
C      1  0.5660700000000  0.5083960000000  0.5683880000000 1.0
C      1  0.5242260000000  0.4375850000000  0.4411190000000 1.0
C      1  0.5356420000000  0.5696890000000  0.4358070000000 1.0
C      1  0.4838330000000  0.3840180000000  0.4865250000000 1.0
C      1  0.4730320000000  0.4636680000000  0.5263570000000 1.0
C      1  0.5507410000000  0.4790010000000  0.4148660000000 1.0
C      1  0.5332890000000  0.3948260000000  0.5500710000000 1.0
C      1  0.4761050000000  0.4210580000000  0.4664980000000 1.0
C      1  0.5052560000000  0.4774950000000  0.5522440000000 1.0
C      1  0.5375910000000  0.4406150000000  0.5278000000000 1.0
C      1  0.4759200000000  0.5437230000000  0.4022790000000 1.0
C      1  0.4658970000000  0.5935110000000  0.5319790000000 1.0
C      1  0.4886740000000  0.5829760000000  0.4309410000000 1.0
C      1  0.5866490000000  0.5409320000000  0.4654740000000 1.0
C      1  0.5654190000000  0.5283670000000  0.5131520000000 1.0
C      1  0.4919040000000  0.4162100000000  0.5193800000000 1.0
C      1  0.4346060000000  0.4727110000000  0.5212110000000 1.0
C      1  0.5678730000000  0.4384500000000  0.4685830000000 1.0
C      1  0.5078560000000  0.5390350000000  0.4016100000000 1.0
C      1  0.4932390000000  0.5155560000000  0.4783590000000 1.0
C      1  0.5671800000000  0.5169380000000  0.4154960000000 1.0
C      1  0.4988460000000  0.4481570000000  0.5216190000000 1.0
C      1  0.5666850000000  0.5527060000000  0.4894260000000 1.0
C      1  0.5084900000000  0.4796490000000  0.5127650000000 1.0
C      1  0.4026970000000  0.5321110000000  0.4519860000000 1.0
C      1  0.4230130000000  0.5707520000000  0.4832890000000 1.0
C      1  0.4250770000000  0.4728570000000  0.4578210000000 1.0
C      1  0.4898740000000  0.6020280000000  0.5175870000000 1.0
C      1  0.5280120000000  0.4886300000000  0.5653370000000 1.0
C      1  0.4041220000000  0.4982290000000  0.4482050000000 1.0
END
