TITL C-2778424-3986-281 -0.00266273610326286 125000 -790.55608880895 0 0 135 (C1) n - 1
REM
REM in /home/nfs/bkarasulu/CARBON/AIRSS/Generating-Clusters/REBO/Only-C1/SD-CG/HFTN-CG
REM
REM
REM
REM
REM
REM ./C.cell (11c1c37f851c82e70ff6c80c92926a4b)
REM
REM compiler GCC version 9.2.1 20190827 (Red Hat 9.2.1-1)
REM options -cpp -mtune=generic -march=x86-64 -g -O0 -fpre-include=/usr/include/finclude/math-vector-fortran.h
REM seed 687459775 -385144717 -751306451 48082228 -468471304 -33768749 1189702964 -1656593423 219444608 217049077 -1202092488 121052198 1059147863 153147914 1403365110 1894224357 -138342409 2140651454 -95788938 785382367 -66878405 -902362631 1575465026 -2097558517 -1959950967 -949475866 1752491066 -1783830477 -2097509015 -276429505 -1020459130 -107313076 2025531157
REM
CELL 1.54180   50.00000   50.00000   50.00000   90.00000   90.00000   90.00000
LATT -1
SFAC C  
C      1  0.4979820000000  0.5204970000000  0.5553060000000 1.0
C      1  0.5032450000000  0.5554080000000  0.5954370000000 1.0
C      1  0.5029900000000  0.4206820000000  0.5122670000000 1.0
C      1  0.4912090000000  0.4598030000000  0.5268130000000 1.0
C      1  0.5343970000000  0.4752550000000  0.5820540000000 1.0
C      1  0.5556900000000  0.5671980000000  0.5013170000000 1.0
C      1  0.4508410000000  0.5391130000000  0.4427500000000 1.0
C      1  0.4791270000000  0.5950270000000  0.5217320000000 1.0
C      1  0.5759720000000  0.5456810000000  0.5077830000000 1.0
C      1  0.4120430000000  0.5490700000000  0.5323660000000 1.0
C      1  0.4798590000000  0.4646860000000  0.4960000000000 1.0
C      1  0.4278900000000  0.4990830000000  0.5362940000000 1.0
C      1  0.5088040000000  0.4572540000000  0.5758810000000 1.0
C      1  0.4769110000000  0.4788930000000  0.5469310000000 1.0
C      1  0.4582260000000  0.4547530000000  0.5547020000000 1.0
C      1  0.5228790000000  0.4419710000000  0.4352780000000 1.0
C      1  0.4617880000000  0.5009970000000  0.5324690000000 1.0
C      1  0.4930670000000  0.4936340000000  0.4303100000000 1.0
C      1  0.5429600000000  0.5791480000000  0.4463210000000 1.0
C      1  0.5390730000000  0.5424200000000  0.5223690000000 1.0
C      1  0.5470750000000  0.4309500000000  0.4266450000000 1.0
C      1  0.5364680000000  0.5762660000000  0.5256590000000 1.0
C      1  0.5358730000000  0.5331320000000  0.4075850000000 1.0
C      1  0.4935700000000  0.4991120000000  0.4787770000000 1.0
C      1  0.4930240000000  0.5575280000000  0.4697420000000 1.0
C      1  0.5116460000000  0.4512010000000  0.4620780000000 1.0
C      1  0.5183360000000  0.4029740000000  0.4571070000000 1.0
C      1  0.4076860000000  0.4993400000000  0.4675270000000 1.0
C      1  0.5015640000000  0.4882860000000  0.5637700000000 1.0
C      1  0.4757050000000  0.4360630000000  0.5686400000000 1.0
C      1  0.4704700000000  0.5203930000000  0.4727870000000 1.0
C      1  0.5885950000000  0.4746940000000  0.5381310000000 1.0
C      1  0.5200490000000  0.5042830000000  0.4576390000000 1.0
C      1  0.4613780000000  0.4659720000000  0.4590130000000 1.0
C      1  0.4739790000000  0.4757740000000  0.6061060000000 1.0
C      1  0.4331530000000  0.4391930000000  0.4777650000000 1.0
C      1  0.4777770000000  0.4251230000000  0.4380690000000 1.0
C      1  0.4572710000000  0.5729580000000  0.5301780000000 1.0
C      1  0.4340030000000  0.5286020000000  0.5258360000000 1.0
C      1  0.4627340000000  0.5421240000000  0.5725210000000 1.0
C      1  0.4817120000000  0.4519090000000  0.4174230000000 1.0
C      1  0.3878050000000  0.5190370000000  0.5624300000000 1.0
C      1  0.6164460000000  0.4988630000000  0.4864500000000 1.0
C      1  0.5787280000000  0.5395210000000  0.4269810000000 1.0
C      1  0.4828310000000  0.4079830000000  0.4877770000000 1.0
C      1  0.4939340000000  0.4196580000000  0.5452680000000 1.0
C      1  0.5487000000000  0.4861120000000  0.4541070000000 1.0
C      1  0.5371940000000  0.4410740000000  0.5110080000000 1.0
C      1  0.5437120000000  0.5060060000000  0.4197670000000 1.0
C      1  0.4358310000000  0.4848520000000  0.4585400000000 1.0
C      1  0.4749190000000  0.4046050000000  0.5209810000000 1.0
C      1  0.5990060000000  0.4820910000000  0.4703740000000 1.0
C      1  0.4294230000000  0.5666270000000  0.5149910000000 1.0
C      1  0.5182190000000  0.4322560000000  0.5601530000000 1.0
C      1  0.5910440000000  0.4584760000000  0.4848790000000 1.0
C      1  0.5300480000000  0.4895490000000  0.5006740000000 1.0
C      1  0.4483050000000  0.4942240000000  0.5995770000000 1.0
C      1  0.5219800000000  0.4877300000000  0.4173850000000 1.0
C      1  0.5260330000000  0.4765040000000  0.4739360000000 1.0
C      1  0.4672290000000  0.4363300000000  0.5206640000000 1.0
C      1  0.5145120000000  0.5336480000000  0.5777470000000 1.0
C      1  0.5483080000000  0.4479790000000  0.5682390000000 1.0
C      1  0.4908820000000  0.4102360000000  0.4603440000000 1.0
C      1  0.5084760000000  0.4463950000000  0.4935240000000 1.0
C      1  0.5406590000000  0.5697320000000  0.4751120000000 1.0
C      1  0.5374510000000  0.4804070000000  0.5479570000000 1.0
C      1  0.5607440000000  0.5031900000000  0.5362930000000 1.0
C      1  0.3886200000000  0.4772890000000  0.4762550000000 1.0
C      1  0.4302830000000  0.5557110000000  0.4886220000000 1.0
C      1  0.4605570000000  0.4719910000000  0.4137230000000 1.0
C      1  0.4867390000000  0.5382510000000  0.5361340000000 1.0
C      1  0.5624090000000  0.4133300000000  0.5246080000000 1.0
C      1  0.4790590000000  0.5367890000000  0.5959360000000 1.0
C      1  0.4841740000000  0.5885230000000  0.5551970000000 1.0
C      1  0.4614130000000  0.5427190000000  0.5166010000000 1.0
C      1  0.5933100000000  0.5037860000000  0.5296260000000 1.0
C      1  0.4513600000000  0.5641780000000  0.4657480000000 1.0
C      1  0.4840730000000  0.4521470000000  0.5941140000000 1.0
C      1  0.4351460000000  0.4665210000000  0.4298520000000 1.0
C      1  0.5646920000000  0.5693910000000  0.4311960000000 1.0
C      1  0.4796020000000  0.5204780000000  0.4429550000000 1.0
C      1  0.3929890000000  0.4537560000000  0.4895490000000 1.0
C      1  0.4446010000000  0.5050500000000  0.4813730000000 1.0
C      1  0.4759280000000  0.5098560000000  0.6071020000000 1.0
C      1  0.4538760000000  0.4449300000000  0.4919510000000 1.0
C      1  0.4359940000000  0.5030800000000  0.5757780000000 1.0
C      1  0.5587930000000  0.5521300000000  0.4048960000000 1.0
C      1  0.4531780000000  0.4414510000000  0.4432720000000 1.0
C      1  0.5994490000000  0.5137380000000  0.5042880000000 1.0
C      1  0.5575530000000  0.4807150000000  0.5136920000000 1.0
C      1  0.3898960000000  0.5423880000000  0.5479620000000 1.0
C      1  0.5618970000000  0.5377980000000  0.5558750000000 1.0
C      1  0.5216330000000  0.4674560000000  0.5248420000000 1.0
C      1  0.5699200000000  0.4374170000000  0.4421960000000 1.0
C      1  0.4377420000000  0.4461770000000  0.5313920000000 1.0
C      1  0.4111380000000  0.4480350000000  0.5099540000000 1.0
C      1  0.4794610000000  0.5512700000000  0.4177190000000 1.0
C      1  0.5707470000000  0.4205380000000  0.4647290000000 1.0
C      1  0.5166650000000  0.5816620000000  0.4343900000000 1.0
C      1  0.5109720000000  0.5723890000000  0.5690730000000 1.0
C      1  0.5095710000000  0.4598020000000  0.4168570000000 1.0
C      1  0.5361120000000  0.5573950000000  0.5531020000000 1.0
C      1  0.4094790000000  0.5012700000000  0.5630240000000 1.0
C      1  0.4691340000000  0.5463520000000  0.4873730000000 1.0
C      1  0.4587010000000  0.5295440000000  0.4110210000000 1.0
C      1  0.4198520000000  0.5272210000000  0.4836790000000 1.0
C      1  0.5387220000000  0.5222130000000  0.4964120000000 1.0
C      1  0.4259680000000  0.5228020000000  0.4508580000000 1.0
C      1  0.5694690000000  0.5129610000000  0.4334180000000 1.0
C      1  0.5000960000000  0.5650770000000  0.5377690000000 1.0
C      1  0.5756840000000  0.5014810000000  0.4625990000000 1.0
C      1  0.5792810000000  0.5408330000000  0.5346580000000 1.0
C      1  0.5090040000000  0.5847750000000  0.5134870000000 1.0
C      1  0.5800340000000  0.4612640000000  0.5111770000000 1.0
C      1  0.4919160000000  0.5674990000000  0.4404160000000 1.0
C      1  0.5448150000000  0.4297370000000  0.5419430000000 1.0
C      1  0.5721640000000  0.4654320000000  0.4458430000000 1.0
C      1  0.4539000000000  0.5187450000000  0.5591360000000 1.0
C      1  0.4595420000000  0.5677250000000  0.5616860000000 1.0
C      1  0.5569930000000  0.4206600000000  0.4943290000000 1.0
C      1  0.5432330000000  0.4047020000000  0.4687290000000 1.0
C      1  0.5115020000000  0.5772170000000  0.4849780000000 1.0
C      1  0.5204890000000  0.5304830000000  0.4411580000000 1.0
C      1  0.4898670000000  0.4755430000000  0.4569260000000 1.0
C      1  0.5229080000000  0.5409840000000  0.4730670000000 1.0
C      1  0.4601080000000  0.5936050000000  0.4721580000000 1.0
C      1  0.4210470000000  0.4734060000000  0.5245480000000 1.0
C      1  0.4672100000000  0.5017240000000  0.4100130000000 1.0
C      1  0.5715350000000  0.5203890000000  0.4873700000000 1.0
C      1  0.5069230000000  0.5422360000000  0.4133620000000 1.0
C      1  0.5273970000000  0.5060320000000  0.5780180000000 1.0
C      1  0.5579220000000  0.5067820000000  0.5692340000000 1.0
C      1  0.5687760000000  0.4746180000000  0.5624670000000 1.0
C      1  0.4682690000000  0.6042520000000  0.4932640000000 1.0
C      1  0.4690710000000  0.4947660000000  0.5027910000000 1.0
END
