TITL C-2778434-4341-388 0.00315918288363144 125000 -943.3411422602 0 0 159 (C1) n - 1
REM
REM in /home/nfs/bkarasulu/CARBON/AIRSS/Generating-Clusters/REBO/Only-C1/SD-CG/HFTN-CG
REM
REM
REM
REM
REM
REM ./C.cell (11c1c37f851c82e70ff6c80c92926a4b)
REM
REM compiler GCC version 9.2.1 20190827 (Red Hat 9.2.1-1)
REM options -cpp -mtune=generic -march=x86-64 -g -O0 -fpre-include=/usr/include/finclude/math-vector-fortran.h
REM seed -1643539281 1342981615 -1848782401 -1637530853 1289815249 1552112874 1178272778 -1016673708 990343068 1792692648 1300703995 89372081 -462001457 1007134583 -1147962651 -2050604722 1664175902 -912245000 295621295 -159397423 1246084641 1014594611 1057594535 -359450505 1530888168 518617741 -1582591232 -1361084465 1348403368 -374742689 2052099008 -2037327251 -1977021129
REM
CELL 1.54180   50.00000   50.00000   50.00000   90.00000   90.00000   90.00000
LATT -1
SFAC C  
C      1  0.4259680000000  0.4354920000000  0.4675220000000 1.0
C      1  0.4937860000000  0.4986160000000  0.3934920000000 1.0
C      1  0.5935760000000  0.5460680000000  0.4842070000000 1.0
C      1  0.4463220000000  0.5619850000000  0.5742920000000 1.0
C      1  0.5139620000000  0.4720760000000  0.4003800000000 1.0
C      1  0.6167020000000  0.5184710000000  0.5140470000000 1.0
C      1  0.5153970000000  0.3992030000000  0.5152420000000 1.0
C      1  0.4529020000000  0.4366230000000  0.5794080000000 1.0
C      1  0.4036030000000  0.5289390000000  0.5286510000000 1.0
C      1  0.5268450000000  0.5018020000000  0.5862200000000 1.0
C      1  0.3919360000000  0.5089300000000  0.5122970000000 1.0
C      1  0.5339220000000  0.4181460000000  0.5326020000000 1.0
C      1  0.4620470000000  0.5121170000000  0.4134060000000 1.0
C      1  0.5618860000000  0.4120010000000  0.4987370000000 1.0
C      1  0.6121120000000  0.4785750000000  0.4890880000000 1.0
C      1  0.4258530000000  0.5905000000000  0.4935600000000 1.0
C      1  0.4306190000000  0.5046240000000  0.4882630000000 1.0
C      1  0.4230900000000  0.5445510000000  0.5148480000000 1.0
C      1  0.4627070000000  0.4907990000000  0.5362340000000 1.0
C      1  0.5205090000000  0.5439150000000  0.5485400000000 1.0
C      1  0.5008840000000  0.5135000000000  0.4804440000000 1.0
C      1  0.4363030000000  0.4532930000000  0.5653820000000 1.0
C      1  0.5660560000000  0.5185810000000  0.4966390000000 1.0
C      1  0.4240150000000  0.4422130000000  0.5370710000000 1.0
C      1  0.5820910000000  0.5244810000000  0.4400210000000 1.0
C      1  0.5249420000000  0.4474510000000  0.6084530000000 1.0
C      1  0.4295540000000  0.4864440000000  0.5653520000000 1.0
C      1  0.5439470000000  0.4727580000000  0.4648690000000 1.0
C      1  0.5353420000000  0.4047560000000  0.4910310000000 1.0
C      1  0.5914980000000  0.4751960000000  0.5282840000000 1.0
C      1  0.5253780000000  0.4256800000000  0.5643180000000 1.0
C      1  0.5219240000000  0.4752520000000  0.6070090000000 1.0
C      1  0.5050410000000  0.4324420000000  0.4192430000000 1.0
C      1  0.4773260000000  0.4564990000000  0.5548630000000 1.0
C      1  0.4833970000000  0.4497630000000  0.4132810000000 1.0
C      1  0.4892700000000  0.4861470000000  0.5548780000000 1.0
C      1  0.4588330000000  0.5414140000000  0.4570040000000 1.0
C      1  0.4433450000000  0.5109220000000  0.5368880000000 1.0
C      1  0.3999640000000  0.5115540000000  0.4816460000000 1.0
C      1  0.4947200000000  0.5929970000000  0.5517760000000 1.0
C      1  0.5435090000000  0.4421640000000  0.4798110000000 1.0
C      1  0.4944820000000  0.5786930000000  0.5764240000000 1.0
C      1  0.4418960000000  0.5960790000000  0.4685670000000 1.0
C      1  0.4812060000000  0.5752230000000  0.4826070000000 1.0
C      1  0.4683840000000  0.4799950000000  0.4079120000000 1.0
C      1  0.4599720000000  0.4474400000000  0.4309240000000 1.0
C      1  0.4713040000000  0.5633900000000  0.5883650000000 1.0
C      1  0.5046640000000  0.5308720000000  0.3965060000000 1.0
C      1  0.4052270000000  0.4583560000000  0.4780200000000 1.0
C      1  0.4102720000000  0.4713810000000  0.5421120000000 1.0
C      1  0.4599270000000  0.3950080000000  0.5318250000000 1.0
C      1  0.5483580000000  0.4859030000000  0.4333250000000 1.0
C      1  0.5541380000000  0.4396410000000  0.5510310000000 1.0
C      1  0.4558180000000  0.5215620000000  0.4811140000000 1.0
C      1  0.4850230000000  0.4051720000000  0.4904780000000 1.0
C      1  0.4442990000000  0.5776110000000  0.5511420000000 1.0
C      1  0.4997800000000  0.4999390000000  0.4251940000000 1.0
C      1  0.5256380000000  0.5591020000000  0.5192110000000 1.0
C      1  0.4661190000000  0.4790130000000  0.4546180000000 1.0
C      1  0.4690910000000  0.4463730000000  0.5233650000000 1.0
C      1  0.4869000000000  0.5862120000000  0.4508390000000 1.0
C      1  0.4638960000000  0.5833960000000  0.5020880000000 1.0
C      1  0.4475340000000  0.5321770000000  0.5192360000000 1.0
C      1  0.4194770000000  0.5143820000000  0.4346960000000 1.0
C      1  0.4694490000000  0.4034340000000  0.4624850000000 1.0
C      1  0.5277690000000  0.4586420000000  0.5422100000000 1.0
C      1  0.4332370000000  0.5371570000000  0.5754210000000 1.0
C      1  0.5298890000000  0.5786500000000  0.4678020000000 1.0
C      1  0.5533740000000  0.4286710000000  0.4315740000000 1.0
C      1  0.4824990000000  0.4354820000000  0.5884530000000 1.0
C      1  0.5856930000000  0.5431220000000  0.5607420000000 1.0
C      1  0.5678510000000  0.5073710000000  0.5598110000000 1.0
C      1  0.5558300000000  0.5705410000000  0.5304420000000 1.0
C      1  0.4490720000000  0.4299170000000  0.4918370000000 1.0
C      1  0.4795900000000  0.4372690000000  0.4808830000000 1.0
C      1  0.4498410000000  0.5115030000000  0.5762350000000 1.0
C      1  0.4042190000000  0.5413420000000  0.4690300000000 1.0
C      1  0.5774160000000  0.4741880000000  0.4577640000000 1.0
C      1  0.4696620000000  0.5937910000000  0.5399880000000 1.0
C      1  0.4914500000000  0.4780780000000  0.4403370000000 1.0
C      1  0.4941830000000  0.4258990000000  0.5162710000000 1.0
C      1  0.5550780000000  0.5428630000000  0.4510120000000 1.0
C      1  0.5625630000000  0.5474860000000  0.4806900000000 1.0
C      1  0.5242410000000  0.4192950000000  0.4661350000000 1.0
C      1  0.4851800000000  0.5756710000000  0.4203500000000 1.0
C      1  0.4163070000000  0.4870730000000  0.4400510000000 1.0
C      1  0.4994780000000  0.4867890000000  0.5106850000000 1.0
C      1  0.5232970000000  0.5905880000000  0.5063670000000 1.0
C      1  0.5782370000000  0.4952850000000  0.4323940000000 1.0
C      1  0.5489640000000  0.5219920000000  0.5815100000000 1.0
C      1  0.5696970000000  0.4433490000000  0.4581140000000 1.0
C      1  0.4760070000000  0.5135300000000  0.5662180000000 1.0
C      1  0.4772590000000  0.4670420000000  0.5875840000000 1.0
C      1  0.5407360000000  0.4437950000000  0.5136910000000 1.0
C      1  0.4156770000000  0.5430670000000  0.4423120000000 1.0
C      1  0.6019630000000  0.5428520000000  0.5110630000000 1.0
C      1  0.5794140000000  0.4757250000000  0.4975470000000 1.0
C      1  0.5707640000000  0.5021980000000  0.5261960000000 1.0
C      1  0.4622880000000  0.4299220000000  0.4520430000000 1.0
C      1  0.5258650000000  0.4233680000000  0.4371330000000 1.0
C      1  0.4481730000000  0.5208550000000  0.4355910000000 1.0
C      1  0.5173370000000  0.4708590000000  0.4962290000000 1.0
C      1  0.5215800000000  0.5923110000000  0.5403620000000 1.0
C      1  0.5369440000000  0.5076430000000  0.5463120000000 1.0
C      1  0.5606610000000  0.5492970000000  0.5751310000000 1.0
C      1  0.4032470000000  0.4830970000000  0.4650220000000 1.0
C      1  0.5824090000000  0.5519650000000  0.5310430000000 1.0
C      1  0.5336720000000  0.5338610000000  0.4141210000000 1.0
C      1  0.5192510000000  0.4849800000000  0.5576090000000 1.0
C      1  0.5636850000000  0.5423570000000  0.4182480000000 1.0
C      1  0.5429990000000  0.5746550000000  0.5604930000000 1.0
C      1  0.5270140000000  0.5104640000000  0.4326090000000 1.0
C      1  0.5109390000000  0.4300930000000  0.5906430000000 1.0
C      1  0.4406370000000  0.5949620000000  0.5221150000000 1.0
C      1  0.5051850000000  0.4529980000000  0.4771040000000 1.0
C      1  0.5273180000000  0.5009070000000  0.4636060000000 1.0
C      1  0.4730990000000  0.5343310000000  0.4012130000000 1.0
C      1  0.5102840000000  0.4580620000000  0.4494410000000 1.0
C      1  0.5260940000000  0.4660060000000  0.4244830000000 1.0
C      1  0.5191170000000  0.5589020000000  0.5767620000000 1.0
C      1  0.4984100000000  0.5240790000000  0.5472320000000 1.0
C      1  0.4376850000000  0.4762160000000  0.4952080000000 1.0
C      1  0.5323530000000  0.5166770000000  0.4915430000000 1.0
C      1  0.5843070000000  0.4232140000000  0.4349320000000 1.0
C      1  0.4951590000000  0.5133890000000  0.5212230000000 1.0
C      1  0.4163570000000  0.5164670000000  0.5554790000000 1.0
C      1  0.5448430000000  0.5674230000000  0.4923830000000 1.0
C      1  0.5504350000000  0.4727490000000  0.5041900000000 1.0
C      1  0.4891940000000  0.5443050000000  0.4827550000000 1.0
C      1  0.4437160000000  0.4614410000000  0.4681010000000 1.0
C      1  0.4178110000000  0.5596000000000  0.4900010000000 1.0
C      1  0.5787870000000  0.4458020000000  0.5338370000000 1.0
C      1  0.4934870000000  0.4860790000000  0.6011090000000 1.0
C      1  0.5825430000000  0.5015000000000  0.4754930000000 1.0
C      1  0.5793870000000  0.4277870000000  0.5127060000000 1.0
C      1  0.5057770000000  0.5959270000000  0.4776580000000 1.0
C      1  0.4364470000000  0.5585640000000  0.4273760000000 1.0
C      1  0.4751540000000  0.5296740000000  0.5063080000000 1.0
C      1  0.4424240000000  0.4744920000000  0.4305350000000 1.0
C      1  0.6045500000000  0.5236140000000  0.4641430000000 1.0
C      1  0.5378170000000  0.4988630000000  0.5161360000000 1.0
C      1  0.4234030000000  0.4484520000000  0.5050270000000 1.0
C      1  0.4624860000000  0.5593230000000  0.4130340000000 1.0
C      1  0.4467050000000  0.4224800000000  0.5242150000000 1.0
C      1  0.4833390000000  0.3877060000000  0.5180590000000 1.0
C      1  0.5243770000000  0.5558170000000  0.4461530000000 1.0
C      1  0.5983160000000  0.5152820000000  0.5591500000000 1.0
C      1  0.3932540000000  0.4835390000000  0.5248540000000 1.0
C      1  0.6094130000000  0.5018370000000  0.5364670000000 1.0
C      1  0.5105820000000  0.5586310000000  0.4156970000000 1.0
C      1  0.4414350000000  0.5658980000000  0.4663120000000 1.0
C      1  0.6201070000000  0.5053450000000  0.4882960000000 1.0
C      1  0.4908420000000  0.5520220000000  0.4516740000000 1.0
C      1  0.4990790000000  0.5164470000000  0.5985180000000 1.0
C      1  0.4678980000000  0.4756030000000  0.5081720000000 1.0
C      1  0.5020980000000  0.4392810000000  0.5441330000000 1.0
C      1  0.4950830000000  0.5430970000000  0.5940770000000 1.0
C      1  0.4744790000000  0.4950450000000  0.4802020000000 1.0
C      1  0.5522900000000  0.5369150000000  0.5381980000000 1.0
END
