TITL C-2778426-5645-817 -0.273105858477639 125000 -246.765125746661 0 0 44 (C1) n - 1
REM
REM in /home/nfs/bkarasulu/CARBON/AIRSS/Generating-Clusters/REBO/Only-C1/SD-CG/HFTN-CG
REM
REM
REM
REM
REM
REM ./C.cell (11c1c37f851c82e70ff6c80c92926a4b)
REM
REM compiler GCC version 9.2.1 20190827 (Red Hat 9.2.1-1)
REM options -cpp -mtune=generic -march=x86-64 -g -O0 -fpre-include=/usr/include/finclude/math-vector-fortran.h
REM seed 1786749264 -1497920357 1431229775 1316566000 -1229610476 1736936616 1004983737 1889168782 572055757 -169586986 -1671742302 -1388130051 2015594888 1598064080 -1576343566 731855714 413389370 545026663 -711337615 670332685 624004079 321205610 -1919130851 243593188 -1436895611 -1350228301 1593483258 1981614901 50086841 -1783791656 1940271537 454682945 827265934
REM
CELL 1.54180   50.00000   50.00000   50.00000   90.00000   90.00000   90.00000
LATT -1
SFAC C  
C      1  0.5444280000000  0.4813170000000  0.5380820000000 1.0
C      1  0.5229100000000  0.5350530000000  0.5240330000000 1.0
C      1  0.5490890000000  0.4384480000000  0.5093100000000 1.0
C      1  0.4597610000000  0.5219970000000  0.5328960000000 1.0
C      1  0.5946400000000  0.5076490000000  0.5260350000000 1.0
C      1  0.4250130000000  0.5384450000000  0.5697590000000 1.0
C      1  0.4856040000000  0.4551260000000  0.4579900000000 1.0
C      1  0.4367630000000  0.4991370000000  0.4832600000000 1.0
C      1  0.3992960000000  0.4749000000000  0.5203820000000 1.0
C      1  0.5386870000000  0.5324180000000  0.5478300000000 1.0
C      1  0.4423870000000  0.5302210000000  0.5513270000000 1.0
C      1  0.6075090000000  0.5305820000000  0.4959090000000 1.0
C      1  0.4079160000000  0.5465380000000  0.5878970000000 1.0
C      1  0.4881280000000  0.4510610000000  0.4861740000000 1.0
C      1  0.5454080000000  0.5075480000000  0.5579890000000 1.0
C      1  0.4710740000000  0.4791050000000  0.4513960000000 1.0
C      1  0.4685570000000  0.5063780000000  0.4881290000000 1.0
C      1  0.4173140000000  0.4865560000000  0.5025300000000 1.0
C      1  0.5115180000000  0.5479040000000  0.4763010000000 1.0
C      1  0.3808760000000  0.4905410000000  0.5330340000000 1.0
C      1  0.5067600000000  0.4630160000000  0.5007930000000 1.0
C      1  0.4907070000000  0.5363120000000  0.4511230000000 1.0
C      1  0.5159760000000  0.5171290000000  0.4617080000000 1.0
C      1  0.5078980000000  0.4438050000000  0.4436020000000 1.0
C      1  0.5082310000000  0.4405740000000  0.4166600000000 1.0
C      1  0.5336510000000  0.4800050000000  0.4883340000000 1.0
C      1  0.4377220000000  0.5313960000000  0.4835630000000 1.0
C      1  0.5723410000000  0.4962640000000  0.5309340000000 1.0
C      1  0.5399110000000  0.5048210000000  0.4737630000000 1.0
C      1  0.4780430000000  0.5133430000000  0.5135030000000 1.0
C      1  0.6333780000000  0.5331790000000  0.4992020000000 1.0
C      1  0.5812160000000  0.5279440000000  0.4925600000000 1.0
C      1  0.5214350000000  0.4865270000000  0.5183550000000 1.0
C      1  0.5539480000000  0.5258730000000  0.4881110000000 1.0
C      1  0.5303990000000  0.4386800000000  0.4605300000000 1.0
C      1  0.4440300000000  0.4811900000000  0.4575770000000 1.0
C      1  0.4848500000000  0.5046090000000  0.4610670000000 1.0
C      1  0.5498390000000  0.4505330000000  0.5340990000000 1.0
C      1  0.4540400000000  0.5528050000000  0.4822210000000 1.0
C      1  0.5056640000000  0.5121080000000  0.5205720000000 1.0
C      1  0.4789400000000  0.5573500000000  0.4736060000000 1.0
C      1  0.5406630000000  0.4494970000000  0.4844940000000 1.0
C      1  0.4003520000000  0.4480280000000  0.5249350000000 1.0
C      1  0.5331250000000  0.5440900000000  0.4984250000000 1.0
END
