TITL C-2778431-5191-1222 -0.000464950336279714 125000 -714.931070126876 0 0 123 (C1) n - 1
REM
REM in /home/nfs/bkarasulu/CARBON/AIRSS/Generating-Clusters/REBO/Only-C1/SD-CG/HFTN-CG
REM
REM
REM
REM
REM
REM ./C.cell (11c1c37f851c82e70ff6c80c92926a4b)
REM
REM compiler GCC version 9.2.1 20190827 (Red Hat 9.2.1-1)
REM options -cpp -mtune=generic -march=x86-64 -g -O0 -fpre-include=/usr/include/finclude/math-vector-fortran.h
REM seed -1800166664 335460894 -788868665 1319092673 1230598674 -1807317172 1565372491 1019270994 -694567432 643596260 508883826 -1656451111 242978344 1588615823 -1134419205 -1505178643 -451527848 -342916313 1493641649 931560450 -891047963 1896832568 -1136499858 -360459885 432064621 385684390 200846537 -160406215 -1456433263 -308561490 -1750146964 1618098487 -275828181
REM
CELL 1.54180   50.00000   50.00000   50.00000   90.00000   90.00000   90.00000
LATT -1
SFAC C  
C      1  0.4968690000000  0.4084890000000  0.5171410000000 1.0
C      1  0.5530630000000  0.4561200000000  0.5313540000000 1.0
C      1  0.4650340000000  0.4690770000000  0.5439620000000 1.0
C      1  0.5563610000000  0.5776760000000  0.5489130000000 1.0
C      1  0.4720110000000  0.4795610000000  0.4027060000000 1.0
C      1  0.5591440000000  0.5461450000000  0.4416420000000 1.0
C      1  0.5533700000000  0.4223350000000  0.4815480000000 1.0
C      1  0.5521720000000  0.5710530000000  0.4546460000000 1.0
C      1  0.4668720000000  0.4788160000000  0.5887760000000 1.0
C      1  0.4310810000000  0.5588810000000  0.5220570000000 1.0
C      1  0.4547260000000  0.5041800000000  0.4174560000000 1.0
C      1  0.4394740000000  0.4299620000000  0.4504940000000 1.0
C      1  0.4445150000000  0.5754860000000  0.4997100000000 1.0
C      1  0.4629620000000  0.5359120000000  0.4262880000000 1.0
C      1  0.4043080000000  0.4710870000000  0.4770140000000 1.0
C      1  0.5560400000000  0.4890960000000  0.5090040000000 1.0
C      1  0.4258440000000  0.5091260000000  0.5397830000000 1.0
C      1  0.5937400000000  0.5448350000000  0.4916590000000 1.0
C      1  0.4638610000000  0.4616750000000  0.4783550000000 1.0
C      1  0.4739360000000  0.4670150000000  0.5057960000000 1.0
C      1  0.5404430000000  0.4648180000000  0.5618520000000 1.0
C      1  0.4746200000000  0.5815550000000  0.5110660000000 1.0
C      1  0.5012830000000  0.5355770000000  0.4694830000000 1.0
C      1  0.5120400000000  0.4523780000000  0.5757280000000 1.0
C      1  0.5102370000000  0.5214270000000  0.5157120000000 1.0
C      1  0.5316050000000  0.4225450000000  0.5310550000000 1.0
C      1  0.4711040000000  0.4934850000000  0.5133690000000 1.0
C      1  0.4857490000000  0.5590120000000  0.4373710000000 1.0
C      1  0.5828310000000  0.5246490000000  0.4742300000000 1.0
C      1  0.5422820000000  0.5063710000000  0.5950350000000 1.0
C      1  0.4432820000000  0.4577360000000  0.4360620000000 1.0
C      1  0.4990670000000  0.4701880000000  0.5420340000000 1.0
C      1  0.5275900000000  0.5396620000000  0.4562060000000 1.0
C      1  0.4154520000000  0.4699680000000  0.4513310000000 1.0
C      1  0.4516840000000  0.4230580000000  0.4737630000000 1.0
C      1  0.5117710000000  0.4394060000000  0.5379310000000 1.0
C      1  0.4442720000000  0.4414670000000  0.4984860000000 1.0
C      1  0.4893240000000  0.4384870000000  0.5708700000000 1.0
C      1  0.4782460000000  0.4955710000000  0.4385900000000 1.0
C      1  0.4641710000000  0.5415470000000  0.5502270000000 1.0
C      1  0.4451010000000  0.5672240000000  0.5468800000000 1.0
C      1  0.4294460000000  0.5671910000000  0.4708210000000 1.0
C      1  0.4560760000000  0.5094680000000  0.4964500000000 1.0
C      1  0.5368960000000  0.4980460000000  0.5542310000000 1.0
C      1  0.4692980000000  0.5225280000000  0.5846950000000 1.0
C      1  0.4179970000000  0.5434440000000  0.4672300000000 1.0
C      1  0.4859010000000  0.4406670000000  0.5188450000000 1.0
C      1  0.5219380000000  0.4459670000000  0.4842730000000 1.0
C      1  0.4411800000000  0.5109340000000  0.4662680000000 1.0
C      1  0.5562440000000  0.5679880000000  0.5184320000000 1.0
C      1  0.4646850000000  0.5362710000000  0.4986640000000 1.0
C      1  0.5777210000000  0.5476300000000  0.5141230000000 1.0
C      1  0.5246070000000  0.4865060000000  0.4000380000000 1.0
C      1  0.5005690000000  0.3986000000000  0.4909840000000 1.0
C      1  0.4552810000000  0.5363180000000  0.4545800000000 1.0
C      1  0.4602440000000  0.4360620000000  0.5641910000000 1.0
C      1  0.5290620000000  0.5772520000000  0.4697650000000 1.0
C      1  0.4983880000000  0.4850220000000  0.3941920000000 1.0
C      1  0.5147920000000  0.5188240000000  0.5553320000000 1.0
C      1  0.4968280000000  0.5825930000000  0.4907820000000 1.0
C      1  0.6449620000000  0.4903880000000  0.4897240000000 1.0
C      1  0.5283730000000  0.4795130000000  0.5272610000000 1.0
C      1  0.4490930000000  0.4428570000000  0.5323220000000 1.0
C      1  0.4142420000000  0.4526040000000  0.4962070000000 1.0
C      1  0.4794000000000  0.4787540000000  0.4611960000000 1.0
C      1  0.4343170000000  0.5977340000000  0.4759680000000 1.0
C      1  0.5932540000000  0.4977890000000  0.4756450000000 1.0
C      1  0.4790040000000  0.4156080000000  0.4739750000000 1.0
C      1  0.5483310000000  0.4625030000000  0.4887800000000 1.0
C      1  0.4204560000000  0.4590170000000  0.5252240000000 1.0
C      1  0.4165360000000  0.5188860000000  0.4881640000000 1.0
C      1  0.4745550000000  0.5454470000000  0.4732430000000 1.0
C      1  0.4896780000000  0.4399260000000  0.4266030000000 1.0
C      1  0.5649920000000  0.5127720000000  0.5513610000000 1.0
C      1  0.5638900000000  0.4403470000000  0.4598160000000 1.0
C      1  0.3868730000000  0.4915190000000  0.5161400000000 1.0
C      1  0.4470880000000  0.4592640000000  0.5781470000000 1.0
C      1  0.5515040000000  0.5004270000000  0.4770690000000 1.0
C      1  0.5255420000000  0.5802670000000  0.5374700000000 1.0
C      1  0.5310830000000  0.4787910000000  0.4640570000000 1.0
C      1  0.5279900000000  0.5794010000000  0.5033110000000 1.0
C      1  0.5711120000000  0.5636760000000  0.5669190000000 1.0
C      1  0.6199130000000  0.4939730000000  0.4829030000000 1.0
C      1  0.4682130000000  0.4559450000000  0.4184830000000 1.0
C      1  0.5022830000000  0.5394500000000  0.4222360000000 1.0
C      1  0.4083340000000  0.4834510000000  0.5334670000000 1.0
C      1  0.5682360000000  0.5086040000000  0.5841270000000 1.0
C      1  0.5494560000000  0.5310830000000  0.4773130000000 1.0
C      1  0.5810490000000  0.4720430000000  0.5232220000000 1.0
C      1  0.5406360000000  0.5349070000000  0.5074360000000 1.0
C      1  0.4996460000000  0.5688140000000  0.5564630000000 1.0
C      1  0.5010610000000  0.5090530000000  0.4317030000000 1.0
C      1  0.5429620000000  0.4594040000000  0.4407820000000 1.0
C      1  0.5041100000000  0.5127000000000  0.4869390000000 1.0
C      1  0.5307010000000  0.5235630000000  0.4269760000000 1.0
C      1  0.5614830000000  0.5158370000000  0.4266580000000 1.0
C      1  0.5755830000000  0.4697110000000  0.4694160000000 1.0
C      1  0.4869290000000  0.4923180000000  0.5650270000000 1.0
C      1  0.5526540000000  0.4292580000000  0.5102840000000 1.0
C      1  0.5284800000000  0.5302640000000  0.5910000000000 1.0
C      1  0.4985170000000  0.5741350000000  0.4592880000000 1.0
C      1  0.5213560000000  0.5486490000000  0.5296160000000 1.0
C      1  0.3961290000000  0.4959270000000  0.4894230000000 1.0
C      1  0.5275310000000  0.5496850000000  0.5631000000000 1.0
C      1  0.4238410000000  0.5305940000000  0.5173190000000 1.0
C      1  0.4891880000000  0.5080310000000  0.5350720000000 1.0
C      1  0.4701850000000  0.5508660000000  0.5205780000000 1.0
C      1  0.5040950000000  0.4872680000000  0.4742730000000 1.0
C      1  0.5218130000000  0.4423990000000  0.4281330000000 1.0
C      1  0.5476630000000  0.4852030000000  0.4202030000000 1.0
C      1  0.4977610000000  0.4841570000000  0.5948020000000 1.0
C      1  0.4388370000000  0.4909480000000  0.4434140000000 1.0
C      1  0.4420690000000  0.4858690000000  0.5582860000000 1.0
C      1  0.4943760000000  0.4378100000000  0.4882580000000 1.0
C      1  0.5218740000000  0.4139600000000  0.4718960000000 1.0
C      1  0.5095010000000  0.4185600000000  0.4441190000000 1.0
C      1  0.5763990000000  0.5369250000000  0.5716740000000 1.0
C      1  0.4903780000000  0.5383180000000  0.5688210000000 1.0
C      1  0.5652510000000  0.5187120000000  0.5224180000000 1.0
C      1  0.5653600000000  0.4916760000000  0.4479920000000 1.0
C      1  0.4470530000000  0.5171060000000  0.5640890000000 1.0
C      1  0.5282120000000  0.4794970000000  0.5901090000000 1.0
C      1  0.4739170000000  0.5818670000000  0.5445990000000 1.0
END
