TITL C-2778427-5640-549 -0.000237228063722329 125000 -285.689059954437 0 0 51 (C1) n - 1
REM
REM in /home/nfs/bkarasulu/CARBON/AIRSS/Generating-Clusters/REBO/Only-C1/SD-CG/HFTN-CG
REM
REM
REM
REM
REM
REM ./C.cell (11c1c37f851c82e70ff6c80c92926a4b)
REM
REM compiler GCC version 9.2.1 20190827 (Red Hat 9.2.1-1)
REM options -cpp -mtune=generic -march=x86-64 -g -O0 -fpre-include=/usr/include/finclude/math-vector-fortran.h
REM seed 529396630 112826969 -333012811 1162043965 43007834 -356761035 1320673116 -1023946076 992257227 -215901473 -1439704390 2021396023 1578152104 1779867417 -1941508154 -381460391 -1803873057 -627849996 -1652624488 1326705005 -1500152170 -431911323 -854181260 1571844348 -517947731 1334545262 -947874968 2016357121 -143239602 -1303987124 -1301590983 168447237 21859728
REM
CELL 1.54180   50.00000   50.00000   50.00000   90.00000   90.00000   90.00000
LATT -1
SFAC C  
C      1  0.5465440000000  0.4830550000000  0.5242760000000 1.0
C      1  0.5149440000000  0.4953700000000  0.5696500000000 1.0
C      1  0.5352880000000  0.4556170000000  0.5289270000000 1.0
C      1  0.5087830000000  0.4414330000000  0.4887760000000 1.0
C      1  0.4662670000000  0.5198870000000  0.5635340000000 1.0
C      1  0.5040110000000  0.5406550000000  0.4502490000000 1.0
C      1  0.4960910000000  0.5153600000000  0.5777250000000 1.0
C      1  0.4691000000000  0.5020490000000  0.4939110000000 1.0
C      1  0.5299850000000  0.5036460000000  0.5410230000000 1.0
C      1  0.5396200000000  0.5087770000000  0.4365320000000 1.0
C      1  0.4692310000000  0.4537890000000  0.5166290000000 1.0
C      1  0.5261400000000  0.4644880000000  0.4611850000000 1.0
C      1  0.5368150000000  0.5677830000000  0.4781150000000 1.0
C      1  0.4584890000000  0.4263920000000  0.5076510000000 1.0
C      1  0.5129240000000  0.5252550000000  0.4975750000000 1.0
C      1  0.5544420000000  0.5351380000000  0.5069600000000 1.0
C      1  0.4474440000000  0.4700800000000  0.5350390000000 1.0
C      1  0.5045140000000  0.4686260000000  0.5636780000000 1.0
C      1  0.4846700000000  0.5682310000000  0.4857570000000 1.0
C      1  0.5146480000000  0.5783420000000  0.4989790000000 1.0
C      1  0.5183660000000  0.4630700000000  0.5041490000000 1.0
C      1  0.5475830000000  0.4685150000000  0.4774280000000 1.0
C      1  0.4991320000000  0.5513640000000  0.5106000000000 1.0
C      1  0.5371380000000  0.5605690000000  0.5173210000000 1.0
C      1  0.4754460000000  0.5445420000000  0.4627610000000 1.0
C      1  0.5556560000000  0.4875320000000  0.4973140000000 1.0
C      1  0.5373520000000  0.5317920000000  0.5336800000000 1.0
C      1  0.4508770000000  0.5475810000000  0.4858120000000 1.0
C      1  0.5083470000000  0.5181570000000  0.4311760000000 1.0
C      1  0.4682700000000  0.5114660000000  0.4621360000000 1.0
C      1  0.4651820000000  0.5561760000000  0.5117430000000 1.0
C      1  0.4293450000000  0.4820870000000  0.5184970000000 1.0
C      1  0.4651380000000  0.4480350000000  0.4592150000000 1.0
C      1  0.4800320000000  0.4701410000000  0.5437310000000 1.0
C      1  0.4712130000000  0.5340410000000  0.5329700000000 1.0
C      1  0.4386440000000  0.4883740000000  0.4937180000000 1.0
C      1  0.5158630000000  0.4913600000000  0.4980370000000 1.0
C      1  0.4619300000000  0.4219060000000  0.4807810000000 1.0
C      1  0.4925800000000  0.4680030000000  0.4620080000000 1.0
C      1  0.5488830000000  0.5202610000000  0.4609350000000 1.0
C      1  0.5239130000000  0.4499010000000  0.5543170000000 1.0
C      1  0.4751850000000  0.4696470000000  0.4911970000000 1.0
C      1  0.4881840000000  0.4945980000000  0.4428270000000 1.0
C      1  0.4901060000000  0.5425650000000  0.5600010000000 1.0
C      1  0.4910240000000  0.4291840000000  0.4710560000000 1.0
C      1  0.4984330000000  0.4943350000000  0.5336920000000 1.0
C      1  0.4544970000000  0.4798740000000  0.4646510000000 1.0
C      1  0.5591900000000  0.5145250000000  0.4879240000000 1.0
C      1  0.5263240000000  0.5389130000000  0.4716270000000 1.0
C      1  0.4861100000000  0.5139210000000  0.5144370000000 1.0
C      1  0.5201050000000  0.4835950000000  0.4380860000000 1.0
END
