TITL C-2778429-3646-778 -4.7727047482429e-07 125000 -130.213203083933 0 0 23 (C1) n - 1
REM
REM in /home/nfs/bkarasulu/CARBON/AIRSS/Generating-Clusters/REBO/Only-C1/SD-CG/HFTN-CG
REM
REM
REM
REM
REM
REM ./C.cell (11c1c37f851c82e70ff6c80c92926a4b)
REM
REM compiler GCC version 9.2.1 20190827 (Red Hat 9.2.1-1)
REM options -cpp -mtune=generic -march=x86-64 -g -O0 -fpre-include=/usr/include/finclude/math-vector-fortran.h
REM seed 1210401695 -94713518 -1891123594 207260738 -973906160 -1039828845 -1774219098 -1124966916 -836381348 671674427 420413197 -1555264370 -1535949015 873722288 1283350126 -1157602090 1680076154 -612131963 -1115981137 80630969 1680692033 680803362 -1799283276 -645724085 1067811951 986214402 -2122648216 40913170 -1358588330 1502498541 785773676 -864706279 -1909243325
REM
CELL 1.54180   50.00000   50.00000   50.00000   90.00000   90.00000   90.00000
LATT -1
SFAC C  
C      1  0.4838500000000  0.4849080000000  0.4783630000000 1.0
C      1  0.5773710000000  0.4866320000000  0.4813090000000 1.0
C      1  0.4960650000000  0.4496280000000  0.5090590000000 1.0
C      1  0.5499410000000  0.4915260000000  0.4718990000000 1.0
C      1  0.5262320000000  0.5264780000000  0.4471510000000 1.0
C      1  0.4966280000000  0.5237430000000  0.5267170000000 1.0
C      1  0.5342970000000  0.5294990000000  0.4962190000000 1.0
C      1  0.5240610000000  0.5200730000000  0.5211890000000 1.0
C      1  0.5318740000000  0.4758880000000  0.4906040000000 1.0
C      1  0.5761120000000  0.4783750000000  0.5083990000000 1.0
C      1  0.5401080000000  0.4963110000000  0.5615830000000 1.0
C      1  0.3884700000000  0.5139910000000  0.5250650000000 1.0
C      1  0.4143180000000  0.5113930000000  0.5192060000000 1.0
C      1  0.5041560000000  0.4690420000000  0.4915650000000 1.0
C      1  0.5378510000000  0.4980930000000  0.5345760000000 1.0
C      1  0.5030570000000  0.5141400000000  0.4393310000000 1.0
C      1  0.4713620000000  0.5158840000000  0.5192900000000 1.0
C      1  0.3630330000000  0.5165480000000  0.5308310000000 1.0
C      1  0.5408260000000  0.5192420000000  0.4703600000000 1.0
C      1  0.5478910000000  0.4777160000000  0.5164240000000 1.0
C      1  0.4639000000000  0.4961820000000  0.4948340000000 1.0
C      1  0.4879790000000  0.4959600000000  0.4527830000000 1.0
C      1  0.4406180000000  0.5087490000000  0.5132440000000 1.0
END
