TITL C-2778437-8639-814 -4.33044728460769e-05 125000 -786.904449518502 0 0 138 (C1) n - 1
REM
REM in /home/nfs/bkarasulu/CARBON/AIRSS/Generating-Clusters/REBO/Only-C1/SD-CG/HFTN-CG
REM
REM
REM
REM
REM
REM ./C.cell (11c1c37f851c82e70ff6c80c92926a4b)
REM
REM compiler GCC version 9.2.1 20190827 (Red Hat 9.2.1-1)
REM options -cpp -mtune=generic -march=x86-64 -g -O0 -fpre-include=/usr/include/finclude/math-vector-fortran.h
REM seed 572231385 1232129988 110867062 -2112740197 385288676 1567576885 337688395 -182195059 34298873 -1216195433 795160265 653810366 -398040881 -1982054704 -1016302248 1935142150 1553680542 790082303 -1758359275 737834333 15247099 -1558277750 -323430246 -1568493680 -1455144437 -1600831494 555890551 -959624621 2106575796 2117484863 -1982023262 971477609 -479154358
REM
CELL 1.54180   50.00000   50.00000   50.00000   90.00000   90.00000   90.00000
LATT -1
SFAC C  
C      1  0.4629820000000  0.4763210000000  0.5542750000000 1.0
C      1  0.4934250000000  0.4419010000000  0.5282770000000 1.0
C      1  0.5194710000000  0.4209180000000  0.4803780000000 1.0
C      1  0.5954120000000  0.4727970000000  0.5086650000000 1.0
C      1  0.5162830000000  0.5324290000000  0.6287310000000 1.0
C      1  0.5219500000000  0.5714870000000  0.4235790000000 1.0
C      1  0.4343530000000  0.5191200000000  0.5143310000000 1.0
C      1  0.5301000000000  0.4267000000000  0.4305850000000 1.0
C      1  0.5830200000000  0.4886930000000  0.5361350000000 1.0
C      1  0.5247100000000  0.4518030000000  0.5275330000000 1.0
C      1  0.4595940000000  0.5797090000000  0.4684230000000 1.0
C      1  0.4789380000000  0.5494120000000  0.5562250000000 1.0
C      1  0.5263760000000  0.4592080000000  0.4238360000000 1.0
C      1  0.4862680000000  0.4729330000000  0.4902880000000 1.0
C      1  0.5164780000000  0.5850770000000  0.4749160000000 1.0
C      1  0.4752980000000  0.5915880000000  0.5310990000000 1.0
C      1  0.4506820000000  0.5419670000000  0.4403590000000 1.0
C      1  0.5678570000000  0.4385670000000  0.4903320000000 1.0
C      1  0.5730730000000  0.5403890000000  0.5002900000000 1.0
C      1  0.4735070000000  0.5273160000000  0.5773700000000 1.0
C      1  0.5245500000000  0.4498530000000  0.5694690000000 1.0
C      1  0.5155160000000  0.4786770000000  0.5844280000000 1.0
C      1  0.5101890000000  0.5318770000000  0.5308580000000 1.0
C      1  0.4980850000000  0.5257400000000  0.4275650000000 1.0
C      1  0.5837440000000  0.5576570000000  0.5242750000000 1.0
C      1  0.5104890000000  0.4158890000000  0.4484910000000 1.0
C      1  0.5439730000000  0.5496150000000  0.4144690000000 1.0
C      1  0.4928330000000  0.5039700000000  0.5805670000000 1.0
C      1  0.5483650000000  0.4288940000000  0.5639280000000 1.0
C      1  0.4321990000000  0.4514520000000  0.4771150000000 1.0
C      1  0.4577970000000  0.5124290000000  0.5381320000000 1.0
C      1  0.3987310000000  0.5023250000000  0.5190930000000 1.0
C      1  0.4626640000000  0.5288240000000  0.5023150000000 1.0
C      1  0.5339930000000  0.5948110000000  0.5025220000000 1.0
C      1  0.5649370000000  0.5621780000000  0.4617130000000 1.0
C      1  0.5189340000000  0.4117890000000  0.5592810000000 1.0
C      1  0.4493330000000  0.4646560000000  0.5814830000000 1.0
C      1  0.5481620000000  0.5165460000000  0.4221790000000 1.0
C      1  0.4158570000000  0.5517320000000  0.4873500000000 1.0
C      1  0.4944200000000  0.5647620000000  0.4206580000000 1.0
C      1  0.5347170000000  0.4768470000000  0.5162690000000 1.0
C      1  0.5030170000000  0.5705890000000  0.5611780000000 1.0
C      1  0.4973380000000  0.4560810000000  0.5563790000000 1.0
C      1  0.4143960000000  0.5048730000000  0.4561120000000 1.0
C      1  0.5362110000000  0.5040150000000  0.5614940000000 1.0
C      1  0.5442620000000  0.5477950000000  0.4466810000000 1.0
C      1  0.4649830000000  0.4876340000000  0.4522170000000 1.0
C      1  0.5478970000000  0.5468190000000  0.5362660000000 1.0
C      1  0.5856130000000  0.4599210000000  0.4832370000000 1.0
C      1  0.4284030000000  0.4325180000000  0.5071970000000 1.0
C      1  0.5824630000000  0.5421310000000  0.4721880000000 1.0
C      1  0.5493320000000  0.4794970000000  0.5785910000000 1.0
C      1  0.4286810000000  0.5341780000000  0.4621010000000 1.0
C      1  0.4810320000000  0.5538430000000  0.4503140000000 1.0
C      1  0.4810570000000  0.5447040000000  0.5224760000000 1.0
C      1  0.5239330000000  0.5074650000000  0.4031460000000 1.0
C      1  0.4920800000000  0.4867760000000  0.5530980000000 1.0
C      1  0.4907750000000  0.4173390000000  0.5490680000000 1.0
C      1  0.4556350000000  0.4886070000000  0.4264720000000 1.0
C      1  0.4819790000000  0.5076870000000  0.4712790000000 1.0
C      1  0.5525610000000  0.4405250000000  0.4464920000000 1.0
C      1  0.4570720000000  0.4242340000000  0.4970440000000 1.0
C      1  0.5083810000000  0.5120770000000  0.4565010000000 1.0
C      1  0.5263980000000  0.5850930000000  0.4490440000000 1.0
C      1  0.4269910000000  0.5004970000000  0.4261590000000 1.0
C      1  0.4167460000000  0.5041940000000  0.4900320000000 1.0
C      1  0.4799020000000  0.4264740000000  0.4468510000000 1.0
C      1  0.5211370000000  0.5300510000000  0.6030870000000 1.0
C      1  0.4678920000000  0.5517400000000  0.4127730000000 1.0
C      1  0.4480990000000  0.5023200000000  0.4764600000000 1.0
C      1  0.4889800000000  0.5064860000000  0.5300200000000 1.0
C      1  0.4968810000000  0.5939580000000  0.5480310000000 1.0
C      1  0.4599140000000  0.4221690000000  0.5534460000000 1.0
C      1  0.4737180000000  0.5714650000000  0.5050630000000 1.0
C      1  0.5619600000000  0.4196710000000  0.5107270000000 1.0
C      1  0.4260770000000  0.5565040000000  0.5256800000000 1.0
C      1  0.4276250000000  0.4737620000000  0.4513170000000 1.0
C      1  0.5288420000000  0.5040780000000  0.5317110000000 1.0
C      1  0.4988760000000  0.4649870000000  0.4135500000000 1.0
C      1  0.5143440000000  0.5396760000000  0.4919490000000 1.0
C      1  0.5481740000000  0.5240760000000  0.5117170000000 1.0
C      1  0.4544960000000  0.5680140000000  0.5409260000000 1.0
C      1  0.4473120000000  0.5244850000000  0.4119300000000 1.0
C      1  0.5023640000000  0.5303290000000  0.3995290000000 1.0
C      1  0.4939190000000  0.5631570000000  0.4804770000000 1.0
C      1  0.4723250000000  0.5021430000000  0.4056120000000 1.0
C      1  0.4012510000000  0.4763560000000  0.5412190000000 1.0
C      1  0.5339290000000  0.4082540000000  0.5048510000000 1.0
C      1  0.4414190000000  0.5383730000000  0.5484590000000 1.0
C      1  0.4981730000000  0.5117800000000  0.4984890000000 1.0
C      1  0.4470930000000  0.5227460000000  0.5847010000000 1.0
C      1  0.4042170000000  0.5348570000000  0.5123840000000 1.0
C      1  0.5617660000000  0.4521020000000  0.5825530000000 1.0
C      1  0.5666460000000  0.4225250000000  0.5388870000000 1.0
C      1  0.5895350000000  0.5224030000000  0.4525210000000 1.0
C      1  0.5274980000000  0.4215260000000  0.5307790000000 1.0
C      1  0.4613770000000  0.6041700000000  0.4606860000000 1.0
C      1  0.4820020000000  0.4727900000000  0.5891780000000 1.0
C      1  0.5929720000000  0.5076350000000  0.4893640000000 1.0
C      1  0.4630710000000  0.4942070000000  0.5032580000000 1.0
C      1  0.4705960000000  0.3949980000000  0.4934110000000 1.0
C      1  0.4270290000000  0.4597300000000  0.5559830000000 1.0
C      1  0.5283300000000  0.5078570000000  0.4920730000000 1.0
C      1  0.4544240000000  0.5478650000000  0.4793720000000 1.0
C      1  0.5956060000000  0.5119470000000  0.5164560000000 1.0
C      1  0.5348180000000  0.4767800000000  0.4827580000000 1.0
C      1  0.5548710000000  0.5777190000000  0.4822090000000 1.0
C      1  0.4485410000000  0.4270970000000  0.4599130000000 1.0
C      1  0.4407260000000  0.5709600000000  0.5004760000000 1.0
C      1  0.5649090000000  0.5042580000000  0.4781740000000 1.0
C      1  0.5553370000000  0.5763260000000  0.5220950000000 1.0
C      1  0.4491170000000  0.4657990000000  0.5015750000000 1.0
C      1  0.5260290000000  0.5276550000000  0.5772470000000 1.0
C      1  0.4394840000000  0.4850630000000  0.5351340000000 1.0
C      1  0.4765780000000  0.4476470000000  0.5065660000000 1.0
C      1  0.5579470000000  0.4693830000000  0.4324360000000 1.0
C      1  0.5421700000000  0.5152280000000  0.4558480000000 1.0
C      1  0.5734030000000  0.4991740000000  0.4373400000000 1.0
C      1  0.4736290000000  0.4432710000000  0.5740320000000 1.0
C      1  0.4774670000000  0.4529440000000  0.4271210000000 1.0
C      1  0.4499350000000  0.4522100000000  0.4414100000000 1.0
C      1  0.5685080000000  0.5014470000000  0.5603140000000 1.0
C      1  0.5236240000000  0.4718430000000  0.4527700000000 1.0
C      1  0.5642450000000  0.4868270000000  0.5075350000000 1.0
C      1  0.5229900000000  0.5479600000000  0.5549230000000 1.0
C      1  0.5815490000000  0.4468810000000  0.5991870000000 1.0
C      1  0.4202390000000  0.4636550000000  0.5169470000000 1.0
C      1  0.4219730000000  0.5218730000000  0.5672520000000 1.0
C      1  0.5762810000000  0.5278110000000  0.5398350000000 1.0
C      1  0.5137620000000  0.5441010000000  0.4515280000000 1.0
C      1  0.4861840000000  0.4200080000000  0.4793060000000 1.0
C      1  0.4358600000000  0.4331750000000  0.5404620000000 1.0
C      1  0.5419000000000  0.4443390000000  0.4751850000000 1.0
C      1  0.4985990000000  0.4716360000000  0.4667680000000 1.0
C      1  0.4030910000000  0.5071550000000  0.5527270000000 1.0
C      1  0.5328270000000  0.5604320000000  0.5018340000000 1.0
C      1  0.5795280000000  0.4729290000000  0.4585810000000 1.0
C      1  0.4976100000000  0.4907930000000  0.4024810000000 1.0
END
