TITL C-2778434-4341-1472 0.00215304633662069 125000 -1078.48107469994 0 0 185 (C1) n - 1
REM
REM in /home/nfs/bkarasulu/CARBON/AIRSS/Generating-Clusters/REBO/Only-C1/SD-CG/HFTN-CG
REM
REM
REM
REM
REM
REM ./C.cell (11c1c37f851c82e70ff6c80c92926a4b)
REM
REM compiler GCC version 9.2.1 20190827 (Red Hat 9.2.1-1)
REM options -cpp -mtune=generic -march=x86-64 -g -O0 -fpre-include=/usr/include/finclude/math-vector-fortran.h
REM seed 1313091923 -812312863 -1392276267 1203287354 -903490536 -428557084 365762660 -1516282328 -1799547234 2140481982 717456140 -1949080849 -1770339733 -989449421 366430700 -911720527 -1651585805 956999314 -811265785 -957970050 1321833086 976074225 -890176284 1194749040 1608198110 -751085561 821002802 1406581910 -771306310 -24489457 659673549 -1085157799 759813883
REM
CELL 1.54180   50.00000   50.00000   50.00000   90.00000   90.00000   90.00000
LATT -1
SFAC C  
C      1  0.5971030000000  0.4604550000000  0.4852920000000 1.0
C      1  0.5491980000000  0.5780470000000  0.5443630000000 1.0
C      1  0.3965040000000  0.4667780000000  0.5097870000000 1.0
C      1  0.4493870000000  0.5925100000000  0.4696120000000 1.0
C      1  0.5634690000000  0.4391650000000  0.5585600000000 1.0
C      1  0.5335730000000  0.5142170000000  0.5950750000000 1.0
C      1  0.5560140000000  0.5305850000000  0.4833760000000 1.0
C      1  0.5150940000000  0.4994760000000  0.5036100000000 1.0
C      1  0.4703900000000  0.4401400000000  0.4906050000000 1.0
C      1  0.5016770000000  0.3808140000000  0.5308260000000 1.0
C      1  0.5122050000000  0.5512610000000  0.4689610000000 1.0
C      1  0.4833000000000  0.4700670000000  0.5612320000000 1.0
C      1  0.5280030000000  0.5293660000000  0.4980640000000 1.0
C      1  0.5283600000000  0.4987490000000  0.4252330000000 1.0
C      1  0.5658100000000  0.5559040000000  0.4348080000000 1.0
C      1  0.4552420000000  0.5051000000000  0.4773670000000 1.0
C      1  0.5058530000000  0.4476920000000  0.4742310000000 1.0
C      1  0.4891030000000  0.3850320000000  0.4995030000000 1.0
C      1  0.4320360000000  0.5091500000000  0.5796170000000 1.0
C      1  0.5090060000000  0.3945730000000  0.5563840000000 1.0
C      1  0.4213090000000  0.4775860000000  0.5768240000000 1.0
C      1  0.5389380000000  0.5674970000000  0.4795600000000 1.0
C      1  0.4668390000000  0.4224570000000  0.5806300000000 1.0
C      1  0.4927320000000  0.4688710000000  0.4197570000000 1.0
C      1  0.5510440000000  0.3903910000000  0.4654920000000 1.0
C      1  0.4656350000000  0.4512460000000  0.5950780000000 1.0
C      1  0.3870270000000  0.4902170000000  0.4691450000000 1.0
C      1  0.6109440000000  0.4653660000000  0.5113430000000 1.0
C      1  0.5564490000000  0.5016640000000  0.4411370000000 1.0
C      1  0.5131490000000  0.4510800000000  0.5798280000000 1.0
C      1  0.4431860000000  0.4312680000000  0.4460740000000 1.0
C      1  0.4304980000000  0.4742440000000  0.4509460000000 1.0
C      1  0.5061620000000  0.4977480000000  0.6079200000000 1.0
C      1  0.5225380000000  0.3867980000000  0.5061830000000 1.0
C      1  0.5491330000000  0.3912010000000  0.4961570000000 1.0
C      1  0.4831360000000  0.5684190000000  0.4342080000000 1.0
C      1  0.4530910000000  0.6059500000000  0.4939020000000 1.0
C      1  0.4287130000000  0.4756770000000  0.5147730000000 1.0
C      1  0.5064930000000  0.4939680000000  0.5535830000000 1.0
C      1  0.3829330000000  0.5178960000000  0.4761610000000 1.0
C      1  0.4782350000000  0.4770040000000  0.5301840000000 1.0
C      1  0.5815150000000  0.4532490000000  0.4582230000000 1.0
C      1  0.5313850000000  0.4172100000000  0.4716640000000 1.0
C      1  0.4497790000000  0.4654070000000  0.5359650000000 1.0
C      1  0.4396240000000  0.4212690000000  0.5637420000000 1.0
C      1  0.4816270000000  0.4325640000000  0.4319870000000 1.0
C      1  0.5847650000000  0.5637430000000  0.4553090000000 1.0
C      1  0.5223250000000  0.5361810000000  0.4448630000000 1.0
C      1  0.5594600000000  0.4196390000000  0.4500730000000 1.0
C      1  0.5559640000000  0.5716080000000  0.5052200000000 1.0
C      1  0.4824210000000  0.5369960000000  0.4445500000000 1.0
C      1  0.4340710000000  0.5721500000000  0.5655390000000 1.0
C      1  0.5266220000000  0.5537260000000  0.5370510000000 1.0
C      1  0.5258550000000  0.4119790000000  0.5370390000000 1.0
C      1  0.5569140000000  0.5441310000000  0.5248360000000 1.0
C      1  0.5415650000000  0.4620440000000  0.5342250000000 1.0
C      1  0.5312630000000  0.5169800000000  0.5513970000000 1.0
C      1  0.4642840000000  0.4072760000000  0.4966620000000 1.0
C      1  0.4822430000000  0.6115180000000  0.5092500000000 1.0
C      1  0.4866280000000  0.5088740000000  0.4639090000000 1.0
C      1  0.4918710000000  0.4552020000000  0.5107180000000 1.0
C      1  0.4449100000000  0.4773950000000  0.6001290000000 1.0
C      1  0.5446100000000  0.4421760000000  0.5832060000000 1.0
C      1  0.5166790000000  0.5929330000000  0.4588470000000 1.0
C      1  0.5438620000000  0.5981690000000  0.5211410000000 1.0
C      1  0.5563290000000  0.4755240000000  0.4573170000000 1.0
C      1  0.4609760000000  0.4789120000000  0.4574270000000 1.0
C      1  0.4810980000000  0.5695570000000  0.5087200000000 1.0
C      1  0.5492960000000  0.4406730000000  0.4822230000000 1.0
C      1  0.5112300000000  0.5888600000000  0.5468980000000 1.0
C      1  0.4340320000000  0.5168220000000  0.4139910000000 1.0
C      1  0.4437320000000  0.5306200000000  0.6029910000000 1.0
C      1  0.4518050000000  0.5383440000000  0.5387610000000 1.0
C      1  0.4387420000000  0.4320300000000  0.4786210000000 1.0
C      1  0.5525650000000  0.4941810000000  0.5372940000000 1.0
C      1  0.5119120000000  0.5779270000000  0.4282440000000 1.0
C      1  0.4908130000000  0.4012240000000  0.5766620000000 1.0
C      1  0.4483540000000  0.5447630000000  0.5723600000000 1.0
C      1  0.5820690000000  0.5460580000000  0.5697760000000 1.0
C      1  0.4398000000000  0.4589190000000  0.4059840000000 1.0
C      1  0.4217610000000  0.5720370000000  0.5396470000000 1.0
C      1  0.4890850000000  0.4387480000000  0.5630270000000 1.0
C      1  0.4090510000000  0.5241630000000  0.5057980000000 1.0
C      1  0.5192170000000  0.4703630000000  0.3991690000000 1.0
C      1  0.5450900000000  0.4470620000000  0.4429790000000 1.0
C      1  0.4620920000000  0.5243000000000  0.6216240000000 1.0
C      1  0.4525190000000  0.4326290000000  0.5353880000000 1.0
C      1  0.4276690000000  0.4503200000000  0.4298630000000 1.0
C      1  0.5039130000000  0.4191340000000  0.4847570000000 1.0
C      1  0.5303390000000  0.5416230000000  0.5749900000000 1.0
C      1  0.4617780000000  0.5820500000000  0.5751480000000 1.0
C      1  0.4853090000000  0.5665710000000  0.5858330000000 1.0
C      1  0.5243650000000  0.4655170000000  0.4632310000000 1.0
C      1  0.4797980000000  0.5813020000000  0.5491310000000 1.0
C      1  0.5292970000000  0.5974100000000  0.4903010000000 1.0
C      1  0.4380810000000  0.4878850000000  0.4035650000000 1.0
C      1  0.4145580000000  0.4349070000000  0.5504160000000 1.0
C      1  0.4565610000000  0.5347630000000  0.4070190000000 1.0
C      1  0.5461710000000  0.4699660000000  0.4190320000000 1.0
C      1  0.4278500000000  0.5204240000000  0.5486580000000 1.0
C      1  0.3944360000000  0.5231380000000  0.5427030000000 1.0
C      1  0.4943570000000  0.5305690000000  0.4896820000000 1.0
C      1  0.4666510000000  0.4954580000000  0.4063620000000 1.0
C      1  0.3954770000000  0.4966800000000  0.5211700000000 1.0
C      1  0.4366740000000  0.5490070000000  0.4905060000000 1.0
C      1  0.5044220000000  0.4175540000000  0.5154560000000 1.0
C      1  0.5533880000000  0.5617130000000  0.5725320000000 1.0
C      1  0.5230080000000  0.5038790000000  0.3920290000000 1.0
C      1  0.5297840000000  0.4718060000000  0.5614050000000 1.0
C      1  0.5171490000000  0.4958460000000  0.4714630000000 1.0
C      1  0.4548600000000  0.5571840000000  0.4237900000000 1.0
C      1  0.4879770000000  0.5380750000000  0.5715750000000 1.0
C      1  0.5506950000000  0.4292200000000  0.5316610000000 1.0
C      1  0.4928550000000  0.5036640000000  0.5239360000000 1.0
C      1  0.5737870000000  0.5248000000000  0.4253370000000 1.0
C      1  0.5650660000000  0.4136310000000  0.5068380000000 1.0
C      1  0.5814750000000  0.5505130000000  0.4828020000000 1.0
C      1  0.4798930000000  0.5315660000000  0.5206260000000 1.0
C      1  0.4833000000000  0.4997480000000  0.3816990000000 1.0
C      1  0.4289610000000  0.5003470000000  0.4941630000000 1.0
C      1  0.5627360000000  0.5207280000000  0.5566170000000 1.0
C      1  0.4512680000000  0.5602550000000  0.5149310000000 1.0
C      1  0.4373120000000  0.4235180000000  0.5088690000000 1.0
C      1  0.4719380000000  0.4889580000000  0.5849170000000 1.0
C      1  0.5783020000000  0.4624410000000  0.4269880000000 1.0
C      1  0.5614540000000  0.5001650000000  0.5906000000000 1.0
C      1  0.4857770000000  0.5120290000000  0.6268800000000 1.0
C      1  0.4172780000000  0.4988310000000  0.4619940000000 1.0
C      1  0.4710320000000  0.5698390000000  0.4638200000000 1.0
C      1  0.5886620000000  0.5644430000000  0.5119000000000 1.0
C      1  0.4164710000000  0.4443600000000  0.5232690000000 1.0
C      1  0.5802830000000  0.4639680000000  0.5553140000000 1.0
C      1  0.5785510000000  0.4260040000000  0.4780620000000 1.0
C      1  0.3924390000000  0.4640140000000  0.4803960000000 1.0
C      1  0.4870730000000  0.5278040000000  0.3963530000000 1.0
C      1  0.5183860000000  0.5381800000000  0.3922650000000 1.0
C      1  0.4073590000000  0.4931220000000  0.5529040000000 1.0
C      1  0.5960420000000  0.5328580000000  0.5229110000000 1.0
C      1  0.5683400000000  0.5145900000000  0.5176680000000 1.0
C      1  0.5887370000000  0.5142010000000  0.5759390000000 1.0
C      1  0.4312380000000  0.5690920000000  0.4658110000000 1.0
C      1  0.4960190000000  0.5776360000000  0.4805170000000 1.0
C      1  0.4796780000000  0.4905670000000  0.4357310000000 1.0
C      1  0.5025220000000  0.5208790000000  0.4243650000000 1.0
C      1  0.4950990000000  0.4677310000000  0.5992690000000 1.0
C      1  0.5758480000000  0.5045810000000  0.4859590000000 1.0
C      1  0.4207380000000  0.5250410000000  0.4432810000000 1.0
C      1  0.5377380000000  0.5160300000000  0.4612610000000 1.0
C      1  0.5520800000000  0.5184420000000  0.3999680000000 1.0
C      1  0.4601050000000  0.5380390000000  0.4701240000000 1.0
C      1  0.5128040000000  0.5694050000000  0.5722470000000 1.0
C      1  0.5020250000000  0.4410970000000  0.4053120000000 1.0
C      1  0.4994570000000  0.4817900000000  0.3685750000000 1.0
C      1  0.4160550000000  0.4517390000000  0.4681010000000 1.0
C      1  0.5791540000000  0.5631720000000  0.5426780000000 1.0
C      1  0.4652850000000  0.5990870000000  0.5305730000000 1.0
C      1  0.5402180000000  0.5718510000000  0.4461810000000 1.0
C      1  0.4369380000000  0.5903520000000  0.5195610000000 1.0
C      1  0.5129560000000  0.5580640000000  0.5085740000000 1.0
C      1  0.5035520000000  0.5127780000000  0.5797780000000 1.0
C      1  0.4329130000000  0.5551160000000  0.4416640000000 1.0
C      1  0.5986560000000  0.5045800000000  0.4646760000000 1.0
C      1  0.5971480000000  0.4816020000000  0.4210560000000 1.0
C      1  0.5483270000000  0.4630780000000  0.4951420000000 1.0
C      1  0.4935850000000  0.5508520000000  0.5426810000000 1.0
C      1  0.5906610000000  0.4804930000000  0.5328850000000 1.0
C      1  0.5163920000000  0.5694330000000  0.4000840000000 1.0
C      1  0.5578820000000  0.4734010000000  0.5780910000000 1.0
C      1  0.4692160000000  0.4487600000000  0.4592390000000 1.0
C      1  0.4831290000000  0.3996930000000  0.4693150000000 1.0
C      1  0.4685830000000  0.4489570000000  0.4051070000000 1.0
C      1  0.5110860000000  0.6052270000000  0.5170180000000 1.0
C      1  0.4446830000000  0.4547130000000  0.5677400000000 1.0
C      1  0.5206480000000  0.4693940000000  0.5084380000000 1.0
C      1  0.6203510000000  0.5185610000000  0.4767690000000 1.0
C      1  0.5741480000000  0.4778610000000  0.5030690000000 1.0
C      1  0.4816710000000  0.4052250000000  0.4419430000000 1.0
C      1  0.4645300000000  0.5154630000000  0.5727090000000 1.0
C      1  0.5980090000000  0.5082660000000  0.5436910000000 1.0
C      1  0.5958880000000  0.5055330000000  0.4362690000000 1.0
C      1  0.4089580000000  0.5493410000000  0.5286770000000 1.0
C      1  0.5390620000000  0.5428860000000  0.4189410000000 1.0
C      1  0.4832640000000  0.4321290000000  0.5330340000000 1.0
C      1  0.6109320000000  0.5375920000000  0.4938900000000 1.0
C      1  0.4101040000000  0.5361260000000  0.4738940000000 1.0
END
