TITL C-2778432-5617-1488 0.00167346919775994 125000 -851.192225676453 0 0 145 (C1) n - 1
REM
REM in /home/nfs/bkarasulu/CARBON/AIRSS/Generating-Clusters/REBO/Only-C1/SD-CG/HFTN-CG
REM
REM
REM
REM
REM
REM ./C.cell (11c1c37f851c82e70ff6c80c92926a4b)
REM
REM compiler GCC version 9.2.1 20190827 (Red Hat 9.2.1-1)
REM options -cpp -mtune=generic -march=x86-64 -g -O0 -fpre-include=/usr/include/finclude/math-vector-fortran.h
REM seed 2137341191 1304045715 -1278230504 -67687828 1766154295 -574685422 -946420144 495165920 -1555630169 -437578616 -993090103 539973720 213482095 -849307978 1763102607 176198958 618997437 1597129595 -2060546742 1711710177 -1736967744 -301818167 -1113757806 766448704 -240771098 426163349 -12978054 -1486554633 -1767648103 -971081131 780031571 -1461778745 2099884022
REM
CELL 1.54180   50.00000   50.00000   50.00000   90.00000   90.00000   90.00000
LATT -1
SFAC C  
C      1  0.5592330000000  0.5541950000000  0.5431000000000 1.0
C      1  0.4291140000000  0.5715240000000  0.4878040000000 1.0
C      1  0.4374390000000  0.4432610000000  0.5568150000000 1.0
C      1  0.4443110000000  0.5175870000000  0.4359720000000 1.0
C      1  0.4475960000000  0.4208500000000  0.4430540000000 1.0
C      1  0.5057620000000  0.4915520000000  0.4797720000000 1.0
C      1  0.3988190000000  0.4939960000000  0.5039120000000 1.0
C      1  0.5721880000000  0.4784900000000  0.4324910000000 1.0
C      1  0.4966150000000  0.4020380000000  0.4467040000000 1.0
C      1  0.4673010000000  0.6062820000000  0.4952110000000 1.0
C      1  0.5169320000000  0.5200270000000  0.4745020000000 1.0
C      1  0.5748730000000  0.5430290000000  0.4817240000000 1.0
C      1  0.5934890000000  0.4668030000000  0.5121260000000 1.0
C      1  0.5045570000000  0.5422430000000  0.4891700000000 1.0
C      1  0.5182650000000  0.4309930000000  0.5189980000000 1.0
C      1  0.5399070000000  0.5405800000000  0.5925760000000 1.0
C      1  0.5234480000000  0.5499360000000  0.5159340000000 1.0
C      1  0.5487530000000  0.5652490000000  0.5067060000000 1.0
C      1  0.4781750000000  0.5021920000000  0.4508340000000 1.0
C      1  0.5558540000000  0.5589050000000  0.4590620000000 1.0
C      1  0.5097510000000  0.5737930000000  0.4349070000000 1.0
C      1  0.4628270000000  0.3934740000000  0.5147850000000 1.0
C      1  0.4620410000000  0.4640070000000  0.5236960000000 1.0
C      1  0.5722830000000  0.5110380000000  0.4419020000000 1.0
C      1  0.4594870000000  0.4055470000000  0.4888090000000 1.0
C      1  0.5585550000000  0.4632210000000  0.4667760000000 1.0
C      1  0.4747580000000  0.5646390000000  0.4187080000000 1.0
C      1  0.5482050000000  0.4386890000000  0.5323430000000 1.0
C      1  0.4868810000000  0.5730770000000  0.5870930000000 1.0
C      1  0.5738830000000  0.4263710000000  0.4647100000000 1.0
C      1  0.5186060000000  0.6089910000000  0.4922480000000 1.0
C      1  0.4229250000000  0.4928800000000  0.5780520000000 1.0
C      1  0.5773030000000  0.4267300000000  0.4916680000000 1.0
C      1  0.4974030000000  0.5663000000000  0.4720310000000 1.0
C      1  0.4879020000000  0.4727340000000  0.5525510000000 1.0
C      1  0.5857300000000  0.5258820000000  0.5361260000000 1.0
C      1  0.5748810000000  0.5009390000000  0.5071830000000 1.0
C      1  0.4348070000000  0.4467570000000  0.4501770000000 1.0
C      1  0.4584680000000  0.5949370000000  0.4497540000000 1.0
C      1  0.4160060000000  0.5169180000000  0.5555650000000 1.0
C      1  0.4935150000000  0.5907680000000  0.4923880000000 1.0
C      1  0.5493030000000  0.5845380000000  0.4811040000000 1.0
C      1  0.5462670000000  0.4162080000000  0.4541150000000 1.0
C      1  0.5150780000000  0.4788770000000  0.5656760000000 1.0
C      1  0.4825300000000  0.5918330000000  0.4326480000000 1.0
C      1  0.5972890000000  0.4812480000000  0.4556530000000 1.0
C      1  0.4793810000000  0.5776860000000  0.5599180000000 1.0
C      1  0.4615250000000  0.4635820000000  0.5698070000000 1.0
C      1  0.4286860000000  0.5411670000000  0.5353790000000 1.0
C      1  0.4473230000000  0.5986930000000  0.4783870000000 1.0
C      1  0.5213650000000  0.5004500000000  0.5231840000000 1.0
C      1  0.3970330000000  0.4671620000000  0.5239450000000 1.0
C      1  0.4826820000000  0.4381520000000  0.5779480000000 1.0
C      1  0.4131510000000  0.4530750000000  0.5475170000000 1.0
C      1  0.4984290000000  0.5868010000000  0.5410490000000 1.0
C      1  0.5546140000000  0.5203400000000  0.5225250000000 1.0
C      1  0.4639780000000  0.5057080000000  0.4778020000000 1.0
C      1  0.4368950000000  0.4961920000000  0.4594050000000 1.0
C      1  0.4596490000000  0.5278720000000  0.5923910000000 1.0
C      1  0.4422230000000  0.5357340000000  0.5666210000000 1.0
C      1  0.4064420000000  0.5238650000000  0.4895580000000 1.0
C      1  0.5247660000000  0.5121320000000  0.5649380000000 1.0
C      1  0.4857550000000  0.4348520000000  0.4827160000000 1.0
C      1  0.5777570000000  0.5512800000000  0.5145840000000 1.0
C      1  0.4732930000000  0.4139330000000  0.5364550000000 1.0
C      1  0.4818030000000  0.4876820000000  0.4989130000000 1.0
C      1  0.4599310000000  0.4492770000000  0.4711480000000 1.0
C      1  0.4974020000000  0.5421010000000  0.5626670000000 1.0
C      1  0.5497830000000  0.4065660000000  0.5212620000000 1.0
C      1  0.5124760000000  0.5239850000000  0.5947460000000 1.0
C      1  0.5984840000000  0.4884800000000  0.4860970000000 1.0
C      1  0.5227250000000  0.5560410000000  0.5731400000000 1.0
C      1  0.4129120000000  0.5455470000000  0.4729780000000 1.0
C      1  0.5345380000000  0.3975920000000  0.5001380000000 1.0
C      1  0.5405940000000  0.5025530000000  0.4344450000000 1.0
C      1  0.5221530000000  0.5236500000000  0.4442550000000 1.0
C      1  0.5270700000000  0.5772830000000  0.4595750000000 1.0
C      1  0.4666050000000  0.4792230000000  0.4313280000000 1.0
C      1  0.4289650000000  0.5180220000000  0.5134930000000 1.0
C      1  0.4626950000000  0.5048450000000  0.4095090000000 1.0
C      1  0.5097760000000  0.4699560000000  0.4255020000000 1.0
C      1  0.4291040000000  0.5652590000000  0.5192780000000 1.0
C      1  0.4648600000000  0.4329890000000  0.5095240000000 1.0
C      1  0.4473250000000  0.4835980000000  0.5866830000000 1.0
C      1  0.5397040000000  0.5719760000000  0.5560090000000 1.0
C      1  0.4663160000000  0.4052000000000  0.4620390000000 1.0
C      1  0.5098360000000  0.5458340000000  0.4292780000000 1.0
C      1  0.4611120000000  0.4974460000000  0.5316450000000 1.0
C      1  0.5594050000000  0.4905150000000  0.4786750000000 1.0
C      1  0.5158750000000  0.4672530000000  0.5022440000000 1.0
C      1  0.5439280000000  0.4773950000000  0.5186180000000 1.0
C      1  0.5668310000000  0.5374510000000  0.5863620000000 1.0
C      1  0.5647660000000  0.4774830000000  0.5379320000000 1.0
C      1  0.4759230000000  0.5270400000000  0.5409870000000 1.0
C      1  0.5261990000000  0.4421880000000  0.4151460000000 1.0
C      1  0.4862120000000  0.5417680000000  0.5940480000000 1.0
C      1  0.5847660000000  0.4516570000000  0.4495380000000 1.0
C      1  0.3939860000000  0.4992070000000  0.5366530000000 1.0
C      1  0.4434990000000  0.5653980000000  0.4574530000000 1.0
C      1  0.5095100000000  0.4176310000000  0.4921090000000 1.0
C      1  0.4929580000000  0.4441990000000  0.4126030000000 1.0
C      1  0.5080770000000  0.4322500000000  0.5665100000000 1.0
C      1  0.5208400000000  0.5196000000000  0.3973480000000 1.0
C      1  0.5427190000000  0.4714960000000  0.4211340000000 1.0
C      1  0.4283710000000  0.4725510000000  0.4407720000000 1.0
C      1  0.5478100000000  0.4935710000000  0.5821600000000 1.0
C      1  0.5381570000000  0.5090210000000  0.4948550000000 1.0
C      1  0.4531190000000  0.4704620000000  0.4927780000000 1.0
C      1  0.4621540000000  0.5566870000000  0.5507340000000 1.0
C      1  0.4729200000000  0.4515310000000  0.4397010000000 1.0
C      1  0.4628630000000  0.5013060000000  0.6011010000000 1.0
C      1  0.5931290000000  0.4931930000000  0.5336920000000 1.0
C      1  0.4772070000000  0.4201930000000  0.4270560000000 1.0
C      1  0.4039400000000  0.4792400000000  0.5606400000000 1.0
C      1  0.4602750000000  0.4248010000000  0.5612920000000 1.0
C      1  0.5845460000000  0.5338420000000  0.5663140000000 1.0
C      1  0.4882300000000  0.4930320000000  0.6109300000000 1.0
C      1  0.4745560000000  0.5584850000000  0.4528710000000 1.0
C      1  0.5172100000000  0.4908670000000  0.5974690000000 1.0
C      1  0.5271200000000  0.5921720000000  0.5407460000000 1.0
C      1  0.5028590000000  0.4175320000000  0.5421910000000 1.0
C      1  0.5387280000000  0.4453840000000  0.4654260000000 1.0
C      1  0.5225250000000  0.3996490000000  0.4682160000000 1.0
C      1  0.4923780000000  0.5105640000000  0.3938080000000 1.0
C      1  0.4743650000000  0.5300880000000  0.4381470000000 1.0
C      1  0.4937030000000  0.4940660000000  0.5271360000000 1.0
C      1  0.4948210000000  0.4544100000000  0.5247400000000 1.0
C      1  0.4293360000000  0.4914710000000  0.4913210000000 1.0
C      1  0.5823550000000  0.5148770000000  0.4708520000000 1.0
C      1  0.5330240000000  0.5317660000000  0.5431560000000 1.0
C      1  0.5240840000000  0.4156640000000  0.4318450000000 1.0
C      1  0.5408550000000  0.5971810000000  0.5120150000000 1.0
C      1  0.5008310000000  0.4772660000000  0.4519220000000 1.0
C      1  0.4962540000000  0.5705940000000  0.5158200000000 1.0
C      1  0.4380600000000  0.4814400000000  0.4127240000000 1.0
C      1  0.4866880000000  0.5367290000000  0.4090450000000 1.0
C      1  0.5108820000000  0.4528880000000  0.4734770000000 1.0
C      1  0.5331490000000  0.4504230000000  0.5606310000000 1.0
C      1  0.4816920000000  0.5409400000000  0.5120380000000 1.0
C      1  0.5571760000000  0.5386420000000  0.4321010000000 1.0
C      1  0.4593290000000  0.5196870000000  0.5055090000000 1.0
C      1  0.4262420000000  0.5412690000000  0.4450760000000 1.0
C      1  0.5559990000000  0.4719920000000  0.5645820000000 1.0
C      1  0.5419890000000  0.5334800000000  0.4092020000000 1.0
C      1  0.5751440000000  0.4446050000000  0.5136320000000 1.0
END
