TITL C-2778425-5191-1443 0.00168012335510256 125000 -344.910684092118 0 0 60 (C1) n - 1
REM
REM in /home/nfs/bkarasulu/CARBON/AIRSS/Generating-Clusters/REBO/Only-C1/SD-CG/HFTN-CG
REM
REM
REM
REM
REM
REM ./C.cell (11c1c37f851c82e70ff6c80c92926a4b)
REM
REM compiler GCC version 9.2.1 20190827 (Red Hat 9.2.1-1)
REM options -cpp -mtune=generic -march=x86-64 -g -O0 -fpre-include=/usr/include/finclude/math-vector-fortran.h
REM seed 84164440 -1758104181 -427815035 -1862266097 -1499003205 224943466 -871742504 -1369844738 -762716594 -953157448 -1772881745 90189141 2053970723 487868740 -1402613357 446801663 177472555 -94915675 -924337079 -912893511 424207939 -725178432 -461751615 1354521488 1429971935 -649723907 489260321 -1831599333 -271009058 -934636948 -869078448 1287977513 -308997682
REM
CELL 1.54180   50.00000   50.00000   50.00000   90.00000   90.00000   90.00000
LATT -1
SFAC C  
C      1  0.5011070000000  0.4994830000000  0.4512760000000 1.0
C      1  0.5152670000000  0.4215980000000  0.4990270000000 1.0
C      1  0.4292660000000  0.5126850000000  0.5438730000000 1.0
C      1  0.5244880000000  0.4299400000000  0.4536430000000 1.0
C      1  0.4599610000000  0.4861460000000  0.5687510000000 1.0
C      1  0.5180130000000  0.5625370000000  0.5121460000000 1.0
C      1  0.5517340000000  0.4802350000000  0.5228950000000 1.0
C      1  0.4808940000000  0.4925020000000  0.5435740000000 1.0
C      1  0.5384430000000  0.5124590000000  0.4422360000000 1.0
C      1  0.5234380000000  0.5135850000000  0.5644310000000 1.0
C      1  0.4736670000000  0.5332070000000  0.5549660000000 1.0
C      1  0.5113680000000  0.4948170000000  0.5414090000000 1.0
C      1  0.4888820000000  0.4323840000000  0.4930920000000 1.0
C      1  0.5737060000000  0.4795920000000  0.5025570000000 1.0
C      1  0.5101120000000  0.5297790000000  0.4347230000000 1.0
C      1  0.4407260000000  0.5273470000000  0.4626830000000 1.0
C      1  0.5123980000000  0.5125620000000  0.4871950000000 1.0
C      1  0.5379690000000  0.5332540000000  0.5302960000000 1.0
C      1  0.4367710000000  0.5024390000000  0.5179320000000 1.0
C      1  0.4516110000000  0.5147040000000  0.5623000000000 1.0
C      1  0.4993130000000  0.4720780000000  0.4222860000000 1.0
C      1  0.5010990000000  0.4770220000000  0.4702300000000 1.0
C      1  0.5296380000000  0.4141640000000  0.4756530000000 1.0
C      1  0.4613230000000  0.4657150000000  0.5414590000000 1.0
C      1  0.4473630000000  0.4631180000000  0.4883930000000 1.0
C      1  0.4902600000000  0.5583170000000  0.5094380000000 1.0
C      1  0.5430960000000  0.4680590000000  0.5665840000000 1.0
C      1  0.4991670000000  0.5532680000000  0.4568970000000 1.0
C      1  0.4776700000000  0.5585170000000  0.4828260000000 1.0
C      1  0.5291700000000  0.4347210000000  0.5207100000000 1.0
C      1  0.5594310000000  0.5197010000000  0.4682310000000 1.0
C      1  0.4572430000000  0.4848500000000  0.4480530000000 1.0
C      1  0.4983020000000  0.5356830000000  0.5688440000000 1.0
C      1  0.5152850000000  0.4983630000000  0.4214800000000 1.0
C      1  0.4840190000000  0.4564370000000  0.5098660000000 1.0
C      1  0.5344480000000  0.5018160000000  0.4730720000000 1.0
C      1  0.4887700000000  0.4804610000000  0.4954420000000 1.0
C      1  0.4840820000000  0.5048930000000  0.5140190000000 1.0
C      1  0.5259330000000  0.4639470000000  0.5379420000000 1.0
C      1  0.5414760000000  0.5713270000000  0.4811470000000 1.0
C      1  0.5067740000000  0.4511240000000  0.4554150000000 1.0
C      1  0.5574270000000  0.5098410000000  0.5387060000000 1.0
C      1  0.4356910000000  0.4801840000000  0.4675810000000 1.0
C      1  0.4578270000000  0.5225650000000  0.5077070000000 1.0
C      1  0.4930930000000  0.4548820000000  0.5384290000000 1.0
C      1  0.4761060000000  0.4602650000000  0.4441480000000 1.0
C      1  0.5148680000000  0.5169530000000  0.5178070000000 1.0
C      1  0.4685040000000  0.4465510000000  0.4744620000000 1.0
C      1  0.4891240000000  0.5237190000000  0.4676970000000 1.0
C      1  0.4543000000000  0.5413910000000  0.4837990000000 1.0
C      1  0.4746960000000  0.5412860000000  0.5276410000000 1.0
C      1  0.5496820000000  0.5515930000000  0.5056390000000 1.0
C      1  0.4449280000000  0.4740420000000  0.5153920000000 1.0
C      1  0.5760460000000  0.5095480000000  0.5114460000000 1.0
C      1  0.4635090000000  0.5128470000000  0.4502810000000 1.0
C      1  0.5687270000000  0.5299130000000  0.4928750000000 1.0
C      1  0.5235550000000  0.5710380000000  0.4640760000000 1.0
C      1  0.4219740000000  0.5058620000000  0.4702480000000 1.0
C      1  0.5266520000000  0.5467270000000  0.5570590000000 1.0
C      1  0.5496040000000  0.4959570000000  0.5680160000000 1.0
END
