TITL C-2778424-3986-1196 0.000488325458345001 125000 -102.986635824861 0 0 19 (Cs) n - 1
REM
REM in /home/nfs/bkarasulu/CARBON/AIRSS/Generating-Clusters/REBO/Only-C1/SD-CG/HFTN-CG
REM
REM
REM
REM
REM
REM ./C.cell (11c1c37f851c82e70ff6c80c92926a4b)
REM
REM compiler GCC version 9.2.1 20190827 (Red Hat 9.2.1-1)
REM options -cpp -mtune=generic -march=x86-64 -g -O0 -fpre-include=/usr/include/finclude/math-vector-fortran.h
REM seed -931921163 489266515 -1292532158 -721580149 -1054014408 -1168944212 -1363757717 -1778475230 1483766796 -794782303 565247370 -1538252287 320751668 1330228951 -291392943 -453629556 1414639427 -1017340713 756762009 -1913018385 378742726 -292059515 1322536164 -702986336 530656222 316909410 874963305 1000218884 949540805 -680843108 713764915 555073662 1772826475
REM
CELL 1.54180   50.00000   50.00000   50.00000   90.00000   90.00000   90.00000
LATT -1
SFAC C  
C      1  0.5057680000000  0.5810170000000  0.4836210000000 1.0
C      1  0.5009310000000  0.5502190000000  0.4908480000000 1.0
C      1  0.4712920000000  0.5521440000000  0.5017200000000 1.0
C      1  0.4284650000000  0.4970190000000  0.5275760000000 1.0
C      1  0.4984680000000  0.4781810000000  0.5044030000000 1.0
C      1  0.4608520000000  0.4560270000000  0.5225110000000 1.0
C      1  0.5167480000000  0.4975740000000  0.4940910000000 1.0
C      1  0.5186340000000  0.4275570000000  0.5056480000000 1.0
C      1  0.5119100000000  0.5248710000000  0.4911370000000 1.0
C      1  0.4596410000000  0.5288040000000  0.5102160000000 1.0
C      1  0.5419970000000  0.4880760000000  0.4862070000000 1.0
C      1  0.4715770000000  0.4800680000000  0.5142420000000 1.0
C      1  0.5659210000000  0.4790760000000  0.4787360000000 1.0
C      1  0.6133900000000  0.4612190000000  0.4639130000000 1.0
C      1  0.4047040000000  0.4920230000000  0.5374380000000 1.0
C      1  0.5898460000000  0.4700760000000  0.4712650000000 1.0
C      1  0.4539460000000  0.5023750000000  0.5170010000000 1.0
C      1  0.5089380000000  0.4518970000000  0.5050490000000 1.0
C      1  0.4769720000000  0.5817770000000  0.4943790000000 1.0
END
