TITL C-2778422-5617-298 0.00511976199838442 125000 -858.385488949592 0 0 147 (C1) n - 1
REM
REM in /home/nfs/bkarasulu/CARBON/AIRSS/Generating-Clusters/REBO/Only-C1/SD-CG/HFTN-CG
REM
REM
REM
REM
REM
REM ./C.cell (11c1c37f851c82e70ff6c80c92926a4b)
REM
REM compiler GCC version 9.2.1 20190827 (Red Hat 9.2.1-1)
REM options -cpp -mtune=generic -march=x86-64 -g -O0 -fpre-include=/usr/include/finclude/math-vector-fortran.h
REM seed -2146664604 626389694 -2138605584 -64087399 -1524897739 -1823311905 -617848000 1260507636 15646157 -503868020 1558306730 -1865955315 351664636 2111346532 -808490836 -1997415376 -1364504657 1055626009 -36206810 1521772387 1338518998 1957784118 -351447932 -539934323 1723410270 269527476 1522063151 773731853 -1542936449 1325394391 -1477594384 1421662967 1132599608
REM
CELL 1.54180   50.00000   50.00000   50.00000   90.00000   90.00000   90.00000
LATT -1
SFAC C  
C      1  0.4834960000000  0.5559260000000  0.4817310000000 1.0
C      1  0.5395740000000  0.5921900000000  0.4812650000000 1.0
C      1  0.4464890000000  0.5319020000000  0.4779390000000 1.0
C      1  0.4066290000000  0.4957360000000  0.4655770000000 1.0
C      1  0.5080130000000  0.5002530000000  0.4015420000000 1.0
C      1  0.5601040000000  0.5866970000000  0.5076490000000 1.0
C      1  0.4597070000000  0.4172470000000  0.4842530000000 1.0
C      1  0.5334840000000  0.4789340000000  0.5790540000000 1.0
C      1  0.4986860000000  0.4082130000000  0.5571010000000 1.0
C      1  0.4879830000000  0.4821500000000  0.4089420000000 1.0
C      1  0.5708620000000  0.4663840000000  0.4805830000000 1.0
C      1  0.5519490000000  0.5569450000000  0.5193770000000 1.0
C      1  0.5422350000000  0.5611870000000  0.4331210000000 1.0
C      1  0.4243270000000  0.4263330000000  0.4688200000000 1.0
C      1  0.5014090000000  0.5905610000000  0.4567250000000 1.0
C      1  0.5732900000000  0.5175140000000  0.4405740000000 1.0
C      1  0.5071710000000  0.6094730000000  0.5389590000000 1.0
C      1  0.4378110000000  0.4528200000000  0.5659090000000 1.0
C      1  0.5061060000000  0.5213420000000  0.5138190000000 1.0
C      1  0.4699770000000  0.5434130000000  0.4115730000000 1.0
C      1  0.5023440000000  0.5679400000000  0.5043640000000 1.0
C      1  0.4844010000000  0.4598970000000  0.4643860000000 1.0
C      1  0.5956060000000  0.4590440000000  0.4607330000000 1.0
C      1  0.5851710000000  0.5607180000000  0.5145400000000 1.0
C      1  0.5405780000000  0.4333840000000  0.4719560000000 1.0
C      1  0.4117840000000  0.4446900000000  0.4487220000000 1.0
C      1  0.4124950000000  0.5106110000000  0.5138100000000 1.0
C      1  0.5803660000000  0.4314370000000  0.5372060000000 1.0
C      1  0.5880060000000  0.4626950000000  0.4334980000000 1.0
C      1  0.4551050000000  0.4454570000000  0.5121670000000 1.0
C      1  0.5162850000000  0.4666610000000  0.4842090000000 1.0
C      1  0.4449860000000  0.4794280000000  0.4718670000000 1.0
C      1  0.4978260000000  0.5440570000000  0.4310970000000 1.0
C      1  0.4030830000000  0.4870380000000  0.4929430000000 1.0
C      1  0.5406340000000  0.4472850000000  0.5677670000000 1.0
C      1  0.4544430000000  0.5402590000000  0.5712420000000 1.0
C      1  0.4600000000000  0.4753310000000  0.4181770000000 1.0
C      1  0.5170080000000  0.4937520000000  0.4639720000000 1.0
C      1  0.5241710000000  0.5801410000000  0.5385620000000 1.0
C      1  0.4355920000000  0.4660940000000  0.5247500000000 1.0
C      1  0.5468950000000  0.5158160000000  0.5477090000000 1.0
C      1  0.4769480000000  0.3971550000000  0.5254490000000 1.0
C      1  0.4210960000000  0.5108920000000  0.5455050000000 1.0
C      1  0.5162830000000  0.4427590000000  0.5022180000000 1.0
C      1  0.5250630000000  0.5606930000000  0.5668230000000 1.0
C      1  0.6075230000000  0.5640390000000  0.5676870000000 1.0
C      1  0.4380490000000  0.4573990000000  0.4311830000000 1.0
C      1  0.5090140000000  0.4549920000000  0.5720050000000 1.0
C      1  0.5163900000000  0.5161680000000  0.5604900000000 1.0
C      1  0.4669500000000  0.4176190000000  0.5490190000000 1.0
C      1  0.4331970000000  0.5408640000000  0.4479640000000 1.0
C      1  0.4480580000000  0.4288140000000  0.4469050000000 1.0
C      1  0.4401010000000  0.4296230000000  0.5506140000000 1.0
C      1  0.4940240000000  0.4635390000000  0.4350400000000 1.0
C      1  0.5289180000000  0.5429870000000  0.4701800000000 1.0
C      1  0.4035970000000  0.5506260000000  0.5208080000000 1.0
C      1  0.5266910000000  0.4216010000000  0.5495260000000 1.0
C      1  0.4398950000000  0.5560760000000  0.5535200000000 1.0
C      1  0.5199090000000  0.4937060000000  0.5049560000000 1.0
C      1  0.4746850000000  0.4982260000000  0.5322420000000 1.0
C      1  0.4548180000000  0.5801820000000  0.5397600000000 1.0
C      1  0.5725750000000  0.4981880000000  0.4679270000000 1.0
C      1  0.5127500000000  0.4405440000000  0.4294080000000 1.0
C      1  0.4895680000000  0.5247630000000  0.5435880000000 1.0
C      1  0.4832520000000  0.4507380000000  0.5231300000000 1.0
C      1  0.4810300000000  0.5162600000000  0.4285980000000 1.0
C      1  0.5250480000000  0.5487660000000  0.5137910000000 1.0
C      1  0.5681680000000  0.5502950000000  0.4368980000000 1.0
C      1  0.5088890000000  0.3899240000000  0.5231360000000 1.0
C      1  0.4258530000000  0.4337090000000  0.4976210000000 1.0
C      1  0.4318060000000  0.5827260000000  0.4775020000000 1.0
C      1  0.5503420000000  0.5065680000000  0.5001030000000 1.0
C      1  0.5628090000000  0.4590660000000  0.5303090000000 1.0
C      1  0.5268290000000  0.4734450000000  0.5400320000000 1.0
C      1  0.4989030000000  0.4223030000000  0.5196990000000 1.0
C      1  0.4566810000000  0.5572150000000  0.5172370000000 1.0
C      1  0.4388040000000  0.6023940000000  0.5335710000000 1.0
C      1  0.4768710000000  0.4937160000000  0.5718860000000 1.0
C      1  0.4482170000000  0.5111260000000  0.5662360000000 1.0
C      1  0.5018950000000  0.4874280000000  0.5497220000000 1.0
C      1  0.6083610000000  0.5278350000000  0.5030540000000 1.0
C      1  0.4942620000000  0.5701080000000  0.5732830000000 1.0
C      1  0.4680590000000  0.5109950000000  0.4659710000000 1.0
C      1  0.4350070000000  0.5569790000000  0.4957680000000 1.0
C      1  0.5851430000000  0.5153560000000  0.4925300000000 1.0
C      1  0.4195420000000  0.4299230000000  0.5295180000000 1.0
C      1  0.4741550000000  0.4176620000000  0.4470520000000 1.0
C      1  0.6163770000000  0.5378210000000  0.5243780000000 1.0
C      1  0.4913200000000  0.4408630000000  0.5542300000000 1.0
C      1  0.5745010000000  0.5535280000000  0.4852410000000 1.0
C      1  0.4098620000000  0.5244500000000  0.4643260000000 1.0
C      1  0.4217760000000  0.4821720000000  0.5586660000000 1.0
C      1  0.4061390000000  0.4590390000000  0.5409500000000 1.0
C      1  0.5063040000000  0.5511450000000  0.5403950000000 1.0
C      1  0.5408660000000  0.4522110000000  0.4255470000000 1.0
C      1  0.5028050000000  0.5488120000000  0.4603100000000 1.0
C      1  0.5970090000000  0.5526360000000  0.5450560000000 1.0
C      1  0.5925180000000  0.4599720000000  0.5132630000000 1.0
C      1  0.4484730000000  0.4800920000000  0.5798580000000 1.0
C      1  0.4474960000000  0.4933500000000  0.5214130000000 1.0
C      1  0.5605070000000  0.4390360000000  0.4906040000000 1.0
C      1  0.5066270000000  0.4993660000000  0.5874990000000 1.0
C      1  0.4835230000000  0.5883160000000  0.5515980000000 1.0
C      1  0.5030360000000  0.4188950000000  0.4470600000000 1.0
C      1  0.5705710000000  0.4388770000000  0.5639360000000 1.0
C      1  0.5349470000000  0.4591310000000  0.4566810000000 1.0
C      1  0.5340750000000  0.5165870000000  0.4756890000000 1.0
C      1  0.5472640000000  0.4888880000000  0.4501580000000 1.0
C      1  0.5662760000000  0.5430470000000  0.5449450000000 1.0
C      1  0.4862390000000  0.5929970000000  0.5179550000000 1.0
C      1  0.5210120000000  0.3979690000000  0.4931340000000 1.0
C      1  0.4578000000000  0.4494430000000  0.4795650000000 1.0
C      1  0.4779940000000  0.5366240000000  0.5075910000000 1.0
C      1  0.5210230000000  0.4133290000000  0.4697920000000 1.0
C      1  0.5318060000000  0.4456560000000  0.5288210000000 1.0
C      1  0.4767580000000  0.5518990000000  0.5833960000000 1.0
C      1  0.4389650000000  0.5044950000000  0.4926270000000 1.0
C      1  0.5246270000000  0.6003570000000  0.5108400000000 1.0
C      1  0.4477470000000  0.5239640000000  0.4283870000000 1.0
C      1  0.5633590000000  0.4691360000000  0.4193980000000 1.0
C      1  0.4984540000000  0.4702930000000  0.5959000000000 1.0
C      1  0.5305290000000  0.5162780000000  0.4089080000000 1.0
C      1  0.5453950000000  0.5081770000000  0.5866340000000 1.0
C      1  0.5755050000000  0.4874940000000  0.5060990000000 1.0
C      1  0.4074120000000  0.4606410000000  0.5069850000000 1.0
C      1  0.4907490000000  0.4794770000000  0.5121510000000 1.0
C      1  0.4139420000000  0.4760810000000  0.4469230000000 1.0
C      1  0.5474680000000  0.5611480000000  0.4798770000000 1.0
C      1  0.4919480000000  0.4950300000000  0.4474100000000 1.0
C      1  0.5632140000000  0.4229210000000  0.5133420000000 1.0
C      1  0.4426410000000  0.5714930000000  0.4471830000000 1.0
C      1  0.5293940000000  0.5812770000000  0.4505020000000 1.0
C      1  0.5542710000000  0.5008640000000  0.4203750000000 1.0
C      1  0.5849660000000  0.5415040000000  0.4622650000000 1.0
C      1  0.5466160000000  0.5391050000000  0.5725290000000 1.0
C      1  0.4736600000000  0.5856220000000  0.4427340000000 1.0
C      1  0.4608020000000  0.3977030000000  0.4993780000000 1.0
C      1  0.5250370000000  0.5425430000000  0.4191320000000 1.0
C      1  0.4184820000000  0.5425950000000  0.5419910000000 1.0
C      1  0.6064400000000  0.4513130000000  0.4902560000000 1.0
C      1  0.5384970000000  0.4070950000000  0.5210420000000 1.0
C      1  0.4770160000000  0.4840690000000  0.4847600000000 1.0
C      1  0.4095230000000  0.5362440000000  0.4924200000000 1.0
C      1  0.5512430000000  0.4884780000000  0.5392160000000 1.0
C      1  0.4642230000000  0.5751940000000  0.4726220000000 1.0
C      1  0.4506280000000  0.4938860000000  0.4415960000000 1.0
C      1  0.5002360000000  0.5964270000000  0.4868010000000 1.0
END
