TITL C-2778434-4341-292 -0.00360014103627214 125000 -1158.75931191462 0 0 200 (C1) n - 1
REM
REM in /home/nfs/bkarasulu/CARBON/AIRSS/Generating-Clusters/REBO/Only-C1/SD-CG/HFTN-CG
REM
REM
REM
REM
REM
REM ./C.cell (11c1c37f851c82e70ff6c80c92926a4b)
REM
REM compiler GCC version 9.2.1 20190827 (Red Hat 9.2.1-1)
REM options -cpp -mtune=generic -march=x86-64 -g -O0 -fpre-include=/usr/include/finclude/math-vector-fortran.h
REM seed 1442691558 -1219663488 1052601393 -1645671853 -28493310 299321813 635980821 -1518856889 1781326133 281484676 -207886675 -148782390 333921154 -1698873137 1231580789 2008739529 208569447 892564674 -1490065510 1226679180 -594884807 1966662728 -1011928134 -1284011146 -211878697 582824888 -119405027 -960439880 -1468472122 -380592700 1733518286 1752623013 1678967184
REM
CELL 1.54180   50.00000   50.00000   50.00000   90.00000   90.00000   90.00000
LATT -1
SFAC C  
C      1  0.4536790000000  0.5772900000000  0.5166050000000 1.0
C      1  0.5618530000000  0.4047140000000  0.5451270000000 1.0
C      1  0.4203510000000  0.5835490000000  0.5214770000000 1.0
C      1  0.4880830000000  0.5275380000000  0.4005840000000 1.0
C      1  0.4996330000000  0.4610040000000  0.5621430000000 1.0
C      1  0.5527260000000  0.5183740000000  0.4418440000000 1.0
C      1  0.3984150000000  0.5010990000000  0.5103180000000 1.0
C      1  0.4458220000000  0.4101250000000  0.4990470000000 1.0
C      1  0.5060070000000  0.5905340000000  0.4299350000000 1.0
C      1  0.4191270000000  0.5465290000000  0.4856730000000 1.0
C      1  0.4594270000000  0.5199370000000  0.5181490000000 1.0
C      1  0.5975270000000  0.5408570000000  0.4460710000000 1.0
C      1  0.6209420000000  0.5095720000000  0.4822880000000 1.0
C      1  0.4220530000000  0.5530530000000  0.5149230000000 1.0
C      1  0.4171700000000  0.4498800000000  0.5685160000000 1.0
C      1  0.5686850000000  0.4910110000000  0.4660980000000 1.0
C      1  0.4496960000000  0.4579360000000  0.5650910000000 1.0
C      1  0.5504130000000  0.5853270000000  0.4453210000000 1.0
C      1  0.5987410000000  0.5331560000000  0.4794140000000 1.0
C      1  0.4847760000000  0.4458760000000  0.4085720000000 1.0
C      1  0.5284360000000  0.5104440000000  0.4817120000000 1.0
C      1  0.4713900000000  0.4294760000000  0.4873110000000 1.0
C      1  0.5259970000000  0.4357580000000  0.5784610000000 1.0
C      1  0.5755970000000  0.4573170000000  0.5396560000000 1.0
C      1  0.5909340000000  0.5490070000000  0.5056120000000 1.0
C      1  0.5129820000000  0.5894160000000  0.5462800000000 1.0
C      1  0.3915120000000  0.5176410000000  0.5318610000000 1.0
C      1  0.5886980000000  0.4326610000000  0.5116930000000 1.0
C      1  0.5627500000000  0.4694350000000  0.4219330000000 1.0
C      1  0.4460880000000  0.5038940000000  0.4962710000000 1.0
C      1  0.4434260000000  0.5709240000000  0.4326590000000 1.0
C      1  0.4767460000000  0.4167260000000  0.4123380000000 1.0
C      1  0.4122000000000  0.5741870000000  0.4720000000000 1.0
C      1  0.4663530000000  0.5158830000000  0.3790220000000 1.0
C      1  0.5076610000000  0.5349590000000  0.5629180000000 1.0
C      1  0.4015140000000  0.4482260000000  0.5254370000000 1.0
C      1  0.4646010000000  0.4463370000000  0.4360850000000 1.0
C      1  0.6054290000000  0.4553790000000  0.4991360000000 1.0
C      1  0.4334740000000  0.5299490000000  0.5626550000000 1.0
C      1  0.4845170000000  0.5979460000000  0.5522380000000 1.0
C      1  0.4657010000000  0.4379630000000  0.5835270000000 1.0
C      1  0.4138400000000  0.5275980000000  0.4326390000000 1.0
C      1  0.5113310000000  0.5470680000000  0.3952170000000 1.0
C      1  0.5002420000000  0.4924170000000  0.4557170000000 1.0
C      1  0.3984130000000  0.4869790000000  0.4538340000000 1.0
C      1  0.4160690000000  0.4881130000000  0.4754110000000 1.0
C      1  0.4472310000000  0.4819010000000  0.5195670000000 1.0
C      1  0.4703680000000  0.4706110000000  0.3933080000000 1.0
C      1  0.4862510000000  0.5660430000000  0.5170220000000 1.0
C      1  0.5987380000000  0.4915950000000  0.5724920000000 1.0
C      1  0.5501900000000  0.5426630000000  0.5992330000000 1.0
C      1  0.5723400000000  0.4274880000000  0.5558650000000 1.0
C      1  0.5355760000000  0.3955630000000  0.5388650000000 1.0
C      1  0.5506160000000  0.5291700000000  0.4921310000000 1.0
C      1  0.5093000000000  0.4981670000000  0.5477390000000 1.0
C      1  0.5180320000000  0.3969900000000  0.4387320000000 1.0
C      1  0.5734350000000  0.5600480000000  0.4410760000000 1.0
C      1  0.6217440000000  0.4768850000000  0.4883180000000 1.0
C      1  0.5185180000000  0.5570720000000  0.5445420000000 1.0
C      1  0.5185860000000  0.5560050000000  0.4557460000000 1.0
C      1  0.4248040000000  0.4731910000000  0.5923970000000 1.0
C      1  0.5724590000000  0.5710700000000  0.4990000000000 1.0
C      1  0.4997090000000  0.4637540000000  0.4410100000000 1.0
C      1  0.4296380000000  0.5463650000000  0.4471250000000 1.0
C      1  0.4484020000000  0.4529640000000  0.5310570000000 1.0
C      1  0.5679270000000  0.4247370000000  0.4476720000000 1.0
C      1  0.4457350000000  0.5734340000000  0.5497270000000 1.0
C      1  0.6025400000000  0.5046720000000  0.5410460000000 1.0
C      1  0.4792030000000  0.4803230000000  0.4241420000000 1.0
C      1  0.5241890000000  0.5589990000000  0.5934220000000 1.0
C      1  0.4311420000000  0.5895150000000  0.4577930000000 1.0
C      1  0.5201690000000  0.5047490000000  0.5855300000000 1.0
C      1  0.4241840000000  0.4833400000000  0.4109210000000 1.0
C      1  0.5254390000000  0.4988770000000  0.4348330000000 1.0
C      1  0.4977200000000  0.5413350000000  0.5935430000000 1.0
C      1  0.4483390000000  0.5312280000000  0.3987430000000 1.0
C      1  0.5729710000000  0.4967090000000  0.4994090000000 1.0
C      1  0.5560650000000  0.4364640000000  0.4734200000000 1.0
C      1  0.5178400000000  0.6002770000000  0.4834210000000 1.0
C      1  0.6167920000000  0.5156370000000  0.4488980000000 1.0
C      1  0.4096280000000  0.4656460000000  0.4367190000000 1.0
C      1  0.5172300000000  0.4543210000000  0.4066880000000 1.0
C      1  0.4724990000000  0.4013200000000  0.4680180000000 1.0
C      1  0.5261600000000  0.6004620000000  0.5168120000000 1.0
C      1  0.4945370000000  0.5944800000000  0.5073390000000 1.0
C      1  0.5240500000000  0.3911870000000  0.5130810000000 1.0
C      1  0.5139930000000  0.4542200000000  0.6016090000000 1.0
C      1  0.5256320000000  0.5806770000000  0.5759050000000 1.0
C      1  0.5038450000000  0.3871700000000  0.4680780000000 1.0
C      1  0.5047510000000  0.4406980000000  0.5252700000000 1.0
C      1  0.5885500000000  0.5418970000000  0.5384900000000 1.0
C      1  0.5137180000000  0.5473100000000  0.5124110000000 1.0
C      1  0.5333540000000  0.4565350000000  0.4603910000000 1.0
C      1  0.5573670000000  0.5200280000000  0.5759820000000 1.0
C      1  0.5213920000000  0.4856540000000  0.6124150000000 1.0
C      1  0.4063920000000  0.5129520000000  0.5605850000000 1.0
C      1  0.5363530000000  0.5188740000000  0.5538630000000 1.0
C      1  0.5708680000000  0.5223720000000  0.4689520000000 1.0
C      1  0.5048060000000  0.4515020000000  0.4786190000000 1.0
C      1  0.3921730000000  0.5122750000000  0.4429670000000 1.0
C      1  0.4410100000000  0.4931530000000  0.5489170000000 1.0
C      1  0.5164030000000  0.4208570000000  0.4138090000000 1.0
C      1  0.4629760000000  0.5762710000000  0.4863440000000 1.0
C      1  0.5243440000000  0.5951170000000  0.4503570000000 1.0
C      1  0.5699840000000  0.4764160000000  0.5740960000000 1.0
C      1  0.4697610000000  0.5794640000000  0.5686020000000 1.0
C      1  0.5621360000000  0.4964300000000  0.4191940000000 1.0
C      1  0.4455490000000  0.5252690000000  0.6114650000000 1.0
C      1  0.5160830000000  0.4027370000000  0.5582180000000 1.0
C      1  0.4584900000000  0.5579170000000  0.4080720000000 1.0
C      1  0.4679500000000  0.5758310000000  0.4519750000000 1.0
C      1  0.4408770000000  0.4139920000000  0.4667320000000 1.0
C      1  0.4645630000000  0.4234230000000  0.5522950000000 1.0
C      1  0.4637470000000  0.4962860000000  0.4716150000000 1.0
C      1  0.4128910000000  0.5686010000000  0.5503550000000 1.0
C      1  0.4713480000000  0.5581050000000  0.5871670000000 1.0
C      1  0.4790320000000  0.4852230000000  0.5177460000000 1.0
C      1  0.4881830000000  0.5991430000000  0.4668160000000 1.0
C      1  0.5023660000000  0.4126560000000  0.5060550000000 1.0
C      1  0.4311480000000  0.4282270000000  0.5463340000000 1.0
C      1  0.4912090000000  0.4958770000000  0.3913660000000 1.0
C      1  0.4928980000000  0.4941570000000  0.4890800000000 1.0
C      1  0.4722550000000  0.4541130000000  0.4682070000000 1.0
C      1  0.5721270000000  0.5782370000000  0.4690170000000 1.0
C      1  0.4724990000000  0.5051650000000  0.4424120000000 1.0
C      1  0.4404340000000  0.4233360000000  0.4357470000000 1.0
C      1  0.5454590000000  0.4141360000000  0.4296300000000 1.0
C      1  0.5799270000000  0.4559030000000  0.4807560000000 1.0
C      1  0.5074410000000  0.4195440000000  0.4731220000000 1.0
C      1  0.4177720000000  0.5155250000000  0.4901850000000 1.0
C      1  0.5322780000000  0.4420860000000  0.4970480000000 1.0
C      1  0.4394040000000  0.5377280000000  0.5334320000000 1.0
C      1  0.4986400000000  0.5120820000000  0.6109690000000 1.0
C      1  0.4730030000000  0.4350370000000  0.5208860000000 1.0
C      1  0.4452110000000  0.4934320000000  0.6009830000000 1.0
C      1  0.4724850000000  0.3968600000000  0.5097500000000 1.0
C      1  0.5080440000000  0.4734620000000  0.5237610000000 1.0
C      1  0.4858320000000  0.5233490000000  0.5275710000000 1.0
C      1  0.5873360000000  0.4425540000000  0.4378120000000 1.0
C      1  0.5489460000000  0.5000060000000  0.5211190000000 1.0
C      1  0.4892510000000  0.5561210000000  0.4408970000000 1.0
C      1  0.3987350000000  0.5445660000000  0.5495130000000 1.0
C      1  0.4197700000000  0.4516740000000  0.4903930000000 1.0
C      1  0.4280190000000  0.5147830000000  0.4116140000000 1.0
C      1  0.6167360000000  0.4835790000000  0.4555510000000 1.0
C      1  0.4746950000000  0.5403980000000  0.4746310000000 1.0
C      1  0.5359310000000  0.5371330000000  0.4053110000000 1.0
C      1  0.4956800000000  0.5671500000000  0.4784690000000 1.0
C      1  0.5455980000000  0.5095540000000  0.6063140000000 1.0
C      1  0.4911940000000  0.5672920000000  0.4098310000000 1.0
C      1  0.5562880000000  0.4474260000000  0.5732130000000 1.0
C      1  0.5181300000000  0.4864680000000  0.4039800000000 1.0
C      1  0.4851170000000  0.5111810000000  0.5679220000000 1.0
C      1  0.5534040000000  0.4690740000000  0.4961600000000 1.0
C      1  0.4785040000000  0.5303010000000  0.4287640000000 1.0
C      1  0.4425440000000  0.4713760000000  0.3873730000000 1.0
C      1  0.4700580000000  0.5506230000000  0.5410400000000 1.0
C      1  0.4246310000000  0.4265630000000  0.5130410000000 1.0
C      1  0.4439470000000  0.4700880000000  0.4751510000000 1.0
C      1  0.4699080000000  0.5058640000000  0.6220510000000 1.0
C      1  0.5004050000000  0.5277440000000  0.4870020000000 1.0
C      1  0.5387800000000  0.5650390000000  0.5040450000000 1.0
C      1  0.5851470000000  0.5213480000000  0.5651470000000 1.0
C      1  0.4703140000000  0.6134950000000  0.5327810000000 1.0
C      1  0.5560380000000  0.4366590000000  0.5207840000000 1.0
C      1  0.4468890000000  0.5435360000000  0.5898290000000 1.0
C      1  0.4725190000000  0.4779400000000  0.5501950000000 1.0
C      1  0.6017520000000  0.4713850000000  0.5452810000000 1.0
C      1  0.5489440000000  0.5555470000000  0.5450950000000 1.0
C      1  0.5435710000000  0.5475110000000  0.4344020000000 1.0
C      1  0.4782980000000  0.4771910000000  0.6109870000000 1.0
C      1  0.5910410000000  0.5164410000000  0.5148350000000 1.0
C      1  0.4968650000000  0.4277470000000  0.5620380000000 1.0
C      1  0.5311620000000  0.4369520000000  0.5440160000000 1.0
C      1  0.4009300000000  0.4731800000000  0.5092170000000 1.0
C      1  0.5547180000000  0.4823730000000  0.5442160000000 1.0
C      1  0.4218480000000  0.4415880000000  0.4579070000000 1.0
C      1  0.5405730000000  0.4478950000000  0.4299790000000 1.0
C      1  0.5564660000000  0.5875960000000  0.5227200000000 1.0
C      1  0.5455350000000  0.5570730000000  0.4731870000000 1.0
C      1  0.5050270000000  0.4346160000000  0.4426030000000 1.0
C      1  0.5237300000000  0.4810160000000  0.4971510000000 1.0
C      1  0.5423600000000  0.5095010000000  0.4004410000000 1.0
C      1  0.5173030000000  0.5132450000000  0.5197840000000 1.0
C      1  0.4856570000000  0.4066020000000  0.4386180000000 1.0
C      1  0.4845960000000  0.4494120000000  0.6012540000000 1.0
C      1  0.4687720000000  0.6119970000000  0.5036760000000 1.0
C      1  0.5307270000000  0.4677300000000  0.5559830000000 1.0
C      1  0.5894170000000  0.4706790000000  0.4532210000000 1.0
C      1  0.5215960000000  0.3743530000000  0.4906900000000 1.0
C      1  0.5393070000000  0.4859100000000  0.4608240000000 1.0
C      1  0.4472530000000  0.5375660000000  0.4703730000000 1.0
C      1  0.4560690000000  0.5085720000000  0.5729660000000 1.0
C      1  0.5641340000000  0.5593890000000  0.5747000000000 1.0
C      1  0.4553500000000  0.6069280000000  0.4733190000000 1.0
C      1  0.4943160000000  0.4836840000000  0.5831340000000 1.0
C      1  0.4355900000000  0.4532620000000  0.4222250000000 1.0
C      1  0.5766580000000  0.5730120000000  0.5459800000000 1.0
C      1  0.5517160000000  0.5318930000000  0.5257190000000 1.0
C      1  0.4139270000000  0.4829890000000  0.5626730000000 1.0
END
