TITL C-2778426-5645-440 0.232281254002598 125000 -457.854457942325 0 0 80 (C1) n - 1
REM
REM in /home/nfs/bkarasulu/CARBON/AIRSS/Generating-Clusters/REBO/Only-C1/SD-CG/HFTN-CG
REM
REM
REM
REM
REM
REM ./C.cell (11c1c37f851c82e70ff6c80c92926a4b)
REM
REM compiler GCC version 9.2.1 20190827 (Red Hat 9.2.1-1)
REM options -cpp -mtune=generic -march=x86-64 -g -O0 -fpre-include=/usr/include/finclude/math-vector-fortran.h
REM seed -781326779 -1971138087 1178832517 -1678236931 124712722 -484283844 -323466179 329342225 1353188318 -1314550716 -432657806 -1762577088 -892790354 -960738850 2090809064 393225037 1179505454 1361228488 -1284262679 -900101409 831609086 1167646728 387095689 -1757292278 223571692 -1417614395 -1314699149 -623474542 -682891924 -443105077 -1672113764 817725986 790202309
REM
CELL 1.54180   50.00000   50.00000   50.00000   90.00000   90.00000   90.00000
LATT -1
SFAC C  
C      1  0.4880800000000  0.5647160000000  0.4536900000000 1.0
C      1  0.4138920000000  0.4674160000000  0.5483750000000 1.0
C      1  0.4752690000000  0.5177410000000  0.5372230000000 1.0
C      1  0.4610740000000  0.4657250000000  0.5075950000000 1.0
C      1  0.4953600000000  0.4489740000000  0.5467500000000 1.0
C      1  0.5281220000000  0.4924310000000  0.5705940000000 1.0
C      1  0.5263410000000  0.5108930000000  0.5142260000000 1.0
C      1  0.4561500000000  0.5238210000000  0.4532190000000 1.0
C      1  0.5081820000000  0.5263960000000  0.5323690000000 1.0
C      1  0.4771550000000  0.4928680000000  0.4835250000000 1.0
C      1  0.5744760000000  0.4994160000000  0.5127330000000 1.0
C      1  0.5003210000000  0.5567590000000  0.5462510000000 1.0
C      1  0.5409010000000  0.5370430000000  0.5600050000000 1.0
C      1  0.5488070000000  0.5051860000000  0.4517510000000 1.0
C      1  0.5105040000000  0.5015310000000  0.4218360000000 1.0
C      1  0.5327870000000  0.5196600000000  0.4291530000000 1.0
C      1  0.6259990000000  0.5153340000000  0.5093240000000 1.0
C      1  0.4183080000000  0.5548560000000  0.4886090000000 1.0
C      1  0.4435590000000  0.5730670000000  0.4980660000000 1.0
C      1  0.4881730000000  0.5426140000000  0.4389790000000 1.0
C      1  0.4740210000000  0.4540030000000  0.4481850000000 1.0
C      1  0.5506890000000  0.5100460000000  0.5665550000000 1.0
C      1  0.4815910000000  0.5127390000000  0.5059870000000 1.0
C      1  0.5241490000000  0.4703810000000  0.4234510000000 1.0
C      1  0.3888220000000  0.5073380000000  0.5538110000000 1.0
C      1  0.5045810000000  0.4469290000000  0.4917830000000 1.0
C      1  0.5250470000000  0.4222270000000  0.5481120000000 1.0
C      1  0.4060050000000  0.4919010000000  0.5393050000000 1.0
C      1  0.4423220000000  0.5517630000000  0.4643310000000 1.0
C      1  0.5227680000000  0.4114980000000  0.5220890000000 1.0
C      1  0.5384030000000  0.4784070000000  0.4532990000000 1.0
C      1  0.4421780000000  0.5566050000000  0.5278640000000 1.0
C      1  0.4655380000000  0.4861080000000  0.4528210000000 1.0
C      1  0.5560910000000  0.5222970000000  0.4738060000000 1.0
C      1  0.5352390000000  0.4493300000000  0.5496330000000 1.0
C      1  0.6010090000000  0.5076140000000  0.5109770000000 1.0
C      1  0.4610270000000  0.5814650000000  0.5255710000000 1.0
C      1  0.5032420000000  0.4939330000000  0.4642600000000 1.0
C      1  0.4950970000000  0.5775230000000  0.4824470000000 1.0
C      1  0.5663300000000  0.4742970000000  0.5224010000000 1.0
C      1  0.5507250000000  0.5517540000000  0.4675070000000 1.0
C      1  0.5343260000000  0.5636500000000  0.5117050000000 1.0
C      1  0.5402930000000  0.4645510000000  0.5264340000000 1.0
C      1  0.5092620000000  0.5240130000000  0.4693730000000 1.0
C      1  0.4816490000000  0.5102510000000  0.4349180000000 1.0
C      1  0.5067220000000  0.4189760000000  0.5704810000000 1.0
C      1  0.5448020000000  0.5524430000000  0.5359880000000 1.0
C      1  0.5526780000000  0.5148090000000  0.5017660000000 1.0
C      1  0.5122460000000  0.5400920000000  0.5692870000000 1.0
C      1  0.4998700000000  0.5329170000000  0.4938850000000 1.0
C      1  0.4398980000000  0.4990190000000  0.4705390000000 1.0
C      1  0.5767260000000  0.5026150000000  0.5664350000000 1.0
C      1  0.5346080000000  0.4537740000000  0.4019830000000 1.0
C      1  0.5202380000000  0.4020360000000  0.4734210000000 1.0
C      1  0.4795220000000  0.4900600000000  0.5540100000000 1.0
C      1  0.4857970000000  0.5784810000000  0.5377530000000 1.0
C      1  0.5489930000000  0.4656510000000  0.3815180000000 1.0
C      1  0.5216490000000  0.4715890000000  0.4802430000000 1.0
C      1  0.5165710000000  0.4182840000000  0.4954340000000 1.0
C      1  0.4344350000000  0.4844160000000  0.4975830000000 1.0
C      1  0.4214870000000  0.5256500000000  0.4714680000000 1.0
C      1  0.4846810000000  0.4823770000000  0.5214720000000 1.0
C      1  0.4502480000000  0.5346390000000  0.5407690000000 1.0
C      1  0.5173380000000  0.4805050000000  0.5118760000000 1.0
C      1  0.5009240000000  0.4459150000000  0.5234150000000 1.0
C      1  0.5006620000000  0.4698800000000  0.4438700000000 1.0
C      1  0.4091620000000  0.5256270000000  0.5023850000000 1.0
C      1  0.4726920000000  0.4696720000000  0.5722910000000 1.0
C      1  0.4778050000000  0.4587930000000  0.4808520000000 1.0
C      1  0.4630520000000  0.5743450000000  0.4731500000000 1.0
C      1  0.5268040000000  0.5385620000000  0.4521570000000 1.0
C      1  0.5254460000000  0.4006120000000  0.4031220000000 1.0
C      1  0.4156430000000  0.5012810000000  0.5148640000000 1.0
C      1  0.4963180000000  0.4493390000000  0.5807760000000 1.0
C      1  0.5070870000000  0.5596580000000  0.5012690000000 1.0
C      1  0.5035800000000  0.5090650000000  0.5640200000000 1.0
C      1  0.5521620000000  0.5691430000000  0.4898800000000 1.0
C      1  0.4322200000000  0.4517550000000  0.5072470000000 1.0
C      1  0.5298960000000  0.4264320000000  0.4025690000000 1.0
C      1  0.5241780000000  0.4645160000000  0.5713250000000 1.0
END
