TITL C-2778428-5639-60 -0.000936452211798778 125000 -296.212337294441 0 0 52 (C1) n - 1
REM
REM in /home/nfs/bkarasulu/CARBON/AIRSS/Generating-Clusters/REBO/Only-C1/SD-CG/HFTN-CG
REM
REM
REM
REM
REM
REM ./C.cell (11c1c37f851c82e70ff6c80c92926a4b)
REM
REM compiler GCC version 9.2.1 20190827 (Red Hat 9.2.1-1)
REM options -cpp -mtune=generic -march=x86-64 -g -O0 -fpre-include=/usr/include/finclude/math-vector-fortran.h
REM seed -1973021282 -981480603 -1332880224 -2070743623 -430431911 -847830002 42831957 -1329014621 -1207137405 -1624836960 775128544 597487348 1584812250 468651760 638884631 949381732 2105136095 716056405 -1097353192 -416221297 -1148150560 -1807479969 -548173074 -490800668 -1182933182 601457213 1170559245 1073692121 1488132764 -1626464006 -1930259918 -1965114785 408887115
REM
CELL 1.54180   50.00000   50.00000   50.00000   90.00000   90.00000   90.00000
LATT -1
SFAC C  
C      1  0.4959080000000  0.5270190000000  0.4339930000000 1.0
C      1  0.5757850000000  0.4907600000000  0.5098570000000 1.0
C      1  0.4949770000000  0.5606260000000  0.5334200000000 1.0
C      1  0.4784150000000  0.4399140000000  0.5044610000000 1.0
C      1  0.5200420000000  0.5193530000000  0.5390760000000 1.0
C      1  0.4826760000000  0.5823850000000  0.4706250000000 1.0
C      1  0.5426550000000  0.5011300000000  0.5497560000000 1.0
C      1  0.5329440000000  0.4390010000000  0.5187540000000 1.0
C      1  0.5893870000000  0.5369330000000  0.5119340000000 1.0
C      1  0.4961120000000  0.5341800000000  0.4920930000000 1.0
C      1  0.5667260000000  0.4873620000000  0.4831200000000 1.0
C      1  0.5338270000000  0.4836490000000  0.5707430000000 1.0
C      1  0.4151350000000  0.5130740000000  0.5138540000000 1.0
C      1  0.5132560000000  0.5891450000000  0.4730950000000 1.0
C      1  0.5006930000000  0.4587240000000  0.4647600000000 1.0
C      1  0.5383980000000  0.5258180000000  0.4608200000000 1.0
C      1  0.6006120000000  0.4988870000000  0.5170050000000 1.0
C      1  0.5183640000000  0.5155240000000  0.5060730000000 1.0
C      1  0.4805560000000  0.5083360000000  0.4497250000000 1.0
C      1  0.5162530000000  0.5403070000000  0.4495860000000 1.0
C      1  0.5335800000000  0.4693240000000  0.5167290000000 1.0
C      1  0.5414920000000  0.4842790000000  0.4735440000000 1.0
C      1  0.5134790000000  0.4472430000000  0.5433230000000 1.0
C      1  0.4577630000000  0.5796350000000  0.4824750000000 1.0
C      1  0.4006790000000  0.5047580000000  0.4911750000000 1.0
C      1  0.4964150000000  0.4550220000000  0.5186000000000 1.0
C      1  0.4538490000000  0.5612910000000  0.5023100000000 1.0
C      1  0.4630010000000  0.4855560000000  0.4466220000000 1.0
C      1  0.4361080000000  0.5189120000000  0.5294080000000 1.0
C      1  0.4669550000000  0.4697490000000  0.5412640000000 1.0
C      1  0.3734540000000  0.5050900000000  0.4908410000000 1.0
C      1  0.5110740000000  0.4673350000000  0.5643030000000 1.0
C      1  0.4909970000000  0.5100680000000  0.5500740000000 1.0
C      1  0.5038830000000  0.5563820000000  0.4720530000000 1.0
C      1  0.4356940000000  0.4892590000000  0.4525280000000 1.0
C      1  0.4154810000000  0.4960880000000  0.4688590000000 1.0
C      1  0.5061910000000  0.4860990000000  0.5109830000000 1.0
C      1  0.4753370000000  0.4888160000000  0.5203080000000 1.0
C      1  0.5345750000000  0.3965390000000  0.4946530000000 1.0
C      1  0.4619200000000  0.4367300000000  0.4450480000000 1.0
C      1  0.4957640000000  0.5060740000000  0.4745460000000 1.0
C      1  0.5671540000000  0.5287270000000  0.5007420000000 1.0
C      1  0.4669140000000  0.5192400000000  0.5287390000000 1.0
C      1  0.5127150000000  0.4354160000000  0.4751320000000 1.0
C      1  0.5542440000000  0.4861030000000  0.5279960000000 1.0
C      1  0.4871100000000  0.4830030000000  0.5595160000000 1.0
C      1  0.4752630000000  0.4596610000000  0.4513040000000 1.0
C      1  0.5433110000000  0.5211920000000  0.4887560000000 1.0
C      1  0.5271190000000  0.4226610000000  0.4958670000000 1.0
C      1  0.5134790000000  0.4836470000000  0.4718200000000 1.0
C      1  0.5155070000000  0.5501340000000  0.5439080000000 1.0
C      1  0.4767730000000  0.5438430000000  0.5138240000000 1.0
END
