TITL C-2778427-5640-274 0.000839241317942433 125000 -366.95269528639 0 0 62 (C1) n - 1
REM
REM in /home/nfs/bkarasulu/CARBON/AIRSS/Generating-Clusters/REBO/Only-C1/SD-CG/HFTN-CG
REM
REM
REM
REM
REM
REM ./C.cell (11c1c37f851c82e70ff6c80c92926a4b)
REM
REM compiler GCC version 9.2.1 20190827 (Red Hat 9.2.1-1)
REM options -cpp -mtune=generic -march=x86-64 -g -O0 -fpre-include=/usr/include/finclude/math-vector-fortran.h
REM seed 584681131 -134673882 -1674092615 -1446656538 951301741 -934435694 -584013388 136374222 -2094406219 1430856931 -1521819691 -1702205499 -1877091484 -1613413698 775865854 -98884487 341500178 -135803237 -1851993013 620016202 1360817031 1649960496 1374481943 92440380 -467280735 1242291911 -827870167 948713177 -1566572624 -1553138959 1295882992 1488552553 -1114446810
REM
CELL 1.54180   50.00000   50.00000   50.00000   90.00000   90.00000   90.00000
LATT -1
SFAC C  
C      1  0.5263410000000  0.4860750000000  0.4176760000000 1.0
C      1  0.5407630000000  0.5101350000000  0.4289760000000 1.0
C      1  0.5711590000000  0.5120350000000  0.5459960000000 1.0
C      1  0.5680400000000  0.5148180000000  0.4729110000000 1.0
C      1  0.4910680000000  0.5511370000000  0.5390170000000 1.0
C      1  0.4833090000000  0.4589750000000  0.5016820000000 1.0
C      1  0.5538490000000  0.4734290000000  0.4568600000000 1.0
C      1  0.5106790000000  0.4335990000000  0.5311650000000 1.0
C      1  0.4720230000000  0.4630070000000  0.4640040000000 1.0
C      1  0.5043410000000  0.4634560000000  0.4772190000000 1.0
C      1  0.4927370000000  0.5334210000000  0.4303000000000 1.0
C      1  0.5374050000000  0.5372340000000  0.4504140000000 1.0
C      1  0.5305100000000  0.4448160000000  0.5487860000000 1.0
C      1  0.4951140000000  0.4887650000000  0.4124380000000 1.0
C      1  0.5597050000000  0.4994620000000  0.4507370000000 1.0
C      1  0.4733960000000  0.4848240000000  0.5626010000000 1.0
C      1  0.5160830000000  0.5391060000000  0.5474680000000 1.0
C      1  0.4896260000000  0.5102600000000  0.5029130000000 1.0
C      1  0.4392460000000  0.4636270000000  0.5146850000000 1.0
C      1  0.5145710000000  0.5201900000000  0.5734460000000 1.0
C      1  0.4613630000000  0.5488750000000  0.5328560000000 1.0
C      1  0.4392480000000  0.4938850000000  0.4381880000000 1.0
C      1  0.5423660000000  0.4865320000000  0.5030810000000 1.0
C      1  0.4227860000000  0.4866490000000  0.5104550000000 1.0
C      1  0.4791710000000  0.5119280000000  0.4171100000000 1.0
C      1  0.4452750000000  0.5175710000000  0.4797630000000 1.0
C      1  0.4326840000000  0.5133620000000  0.5053400000000 1.0
C      1  0.4617910000000  0.4654250000000  0.5401350000000 1.0
C      1  0.5359690000000  0.5411550000000  0.5257450000000 1.0
C      1  0.5166880000000  0.4215310000000  0.5053200000000 1.0
C      1  0.5596010000000  0.5088450000000  0.4993620000000 1.0
C      1  0.5263750000000  0.4875040000000  0.5262280000000 1.0
C      1  0.5196780000000  0.5470330000000  0.6218140000000 1.0
C      1  0.4944130000000  0.4754080000000  0.5808000000000 1.0
C      1  0.4950840000000  0.5583880000000  0.5101700000000 1.0
C      1  0.4526550000000  0.4526020000000  0.4900270000000 1.0
C      1  0.5173320000000  0.5347010000000  0.5995950000000 1.0
C      1  0.4694260000000  0.4884390000000  0.4946810000000 1.0
C      1  0.4611710000000  0.4948380000000  0.5261140000000 1.0
C      1  0.5353930000000  0.4370280000000  0.4853850000000 1.0
C      1  0.5235380000000  0.5517080000000  0.4999330000000 1.0
C      1  0.4971280000000  0.4465420000000  0.4495160000000 1.0
C      1  0.5030640000000  0.5031440000000  0.5268850000000 1.0
C      1  0.4864850000000  0.4479000000000  0.5298090000000 1.0
C      1  0.5205620000000  0.5357490000000  0.4240060000000 1.0
C      1  0.5649120000000  0.4876380000000  0.5569050000000 1.0
C      1  0.5598430000000  0.5252010000000  0.5233560000000 1.0
C      1  0.4500470000000  0.5228750000000  0.5295160000000 1.0
C      1  0.5358970000000  0.4674390000000  0.4811100000000 1.0
C      1  0.4914520000000  0.5069660000000  0.5528790000000 1.0
C      1  0.4536600000000  0.4903450000000  0.4653650000000 1.0
C      1  0.5184320000000  0.4880360000000  0.5754780000000 1.0
C      1  0.4491590000000  0.5649900000000  0.4866160000000 1.0
C      1  0.4557140000000  0.5423750000000  0.4704960000000 1.0
C      1  0.5066880000000  0.4608260000000  0.4249200000000 1.0
C      1  0.4881500000000  0.5414460000000  0.4602980000000 1.0
C      1  0.5361250000000  0.4759200000000  0.5533930000000 1.0
C      1  0.5095430000000  0.4242880000000  0.4720270000000 1.0
C      1  0.5204740000000  0.5452140000000  0.4715270000000 1.0
C      1  0.4879940000000  0.5353470000000  0.4923940000000 1.0
C      1  0.4514310000000  0.5680970000000  0.5139310000000 1.0
C      1  0.4512640000000  0.5078870000000  0.4181750000000 1.0
END
