TITL C-2778433-5640-540 0.00105869336367986 125000 -478.919323363557 0 0 84 (C1) n - 1
REM
REM in /home/nfs/bkarasulu/CARBON/AIRSS/Generating-Clusters/REBO/Only-C1/SD-CG/HFTN-CG
REM
REM
REM
REM
REM
REM ./C.cell (11c1c37f851c82e70ff6c80c92926a4b)
REM
REM compiler GCC version 9.2.1 20190827 (Red Hat 9.2.1-1)
REM options -cpp -mtune=generic -march=x86-64 -g -O0 -fpre-include=/usr/include/finclude/math-vector-fortran.h
REM seed 775369136 1749395288 734868637 336203078 904684474 -1414239562 -912175346 1081098894 504816023 -1167928785 -1493144584 -2137467295 -541642227 444699790 -1375420631 1216946275 1792981903 -1043066445 1642481082 1315476703 537223659 1119132403 1679765047 -1498022823 639813669 1147136706 2124189252 -7574394 -858780565 -1193403964 78713441 -1084150649 2146046907
REM
CELL 1.54180   50.00000   50.00000   50.00000   90.00000   90.00000   90.00000
LATT -1
SFAC C  
C      1  0.5056250000000  0.4955470000000  0.4382880000000 1.0
C      1  0.4834740000000  0.4227590000000  0.4626050000000 1.0
C      1  0.5563870000000  0.4752050000000  0.5049740000000 1.0
C      1  0.5314080000000  0.5724780000000  0.4907990000000 1.0
C      1  0.5116920000000  0.4582510000000  0.4258710000000 1.0
C      1  0.5517390000000  0.4716140000000  0.4484020000000 1.0
C      1  0.5066170000000  0.4174090000000  0.4975240000000 1.0
C      1  0.4508810000000  0.5348810000000  0.5522530000000 1.0
C      1  0.5120030000000  0.5902990000000  0.5315070000000 1.0
C      1  0.5355430000000  0.5790930000000  0.5190030000000 1.0
C      1  0.4896430000000  0.4808160000000  0.4128590000000 1.0
C      1  0.4965380000000  0.5716610000000  0.4536960000000 1.0
C      1  0.5301220000000  0.5040950000000  0.5428660000000 1.0
C      1  0.4747940000000  0.5291550000000  0.4258840000000 1.0
C      1  0.5150980000000  0.5172860000000  0.4591950000000 1.0
C      1  0.5040550000000  0.5747940000000  0.4818570000000 1.0
C      1  0.5281310000000  0.5012300000000  0.5826640000000 1.0
C      1  0.4660710000000  0.5069320000000  0.4579570000000 1.0
C      1  0.4856040000000  0.4919150000000  0.5096210000000 1.0
C      1  0.5120180000000  0.5413050000000  0.5599540000000 1.0
C      1  0.5302730000000  0.5337720000000  0.5358020000000 1.0
C      1  0.4788720000000  0.5120420000000  0.5352890000000 1.0
C      1  0.5364280000000  0.5014830000000  0.4130840000000 1.0
C      1  0.5041810000000  0.4937140000000  0.5449880000000 1.0
C      1  0.5030770000000  0.4268850000000  0.5240470000000 1.0
C      1  0.5465430000000  0.5526930000000  0.4769470000000 1.0
C      1  0.5527590000000  0.5041960000000  0.4951970000000 1.0
C      1  0.5538630000000  0.4892150000000  0.5538790000000 1.0
C      1  0.4696400000000  0.5598730000000  0.4509410000000 1.0
C      1  0.4820470000000  0.5359250000000  0.4893350000000 1.0
C      1  0.4786200000000  0.5378020000000  0.5658810000000 1.0
C      1  0.4838390000000  0.5454200000000  0.5322390000000 1.0
C      1  0.4266610000000  0.4938670000000  0.5101290000000 1.0
C      1  0.5235460000000  0.4359920000000  0.4790870000000 1.0
C      1  0.4716410000000  0.4744160000000  0.5591070000000 1.0
C      1  0.5083910000000  0.4619650000000  0.5505900000000 1.0
C      1  0.4980140000000  0.5695440000000  0.5525070000000 1.0
C      1  0.5273380000000  0.5206070000000  0.5070150000000 1.0
C      1  0.5602200000000  0.5428430000000  0.5604510000000 1.0
C      1  0.5260420000000  0.4731980000000  0.5774830000000 1.0
C      1  0.4813870000000  0.4934150000000  0.4794880000000 1.0
C      1  0.5165830000000  0.5589610000000  0.4304880000000 1.0
C      1  0.4343200000000  0.4829560000000  0.5476960000000 1.0
C      1  0.4459150000000  0.4658730000000  0.4723160000000 1.0
C      1  0.5281820000000  0.5345270000000  0.4130440000000 1.0
C      1  0.4781090000000  0.5883520000000  0.5333930000000 1.0
C      1  0.4953590000000  0.3941290000000  0.4878110000000 1.0
C      1  0.5051610000000  0.5100950000000  0.4071920000000 1.0
C      1  0.5068010000000  0.4661390000000  0.5168230000000 1.0
C      1  0.5805370000000  0.4678630000000  0.5133560000000 1.0
C      1  0.4686770000000  0.4686650000000  0.5281860000000 1.0
C      1  0.5066350000000  0.5229690000000  0.4885250000000 1.0
C      1  0.5537320000000  0.5171320000000  0.5722170000000 1.0
C      1  0.4529360000000  0.4333770000000  0.5181650000000 1.0
C      1  0.4982860000000  0.5346420000000  0.4391360000000 1.0
C      1  0.4769920000000  0.4300030000000  0.5363530000000 1.0
C      1  0.4290470000000  0.4851670000000  0.4782260000000 1.0
C      1  0.5317660000000  0.4651500000000  0.4678010000000 1.0
C      1  0.5307140000000  0.4408630000000  0.5360610000000 1.0
C      1  0.5473690000000  0.4591870000000  0.5578430000000 1.0
C      1  0.4644990000000  0.4913990000000  0.4333830000000 1.0
C      1  0.4644100000000  0.4621490000000  0.4371090000000 1.0
C      1  0.5375110000000  0.4745680000000  0.4236990000000 1.0
C      1  0.4779890000000  0.4556160000000  0.4673780000000 1.0
C      1  0.5041520000000  0.4771410000000  0.4633030000000 1.0
C      1  0.5753870000000  0.4861300000000  0.4537520000000 1.0
C      1  0.4414390000000  0.5475130000000  0.5284200000000 1.0
C      1  0.4740870000000  0.4333380000000  0.5632490000000 1.0
C      1  0.4370960000000  0.4634050000000  0.5212910000000 1.0
C      1  0.5766530000000  0.5053360000000  0.4732530000000 1.0
C      1  0.4824910000000  0.4532320000000  0.5010510000000 1.0
C      1  0.5431650000000  0.5261100000000  0.4709590000000 1.0
C      1  0.5492130000000  0.5590390000000  0.5354630000000 1.0
C      1  0.5006790000000  0.5152870000000  0.5786840000000 1.0
C      1  0.4831830000000  0.5631050000000  0.5031030000000 1.0
C      1  0.4673770000000  0.4247790000000  0.4903450000000 1.0
C      1  0.4485560000000  0.5054580000000  0.5493090000000 1.0
C      1  0.5341670000000  0.4546210000000  0.5056120000000 1.0
C      1  0.4560470000000  0.5713680000000  0.5203450000000 1.0
C      1  0.5088800000000  0.4391770000000  0.4481020000000 1.0
C      1  0.4297830000000  0.5280770000000  0.5115100000000 1.0
C      1  0.4197560000000  0.5154670000000  0.4838750000000 1.0
C      1  0.4664240000000  0.5349380000000  0.4649830000000 1.0
C      1  0.4791040000000  0.4911060000000  0.5759270000000 1.0
END
