TITL C-2778429-3646-536 0.00173838421309656 125000 -317.792616568373 0 0 57 (C1) n - 1
REM
REM in /home/nfs/bkarasulu/CARBON/AIRSS/Generating-Clusters/REBO/Only-C1/SD-CG/HFTN-CG
REM
REM
REM
REM
REM
REM ./C.cell (11c1c37f851c82e70ff6c80c92926a4b)
REM
REM compiler GCC version 9.2.1 20190827 (Red Hat 9.2.1-1)
REM options -cpp -mtune=generic -march=x86-64 -g -O0 -fpre-include=/usr/include/finclude/math-vector-fortran.h
REM seed -974374805 -1068208395 2122816999 1068029099 17693319 1519674569 -544519847 -1603435446 -1707959669 -539014524 -711591731 -1270358644 1336801390 -1543145527 -1826583352 1811898066 430207113 1559474676 -2038740984 -17732186 114769270 1884308544 -701610285 -2094614937 -1855181573 -861632416 1049868507 -1811112247 -1663717697 97060366 830859903 1170192374 -1560405453
REM
CELL 1.54180   50.00000   50.00000   50.00000   90.00000   90.00000   90.00000
LATT -1
SFAC C  
C      1  0.5064840000000  0.5011120000000  0.5812590000000 1.0
C      1  0.4248900000000  0.4505870000000  0.4988610000000 1.0
C      1  0.4496470000000  0.5213220000000  0.5270850000000 1.0
C      1  0.4713490000000  0.5307430000000  0.5463050000000 1.0
C      1  0.4874120000000  0.5383590000000  0.4511890000000 1.0
C      1  0.5034850000000  0.5504380000000  0.4926130000000 1.0
C      1  0.5344790000000  0.5496190000000  0.4981360000000 1.0
C      1  0.4965590000000  0.4955100000000  0.4274360000000 1.0
C      1  0.5368530000000  0.4614630000000  0.4361300000000 1.0
C      1  0.4993500000000  0.4370140000000  0.4741430000000 1.0
C      1  0.4356550000000  0.5164410000000  0.4715800000000 1.0
C      1  0.5040240000000  0.4723730000000  0.5631500000000 1.0
C      1  0.4848590000000  0.5249200000000  0.5048560000000 1.0
C      1  0.5679570000000  0.5276300000000  0.4634150000000 1.0
C      1  0.5450170000000  0.5491080000000  0.4657010000000 1.0
C      1  0.5234880000000  0.5440320000000  0.5285280000000 1.0
C      1  0.4504140000000  0.5002950000000  0.4509490000000 1.0
C      1  0.5501100000000  0.4475340000000  0.4615460000000 1.0
C      1  0.4687680000000  0.5529390000000  0.5118920000000 1.0
C      1  0.5006060000000  0.5529200000000  0.5462540000000 1.0
C      1  0.4378200000000  0.5295050000000  0.5029240000000 1.0
C      1  0.5089970000000  0.5245820000000  0.4320560000000 1.0
C      1  0.4591930000000  0.4822840000000  0.5535270000000 1.0
C      1  0.5111760000000  0.4378020000000  0.5060390000000 1.0
C      1  0.4258420000000  0.5466930000000  0.4781020000000 1.0
C      1  0.4814570000000  0.4580550000000  0.4599640000000 1.0
C      1  0.5010280000000  0.5037200000000  0.4846350000000 1.0
C      1  0.5128380000000  0.4752970000000  0.4423520000000 1.0
C      1  0.5646240000000  0.4741600000000  0.4459790000000 1.0
C      1  0.5436160000000  0.4749600000000  0.5494160000000 1.0
C      1  0.4782630000000  0.5669310000000  0.5309160000000 1.0
C      1  0.4753580000000  0.5156530000000  0.4671510000000 1.0
C      1  0.5475700000000  0.5000750000000  0.5352030000000 1.0
C      1  0.4631590000000  0.4911570000000  0.4873310000000 1.0
C      1  0.5316050000000  0.4364550000000  0.4792410000000 1.0
C      1  0.4646740000000  0.4548830000000  0.5474890000000 1.0
C      1  0.5226160000000  0.4537310000000  0.5330720000000 1.0
C      1  0.5630630000000  0.5029690000000  0.4456700000000 1.0
C      1  0.5239430000000  0.5153500000000  0.5327660000000 1.0
C      1  0.4447670000000  0.4938720000000  0.5320780000000 1.0
C      1  0.5324740000000  0.4796610000000  0.5813540000000 1.0
C      1  0.4446550000000  0.4770180000000  0.5072620000000 1.0
C      1  0.4957660000000  0.5311800000000  0.5702700000000 1.0
C      1  0.4532270000000  0.4457920000000  0.5167230000000 1.0
C      1  0.5289910000000  0.5145830000000  0.4778830000000 1.0
C      1  0.5268770000000  0.5508020000000  0.4446870000000 1.0
C      1  0.4958180000000  0.4757020000000  0.5336250000000 1.0
C      1  0.5340850000000  0.5119440000000  0.4494510000000 1.0
C      1  0.5565160000000  0.5241110000000  0.4942540000000 1.0
C      1  0.4993120000000  0.5036680000000  0.5244560000000 1.0
C      1  0.5050370000000  0.4761720000000  0.4725040000000 1.0
C      1  0.4852600000000  0.4466530000000  0.5216100000000 1.0
C      1  0.4951910000000  0.5586630000000  0.4677600000000 1.0
C      1  0.4722180000000  0.4812370000000  0.4411160000000 1.0
C      1  0.4761640000000  0.5033980000000  0.5661020000000 1.0
C      1  0.5287550000000  0.4489430000000  0.5663600000000 1.0
C      1  0.5666390000000  0.5079800000000  0.5176430000000 1.0
END
