TITL C-2778432-5617-820 0.000323715627617326 125000 -232.629443284398 0 0 43 (C1) n - 1
REM
REM in /home/nfs/bkarasulu/CARBON/AIRSS/Generating-Clusters/REBO/Only-C1/SD-CG/HFTN-CG
REM
REM
REM
REM
REM
REM ./C.cell (11c1c37f851c82e70ff6c80c92926a4b)
REM
REM compiler GCC version 9.2.1 20190827 (Red Hat 9.2.1-1)
REM options -cpp -mtune=generic -march=x86-64 -g -O0 -fpre-include=/usr/include/finclude/math-vector-fortran.h
REM seed -1447856686 1076351161 -837658198 -404009997 671513549 -1963536426 -419664599 394932817 -1014035288 198826019 -1737971592 1811916240 368324938 -1542204748 -641087587 -185702762 2076693679 982554501 -1387706966 645080637 -523947425 -743333324 1728789077 646631089 2048101084 -1169443100 260480248 1911576114 -424485696 1011344381 1990535801 2039003535 148507006
REM
CELL 1.54180   50.00000   50.00000   50.00000   90.00000   90.00000   90.00000
LATT -1
SFAC C  
C      1  0.4809100000000  0.4561730000000  0.4227390000000 1.0
C      1  0.4567300000000  0.5509760000000  0.4984020000000 1.0
C      1  0.5683900000000  0.5262140000000  0.4879860000000 1.0
C      1  0.5165760000000  0.4924960000000  0.5622860000000 1.0
C      1  0.4833910000000  0.4490830000000  0.5074310000000 1.0
C      1  0.5239030000000  0.4423110000000  0.5360870000000 1.0
C      1  0.4894270000000  0.4718180000000  0.4438000000000 1.0
C      1  0.5779440000000  0.5022790000000  0.4990440000000 1.0
C      1  0.4560710000000  0.5316650000000  0.4791250000000 1.0
C      1  0.5456210000000  0.5386790000000  0.5060330000000 1.0
C      1  0.4669460000000  0.4878580000000  0.4591000000000 1.0
C      1  0.5493540000000  0.4722770000000  0.5295590000000 1.0
C      1  0.5160670000000  0.4454910000000  0.4847280000000 1.0
C      1  0.5132660000000  0.5275150000000  0.5039400000000 1.0
C      1  0.4773370000000  0.5684230000000  0.5070730000000 1.0
C      1  0.4078410000000  0.4464620000000  0.4949000000000 1.0
C      1  0.5190380000000  0.4704920000000  0.5178910000000 1.0
C      1  0.5641130000000  0.4960400000000  0.5236580000000 1.0
C      1  0.4967220000000  0.5758570000000  0.4855480000000 1.0
C      1  0.4697020000000  0.4905150000000  0.5352710000000 1.0
C      1  0.4984900000000  0.4705440000000  0.4765010000000 1.0
C      1  0.5277300000000  0.5183690000000  0.5485580000000 1.0
C      1  0.5497330000000  0.5198380000000  0.5316680000000 1.0
C      1  0.4914910000000  0.5270170000000  0.4461770000000 1.0
C      1  0.5144750000000  0.5401850000000  0.4521710000000 1.0
C      1  0.4306610000000  0.5249630000000  0.5140050000000 1.0
C      1  0.4466110000000  0.4736150000000  0.4714170000000 1.0
C      1  0.5309860000000  0.4927710000000  0.4712760000000 1.0
C      1  0.5304350000000  0.4679870000000  0.5559000000000 1.0
C      1  0.5207330000000  0.4784640000000  0.4444910000000 1.0
C      1  0.5259700000000  0.5648320000000  0.5102980000000 1.0
C      1  0.5004810000000  0.5611200000000  0.5247150000000 1.0
C      1  0.5181050000000  0.5515090000000  0.4800260000000 1.0
C      1  0.5085270000000  0.4326050000000  0.5110950000000 1.0
C      1  0.4696790000000  0.5156290000000  0.4601810000000 1.0
C      1  0.4904220000000  0.5061070000000  0.5511670000000 1.0
C      1  0.5007970000000  0.5321340000000  0.5353190000000 1.0
C      1  0.4485570000000  0.5094840000000  0.5235640000000 1.0
C      1  0.5360850000000  0.4609550000000  0.4673230000000 1.0
C      1  0.4882250000000  0.4803570000000  0.5133670000000 1.0
C      1  0.4578140000000  0.4696170000000  0.5502020000000 1.0
C      1  0.5075730000000  0.4993430000000  0.4927230000000 1.0
C      1  0.4270710000000  0.4599300000000  0.4832530000000 1.0
END
