TITL C-2778424-3986-659 0.00486289252277264 125000 -334.431390092712 0 0 58 (C1) n - 1
REM
REM in /home/nfs/bkarasulu/CARBON/AIRSS/Generating-Clusters/REBO/Only-C1/SD-CG/HFTN-CG
REM
REM
REM
REM
REM
REM ./C.cell (11c1c37f851c82e70ff6c80c92926a4b)
REM
REM compiler GCC version 9.2.1 20190827 (Red Hat 9.2.1-1)
REM options -cpp -mtune=generic -march=x86-64 -g -O0 -fpre-include=/usr/include/finclude/math-vector-fortran.h
REM seed 644610400 -77380618 -1978050223 1014708453 2098299307 -1826359245 -1977865370 1171099125 1569649753 1140841194 2002296539 1456444138 1005191148 -200148152 -1165891306 153022082 -186690274 -116551524 -1520612532 -2099063949 1926480240 439947499 64047494 2126593732 -1466280796 1746119767 257165433 301057346 1483520513 -1930564411 -1408594323 -668059701 -2069793020
REM
CELL 1.54180   50.00000   50.00000   50.00000   90.00000   90.00000   90.00000
LATT -1
SFAC C  
C      1  0.5372850000000  0.6114530000000  0.5200770000000 1.0
C      1  0.5407400000000  0.5341010000000  0.4763850000000 1.0
C      1  0.5201610000000  0.4763090000000  0.4739270000000 1.0
C      1  0.5608910000000  0.4884060000000  0.4825320000000 1.0
C      1  0.5303330000000  0.5869170000000  0.5210230000000 1.0
C      1  0.4680590000000  0.4908790000000  0.5741040000000 1.0
C      1  0.5398330000000  0.5347270000000  0.5068590000000 1.0
C      1  0.4749700000000  0.4976650000000  0.5200110000000 1.0
C      1  0.5512050000000  0.4762920000000  0.5293820000000 1.0
C      1  0.5411830000000  0.4396100000000  0.4804290000000 1.0
C      1  0.5386380000000  0.5033020000000  0.4389210000000 1.0
C      1  0.5044780000000  0.4797790000000  0.5863520000000 1.0
C      1  0.4898640000000  0.4743100000000  0.5130740000000 1.0
C      1  0.5122100000000  0.4632050000000  0.4513000000000 1.0
C      1  0.4443470000000  0.4476060000000  0.4805490000000 1.0
C      1  0.5070100000000  0.5671600000000  0.4844970000000 1.0
C      1  0.4725130000000  0.5278920000000  0.5199320000000 1.0
C      1  0.4679050000000  0.4414060000000  0.4653870000000 1.0
C      1  0.5122450000000  0.5171800000000  0.5104510000000 1.0
C      1  0.4932900000000  0.4276610000000  0.5104210000000 1.0
C      1  0.5570520000000  0.4610580000000  0.4760010000000 1.0
C      1  0.5645310000000  0.5212040000000  0.5182230000000 1.0
C      1  0.4921570000000  0.5301290000000  0.4855470000000 1.0
C      1  0.4256300000000  0.4913730000000  0.4608450000000 1.0
C      1  0.5511210000000  0.4862290000000  0.4217880000000 1.0
C      1  0.5007450000000  0.4992740000000  0.4838200000000 1.0
C      1  0.5042770000000  0.4820130000000  0.5575080000000 1.0
C      1  0.4732740000000  0.5178070000000  0.5734560000000 1.0
C      1  0.4795460000000  0.4633120000000  0.4482510000000 1.0
C      1  0.5350220000000  0.5407540000000  0.5460820000000 1.0
C      1  0.4909220000000  0.5293170000000  0.5554110000000 1.0
C      1  0.4492040000000  0.5104060000000  0.4614110000000 1.0
C      1  0.4729520000000  0.5348980000000  0.4611650000000 1.0
C      1  0.4871770000000  0.4256980000000  0.4788280000000 1.0
C      1  0.5654300000000  0.4936930000000  0.5111100000000 1.0
C      1  0.4470670000000  0.4446030000000  0.5090030000000 1.0
C      1  0.5495640000000  0.5093950000000  0.4651630000000 1.0
C      1  0.4745560000000  0.4480200000000  0.5242470000000 1.0
C      1  0.4910940000000  0.4922390000000  0.4340460000000 1.0
C      1  0.5200790000000  0.5501330000000  0.4650880000000 1.0
C      1  0.4322340000000  0.5129580000000  0.5371430000000 1.0
C      1  0.4439780000000  0.5348470000000  0.5219250000000 1.0
C      1  0.4740090000000  0.4689790000000  0.5491160000000 1.0
C      1  0.5179280000000  0.4275210000000  0.4887530000000 1.0
C      1  0.4257370000000  0.4657260000000  0.4695300000000 1.0
C      1  0.5145530000000  0.4659970000000  0.5011020000000 1.0
C      1  0.4926790000000  0.5519110000000  0.5113020000000 1.0
C      1  0.4425520000000  0.5408890000000  0.4734090000000 1.0
C      1  0.4504270000000  0.4910320000000  0.5383250000000 1.0
C      1  0.4758030000000  0.4938280000000  0.4630060000000 1.0
C      1  0.5220930000000  0.5578310000000  0.5221440000000 1.0
C      1  0.4337600000000  0.5468630000000  0.4982220000000 1.0
C      1  0.5361330000000  0.4562160000000  0.5164620000000 1.0
C      1  0.5429260000000  0.5183860000000  0.5556240000000 1.0
C      1  0.5112330000000  0.5124270000000  0.4340690000000 1.0
C      1  0.5361870000000  0.4898470000000  0.5501470000000 1.0
C      1  0.5070280000000  0.5109890000000  0.5396880000000 1.0
C      1  0.5021800000000  0.5363370000000  0.4474250000000 1.0
END
