TITL C-2778435-5768-384 0.000148848552644053 125000 -657.117871856079 0 0 114 (C1) n - 1
REM
REM in /home/nfs/bkarasulu/CARBON/AIRSS/Generating-Clusters/REBO/Only-C1/SD-CG/HFTN-CG
REM
REM
REM
REM
REM
REM ./C.cell (11c1c37f851c82e70ff6c80c92926a4b)
REM
REM compiler GCC version 9.2.1 20190827 (Red Hat 9.2.1-1)
REM options -cpp -mtune=generic -march=x86-64 -g -O0 -fpre-include=/usr/include/finclude/math-vector-fortran.h
REM seed 55792700 363422097 -1020219129 -727209954 1051147449 -818742185 667000005 -1351806628 992507907 937780461 2052728291 -577938075 -461265127 -1118900520 -285863698 607908134 1359407264 -133649483 -1193442714 1421195339 1052467737 1551833501 -330433451 1460544383 -1426619371 -1665382246 21691385 1880388608 -569304241 1780482904 429669537 -483212352 -571321641
REM
CELL 1.54180   50.00000   50.00000   50.00000   90.00000   90.00000   90.00000
LATT -1
SFAC C  
C      1  0.5539390000000  0.4575070000000  0.4475570000000 1.0
C      1  0.5062880000000  0.4959490000000  0.5825320000000 1.0
C      1  0.4588990000000  0.5929030000000  0.5113570000000 1.0
C      1  0.4919800000000  0.5223590000000  0.4220310000000 1.0
C      1  0.4717860000000  0.4791410000000  0.4973460000000 1.0
C      1  0.4271930000000  0.4616530000000  0.4551280000000 1.0
C      1  0.4496760000000  0.4270130000000  0.4841250000000 1.0
C      1  0.5400930000000  0.4233880000000  0.5560390000000 1.0
C      1  0.4258840000000  0.5056460000000  0.5516280000000 1.0
C      1  0.5558650000000  0.5830250000000  0.5073430000000 1.0
C      1  0.4978820000000  0.5913310000000  0.5065340000000 1.0
C      1  0.4936250000000  0.5251330000000  0.4922860000000 1.0
C      1  0.5268500000000  0.5618530000000  0.5605560000000 1.0
C      1  0.4623830000000  0.4371910000000  0.5115320000000 1.0
C      1  0.5711160000000  0.4505320000000  0.5097570000000 1.0
C      1  0.4959640000000  0.5747270000000  0.4573530000000 1.0
C      1  0.5429500000000  0.5814450000000  0.4828030000000 1.0
C      1  0.4618760000000  0.5169350000000  0.4133510000000 1.0
C      1  0.5247440000000  0.5065800000000  0.5374970000000 1.0
C      1  0.4446870000000  0.5198490000000  0.5198290000000 1.0
C      1  0.4496230000000  0.5475270000000  0.5219010000000 1.0
C      1  0.4985960000000  0.4538080000000  0.4580230000000 1.0
C      1  0.4934350000000  0.5472320000000  0.4425570000000 1.0
C      1  0.5322460000000  0.5088770000000  0.5663480000000 1.0
C      1  0.5867520000000  0.5130560000000  0.5135060000000 1.0
C      1  0.5420210000000  0.4727550000000  0.4232670000000 1.0
C      1  0.4960010000000  0.4118080000000  0.4721890000000 1.0
C      1  0.5131770000000  0.5732800000000  0.4850190000000 1.0
C      1  0.5400520000000  0.4632670000000  0.5471470000000 1.0
C      1  0.5415640000000  0.4332610000000  0.5026800000000 1.0
C      1  0.5446220000000  0.4856730000000  0.4959660000000 1.0
C      1  0.5793920000000  0.5357220000000  0.4889240000000 1.0
C      1  0.5333470000000  0.5336810000000  0.5193800000000 1.0
C      1  0.4541390000000  0.5584970000000  0.4921730000000 1.0
C      1  0.5273840000000  0.5483740000000  0.4389440000000 1.0
C      1  0.4785020000000  0.5674790000000  0.5538230000000 1.0
C      1  0.4265050000000  0.4811370000000  0.5307480000000 1.0
C      1  0.4677060000000  0.5291060000000  0.4554520000000 1.0
C      1  0.4647600000000  0.4359150000000  0.5437320000000 1.0
C      1  0.5801540000000  0.5277390000000  0.5436060000000 1.0
C      1  0.5229180000000  0.5867980000000  0.4487260000000 1.0
C      1  0.4444480000000  0.5055070000000  0.4470200000000 1.0
C      1  0.4679830000000  0.4364600000000  0.4390160000000 1.0
C      1  0.4562100000000  0.4851780000000  0.4245720000000 1.0
C      1  0.4496420000000  0.5255840000000  0.5635530000000 1.0
C      1  0.4855360000000  0.4920560000000  0.4361390000000 1.0
C      1  0.4688240000000  0.4198680000000  0.4638420000000 1.0
C      1  0.4528820000000  0.5083020000000  0.4787910000000 1.0
C      1  0.4700450000000  0.4589430000000  0.4717630000000 1.0
C      1  0.5569420000000  0.5070880000000  0.4528360000000 1.0
C      1  0.5389630000000  0.5360700000000  0.4151630000000 1.0
C      1  0.5576490000000  0.5511640000000  0.5541140000000 1.0
C      1  0.5330650000000  0.4754950000000  0.4655590000000 1.0
C      1  0.4747310000000  0.5838600000000  0.4822960000000 1.0
C      1  0.4566340000000  0.4681670000000  0.5215320000000 1.0
C      1  0.4786630000000  0.5886140000000  0.5345310000000 1.0
C      1  0.5085990000000  0.4706860000000  0.4231660000000 1.0
C      1  0.4969460000000  0.5283680000000  0.5770160000000 1.0
C      1  0.5109170000000  0.5672680000000  0.5243770000000 1.0
C      1  0.5513490000000  0.5052110000000  0.4192260000000 1.0
C      1  0.4147570000000  0.5158370000000  0.4863580000000 1.0
C      1  0.5174310000000  0.5026800000000  0.4151360000000 1.0
C      1  0.5083930000000  0.4677950000000  0.4859360000000 1.0
C      1  0.5295300000000  0.4712990000000  0.5784750000000 1.0
C      1  0.5619920000000  0.5360890000000  0.5173230000000 1.0
C      1  0.5656610000000  0.4561190000000  0.4791860000000 1.0
C      1  0.5581860000000  0.4897570000000  0.5771050000000 1.0
C      1  0.5832220000000  0.4822390000000  0.5036550000000 1.0
C      1  0.4321640000000  0.5421360000000  0.4735770000000 1.0
C      1  0.5618000000000  0.5225090000000  0.5707350000000 1.0
C      1  0.5760250000000  0.4778430000000  0.5555980000000 1.0
C      1  0.4710190000000  0.5139200000000  0.5770640000000 1.0
C      1  0.5169610000000  0.4262220000000  0.4531960000000 1.0
C      1  0.4136620000000  0.5161030000000  0.5206710000000 1.0
C      1  0.4321860000000  0.4891000000000  0.4981350000000 1.0
C      1  0.5209670000000  0.4504770000000  0.5252710000000 1.0
C      1  0.5208970000000  0.4395840000000  0.5735970000000 1.0
C      1  0.4174080000000  0.4496080000000  0.5318510000000 1.0
C      1  0.5468540000000  0.4177910000000  0.5328080000000 1.0
C      1  0.5696360000000  0.4894530000000  0.4731900000000 1.0
C      1  0.4889670000000  0.4432050000000  0.4952980000000 1.0
C      1  0.4907310000000  0.5083360000000  0.5392980000000 1.0
C      1  0.5505000000000  0.5677610000000  0.4548370000000 1.0
C      1  0.5095940000000  0.4197030000000  0.5024200000000 1.0
C      1  0.4966650000000  0.4304610000000  0.5321650000000 1.0
C      1  0.5583960000000  0.4841010000000  0.5270560000000 1.0
C      1  0.4825910000000  0.4949250000000  0.4686650000000 1.0
C      1  0.4483820000000  0.4576090000000  0.4355970000000 1.0
C      1  0.4496370000000  0.4825910000000  0.5628250000000 1.0
C      1  0.5428660000000  0.4332550000000  0.4684780000000 1.0
C      1  0.5372220000000  0.5316980000000  0.4655360000000 1.0
C      1  0.4851440000000  0.5535120000000  0.5055610000000 1.0
C      1  0.4190280000000  0.4922610000000  0.4617130000000 1.0
C      1  0.4435340000000  0.5363850000000  0.4217840000000 1.0
C      1  0.5062560000000  0.5170340000000  0.4648120000000 1.0
C      1  0.4991570000000  0.4408200000000  0.4278410000000 1.0
C      1  0.5704680000000  0.4490030000000  0.5410600000000 1.0
C      1  0.4558990000000  0.5501850000000  0.5495020000000 1.0
C      1  0.4896850000000  0.4324760000000  0.5643240000000 1.0
C      1  0.4407450000000  0.4521390000000  0.5541130000000 1.0
C      1  0.4270780000000  0.4435490000000  0.4776850000000 1.0
C      1  0.5417240000000  0.5712780000000  0.5317400000000 1.0
C      1  0.4322060000000  0.5444960000000  0.4458670000000 1.0
C      1  0.4186380000000  0.4577620000000  0.5004060000000 1.0
C      1  0.5176320000000  0.4826210000000  0.5148570000000 1.0
C      1  0.5737960000000  0.5496710000000  0.4663860000000 1.0
C      1  0.4617480000000  0.4989280000000  0.5355250000000 1.0
C      1  0.5240440000000  0.4989660000000  0.4473380000000 1.0
C      1  0.4904400000000  0.5008940000000  0.5077740000000 1.0
C      1  0.4941540000000  0.4580100000000  0.5844210000000 1.0
C      1  0.5010670000000  0.5542940000000  0.5669190000000 1.0
C      1  0.4750080000000  0.4824850000000  0.5829670000000 1.0
C      1  0.5208900000000  0.5429180000000  0.4913790000000 1.0
C      1  0.5007460000000  0.5370650000000  0.5297800000000 1.0
END
