TITL C-2778427-5640-508 -0.000656125651841706 125000 -759.889183614173 0 0 136 (C1) n - 1
REM
REM in /home/nfs/bkarasulu/CARBON/AIRSS/Generating-Clusters/REBO/Only-C1/SD-CG/HFTN-CG
REM
REM
REM
REM
REM
REM ./C.cell (11c1c37f851c82e70ff6c80c92926a4b)
REM
REM compiler GCC version 9.2.1 20190827 (Red Hat 9.2.1-1)
REM options -cpp -mtune=generic -march=x86-64 -g -O0 -fpre-include=/usr/include/finclude/math-vector-fortran.h
REM seed 1588709023 1536453421 1965517255 -162472412 -1616116033 1731512417 -361456312 1500657573 1998440682 -1123388155 856457043 -849916511 -209804933 372831225 -552038383 1876637189 -15880883 159582229 -1459426464 -1412828712 -288985770 404641569 1115728836 82988258 2053419612 1324638564 -654248084 -613745146 -292926437 495970117 -1874742405 1470456942 -1607820875
REM
CELL 1.54180   50.00000   50.00000   50.00000   90.00000   90.00000   90.00000
LATT -1
SFAC C  
C      1  0.4077540000000  0.4843520000000  0.5272320000000 1.0
C      1  0.5448980000000  0.4387070000000  0.4501070000000 1.0
C      1  0.4433500000000  0.4710160000000  0.5103300000000 1.0
C      1  0.5165390000000  0.5767310000000  0.4390200000000 1.0
C      1  0.5563690000000  0.5014860000000  0.5250100000000 1.0
C      1  0.5265880000000  0.5367250000000  0.3877670000000 1.0
C      1  0.5826340000000  0.4662610000000  0.4607600000000 1.0
C      1  0.5404180000000  0.4446300000000  0.4935350000000 1.0
C      1  0.5114730000000  0.5899870000000  0.5471390000000 1.0
C      1  0.5147570000000  0.5611200000000  0.5632600000000 1.0
C      1  0.4613910000000  0.5519910000000  0.4481960000000 1.0
C      1  0.4348440000000  0.4832420000000  0.5410390000000 1.0
C      1  0.5039500000000  0.4811230000000  0.4902820000000 1.0
C      1  0.4540100000000  0.5859480000000  0.5117300000000 1.0
C      1  0.4362110000000  0.4719260000000  0.5707620000000 1.0
C      1  0.4823090000000  0.5296820000000  0.4427570000000 1.0
C      1  0.5124590000000  0.4600920000000  0.5169670000000 1.0
C      1  0.4767420000000  0.5131230000000  0.4192530000000 1.0
C      1  0.4257200000000  0.4459230000000  0.4941210000000 1.0
C      1  0.4729140000000  0.4501160000000  0.4268140000000 1.0
C      1  0.5664270000000  0.4742220000000  0.5646240000000 1.0
C      1  0.5694650000000  0.4424640000000  0.5408280000000 1.0
C      1  0.5260440000000  0.5308870000000  0.5510030000000 1.0
C      1  0.4904590000000  0.4046490000000  0.5188330000000 1.0
C      1  0.4843590000000  0.4866430000000  0.5886670000000 1.0
C      1  0.5027220000000  0.5608200000000  0.4792690000000 1.0
C      1  0.4847720000000  0.5110400000000  0.4689690000000 1.0
C      1  0.5170580000000  0.4740910000000  0.5480970000000 1.0
C      1  0.4164950000000  0.4839610000000  0.4387210000000 1.0
C      1  0.4486320000000  0.5767510000000  0.5662840000000 1.0
C      1  0.4908650000000  0.5387640000000  0.6032000000000 1.0
C      1  0.5807370000000  0.4993350000000  0.4828010000000 1.0
C      1  0.5038790000000  0.4970090000000  0.4128530000000 1.0
C      1  0.5227640000000  0.4038170000000  0.4795440000000 1.0
C      1  0.5249790000000  0.4199680000000  0.4505770000000 1.0
C      1  0.5725040000000  0.4779710000000  0.4972900000000 1.0
C      1  0.5492080000000  0.4719300000000  0.4574690000000 1.0
C      1  0.4653180000000  0.4585530000000  0.5471090000000 1.0
C      1  0.5894450000000  0.5390320000000  0.5186940000000 1.0
C      1  0.4141170000000  0.5230130000000  0.4993810000000 1.0
C      1  0.5079670000000  0.4433040000000  0.5603700000000 1.0
C      1  0.5519060000000  0.5281790000000  0.4816100000000 1.0
C      1  0.5087280000000  0.4420560000000  0.4865310000000 1.0
C      1  0.5834820000000  0.4508980000000  0.4901370000000 1.0
C      1  0.5300550000000  0.5602790000000  0.4948110000000 1.0
C      1  0.5028000000000  0.5119150000000  0.5981820000000 1.0
C      1  0.4852370000000  0.5088670000000  0.5121290000000 1.0
C      1  0.4473360000000  0.5785910000000  0.4850920000000 1.0
C      1  0.5494270000000  0.4127330000000  0.4989020000000 1.0
C      1  0.4434330000000  0.5253130000000  0.5161190000000 1.0
C      1  0.4886230000000  0.4368710000000  0.5230900000000 1.0
C      1  0.4522100000000  0.4974370000000  0.4501990000000 1.0
C      1  0.5521180000000  0.5852720000000  0.5021340000000 1.0
C      1  0.5374340000000  0.4941050000000  0.4064810000000 1.0
C      1  0.5451080000000  0.4901550000000  0.5522320000000 1.0
C      1  0.4719940000000  0.5716030000000  0.4689850000000 1.0
C      1  0.5602480000000  0.5113670000000  0.4254340000000 1.0
C      1  0.5905110000000  0.5237450000000  0.4667800000000 1.0
C      1  0.4715540000000  0.5294080000000  0.5610680000000 1.0
C      1  0.4192220000000  0.5465960000000  0.5207810000000 1.0
C      1  0.4640140000000  0.5205560000000  0.4929280000000 1.0
C      1  0.4863760000000  0.5538430000000  0.5765990000000 1.0
C      1  0.4826270000000  0.4429970000000  0.4656960000000 1.0
C      1  0.4247960000000  0.5648100000000  0.4764080000000 1.0
C      1  0.4809680000000  0.4357490000000  0.5757570000000 1.0
C      1  0.4038550000000  0.4941160000000  0.5006840000000 1.0
C      1  0.5302710000000  0.5125140000000  0.5794140000000 1.0
C      1  0.4713200000000  0.5626610000000  0.4195720000000 1.0
C      1  0.5578830000000  0.5394620000000  0.4276500000000 1.0
C      1  0.4941150000000  0.5727870000000  0.4155550000000 1.0
C      1  0.4821550000000  0.5838510000000  0.5607210000000 1.0
C      1  0.5075200000000  0.6063530000000  0.4892730000000 1.0
C      1  0.4922050000000  0.4092150000000  0.4695000000000 1.0
C      1  0.5553440000000  0.4481110000000  0.5722830000000 1.0
C      1  0.5236440000000  0.4634710000000  0.4154560000000 1.0
C      1  0.5403210000000  0.4407570000000  0.5269630000000 1.0
C      1  0.4848330000000  0.5486390000000  0.6268280000000 1.0
C      1  0.5284400000000  0.4547020000000  0.5809520000000 1.0
C      1  0.5369160000000  0.5764570000000  0.5313570000000 1.0
C      1  0.4566630000000  0.5961110000000  0.5412680000000 1.0
C      1  0.5586900000000  0.5283010000000  0.5107740000000 1.0
C      1  0.5181550000000  0.4822740000000  0.5893460000000 1.0
C      1  0.4619870000000  0.4448640000000  0.5100280000000 1.0
C      1  0.4472390000000  0.4985830000000  0.4180110000000 1.0
C      1  0.4932720000000  0.4256580000000  0.4393550000000 1.0
C      1  0.5639660000000  0.5595090000000  0.5210790000000 1.0
C      1  0.4983420000000  0.5655620000000  0.5185700000000 1.0
C      1  0.5540120000000  0.5586520000000  0.4707730000000 1.0
C      1  0.5392500000000  0.5039090000000  0.4640900000000 1.0
C      1  0.6042840000000  0.5173850000000  0.5260030000000 1.0
C      1  0.4474790000000  0.4408290000000  0.5716870000000 1.0
C      1  0.4132510000000  0.4807940000000  0.5883850000000 1.0
C      1  0.5464630000000  0.5607970000000  0.4417240000000 1.0
C      1  0.5428490000000  0.4756360000000  0.5077620000000 1.0
C      1  0.4416620000000  0.4686320000000  0.4655400000000 1.0
C      1  0.5242320000000  0.5460310000000  0.5247190000000 1.0
C      1  0.4587800000000  0.5541750000000  0.5477460000000 1.0
C      1  0.5163910000000  0.4656110000000  0.4645150000000 1.0
C      1  0.5215660000000  0.5323830000000  0.4128240000000 1.0
C      1  0.4746820000000  0.4795270000000  0.4118570000000 1.0
C      1  0.4515650000000  0.4287850000000  0.5356740000000 1.0
C      1  0.5099070000000  0.5451200000000  0.4397000000000 1.0
C      1  0.4798110000000  0.4804360000000  0.4585330000000 1.0
C      1  0.4712240000000  0.4894960000000  0.5591490000000 1.0
C      1  0.4482650000000  0.5258040000000  0.4632550000000 1.0
C      1  0.5198580000000  0.4201340000000  0.5410870000000 1.0
C      1  0.4184960000000  0.5329440000000  0.4699970000000 1.0
C      1  0.5106190000000  0.5309880000000  0.4707250000000 1.0
C      1  0.4819690000000  0.4764870000000  0.5232530000000 1.0
C      1  0.5214580000000  0.4003850000000  0.5133970000000 1.0
C      1  0.5883650000000  0.4941870000000  0.5300930000000 1.0
C      1  0.5537360000000  0.4719600000000  0.4246480000000 1.0
C      1  0.5744120000000  0.4308810000000  0.5091870000000 1.0
C      1  0.4907870000000  0.5101930000000  0.5442590000000 1.0
C      1  0.4154320000000  0.4994570000000  0.4128520000000 1.0
C      1  0.5403850000000  0.5448850000000  0.5786550000000 1.0
C      1  0.4509760000000  0.5107880000000  0.5414030000000 1.0
C      1  0.4712300000000  0.4167420000000  0.4931990000000 1.0
C      1  0.4511730000000  0.4368850000000  0.4733450000000 1.0
C      1  0.4649440000000  0.4632550000000  0.5882690000000 1.0
C      1  0.4070840000000  0.5014970000000  0.4664250000000 1.0
C      1  0.4707930000000  0.5631950000000  0.5238490000000 1.0
C      1  0.5781440000000  0.4979180000000  0.4482070000000 1.0
C      1  0.4423810000000  0.4623460000000  0.4339710000000 1.0
C      1  0.5231440000000  0.5093860000000  0.4382300000000 1.0
C      1  0.5004270000000  0.5895230000000  0.4634590000000 1.0
C      1  0.4135330000000  0.4719830000000  0.4796300000000 1.0
C      1  0.5889120000000  0.4702880000000  0.5451200000000 1.0
C      1  0.4802250000000  0.4169000000000  0.5490180000000 1.0
C      1  0.4704030000000  0.4787150000000  0.4911390000000 1.0
C      1  0.5066730000000  0.5951620000000  0.5137650000000 1.0
C      1  0.5014070000000  0.4646270000000  0.4374250000000 1.0
C      1  0.4264770000000  0.4285440000000  0.5184970000000 1.0
C      1  0.5154790000000  0.4991250000000  0.5247430000000 1.0
C      1  0.5198650000000  0.5076020000000  0.4920530000000 1.0
C      1  0.5846520000000  0.5493110000000  0.4727770000000 1.0
END
