TITL C-2778435-5768-1100 -0.012123427072159 125000 -1119.80916778901 0 0 194 (C1) n - 1
REM
REM in /home/nfs/bkarasulu/CARBON/AIRSS/Generating-Clusters/REBO/Only-C1/SD-CG/HFTN-CG
REM
REM
REM
REM
REM
REM ./C.cell (11c1c37f851c82e70ff6c80c92926a4b)
REM
REM compiler GCC version 9.2.1 20190827 (Red Hat 9.2.1-1)
REM options -cpp -mtune=generic -march=x86-64 -g -O0 -fpre-include=/usr/include/finclude/math-vector-fortran.h
REM seed 369105238 -1033616496 -137626491 -248558260 1528386663 -2069822539 -1138883708 2136995097 543192641 1167800966 -1983925068 1821629204 257461206 -2004889957 679648428 -1032242703 1111719433 -1644689689 -1546043084 1802081234 -1045180511 -45856161 60756893 700953544 1940117582 -763353567 1162191146 -1059365227 -1062507077 1935725168 -1062129665 1032329461 275594297
REM
CELL 1.54180   50.00000   50.00000   50.00000   90.00000   90.00000   90.00000
LATT -1
SFAC C  
C      1  0.5164850000000  0.5578060000000  0.6032170000000 1.0
C      1  0.4834580000000  0.5435000000000  0.5155730000000 1.0
C      1  0.4204780000000  0.5434900000000  0.5406620000000 1.0
C      1  0.3911010000000  0.5175410000000  0.4670970000000 1.0
C      1  0.5171840000000  0.4171820000000  0.5476150000000 1.0
C      1  0.4610320000000  0.6085240000000  0.5243780000000 1.0
C      1  0.5003700000000  0.5971410000000  0.5737500000000 1.0
C      1  0.4577930000000  0.5482330000000  0.5651610000000 1.0
C      1  0.5143900000000  0.4281630000000  0.4120260000000 1.0
C      1  0.4811770000000  0.4792330000000  0.3922210000000 1.0
C      1  0.5443800000000  0.4544120000000  0.5700570000000 1.0
C      1  0.4958140000000  0.5577090000000  0.4186550000000 1.0
C      1  0.5407860000000  0.5429000000000  0.4890950000000 1.0
C      1  0.5000170000000  0.4185790000000  0.5775400000000 1.0
C      1  0.5508900000000  0.4662570000000  0.4819140000000 1.0
C      1  0.5402870000000  0.5285590000000  0.5557630000000 1.0
C      1  0.4875660000000  0.6079700000000  0.4703670000000 1.0
C      1  0.4860220000000  0.4855350000000  0.6120380000000 1.0
C      1  0.4848560000000  0.4867080000000  0.4339220000000 1.0
C      1  0.5127790000000  0.5848400000000  0.5333450000000 1.0
C      1  0.5395740000000  0.4869870000000  0.5930150000000 1.0
C      1  0.4878070000000  0.4014480000000  0.5519850000000 1.0
C      1  0.4318390000000  0.4555790000000  0.4924440000000 1.0
C      1  0.5552410000000  0.4215680000000  0.5368360000000 1.0
C      1  0.5302680000000  0.5861740000000  0.5625770000000 1.0
C      1  0.4375120000000  0.5233380000000  0.4461980000000 1.0
C      1  0.5226680000000  0.4479100000000  0.5477630000000 1.0
C      1  0.3963370000000  0.4826350000000  0.5351680000000 1.0
C      1  0.5221800000000  0.4658580000000  0.4226490000000 1.0
C      1  0.5150840000000  0.5499700000000  0.5555500000000 1.0
C      1  0.5033770000000  0.4522150000000  0.5987830000000 1.0
C      1  0.3907770000000  0.5195710000000  0.4386010000000 1.0
C      1  0.4040930000000  0.4327750000000  0.5226440000000 1.0
C      1  0.5436080000000  0.4840960000000  0.5534060000000 1.0
C      1  0.4473870000000  0.5517060000000  0.4534020000000 1.0
C      1  0.4672650000000  0.5181500000000  0.4621260000000 1.0
C      1  0.5937690000000  0.5160260000000  0.4421680000000 1.0
C      1  0.4621680000000  0.5915700000000  0.4315660000000 1.0
C      1  0.4701300000000  0.5233600000000  0.5364900000000 1.0
C      1  0.5259390000000  0.4374730000000  0.5888160000000 1.0
C      1  0.5262720000000  0.4541650000000  0.4654250000000 1.0
C      1  0.5738350000000  0.5674290000000  0.5584770000000 1.0
C      1  0.5541160000000  0.4299170000000  0.4978810000000 1.0
C      1  0.4726280000000  0.5506110000000  0.4723130000000 1.0
C      1  0.4393600000000  0.5857650000000  0.4730840000000 1.0
C      1  0.4161190000000  0.4796630000000  0.5561180000000 1.0
C      1  0.5969540000000  0.4746190000000  0.4319390000000 1.0
C      1  0.5468100000000  0.5144120000000  0.5032420000000 1.0
C      1  0.5986000000000  0.5220730000000  0.4889720000000 1.0
C      1  0.5868910000000  0.5493710000000  0.4370060000000 1.0
C      1  0.5106390000000  0.5292150000000  0.5297230000000 1.0
C      1  0.6085680000000  0.4882440000000  0.4559720000000 1.0
C      1  0.4417160000000  0.4624690000000  0.4647500000000 1.0
C      1  0.4083860000000  0.4547570000000  0.4442930000000 1.0
C      1  0.5311080000000  0.4069680000000  0.5211080000000 1.0
C      1  0.4738060000000  0.5370770000000  0.4129550000000 1.0
C      1  0.4329160000000  0.5703840000000  0.5333610000000 1.0
C      1  0.5034170000000  0.4773590000000  0.4608360000000 1.0
C      1  0.4293480000000  0.4543360000000  0.5611710000000 1.0
C      1  0.4534690000000  0.4573830000000  0.5824380000000 1.0
C      1  0.6021510000000  0.4527430000000  0.5025770000000 1.0
C      1  0.5104940000000  0.5272870000000  0.6074650000000 1.0
C      1  0.5203260000000  0.3872290000000  0.4962620000000 1.0
C      1  0.4879400000000  0.4430010000000  0.4768070000000 1.0
C      1  0.5458940000000  0.3951330000000  0.4801030000000 1.0
C      1  0.5613340000000  0.4870870000000  0.5067800000000 1.0
C      1  0.4878550000000  0.4982310000000  0.5661800000000 1.0
C      1  0.4390730000000  0.5184540000000  0.5292140000000 1.0
C      1  0.4057240000000  0.4800290000000  0.4572580000000 1.0
C      1  0.5137100000000  0.5488710000000  0.5034280000000 1.0
C      1  0.4362840000000  0.4981420000000  0.5635020000000 1.0
C      1  0.4700740000000  0.4402660000000  0.5455930000000 1.0
C      1  0.5054180000000  0.4426250000000  0.4411600000000 1.0
C      1  0.4626440000000  0.5980760000000  0.4594470000000 1.0
C      1  0.4829760000000  0.4193090000000  0.4526150000000 1.0
C      1  0.3878100000000  0.4580660000000  0.5229710000000 1.0
C      1  0.3907780000000  0.4895430000000  0.4852190000000 1.0
C      1  0.4818190000000  0.5395010000000  0.5957620000000 1.0
C      1  0.4609510000000  0.5761840000000  0.5477610000000 1.0
C      1  0.4412310000000  0.5067180000000  0.4901860000000 1.0
C      1  0.4853980000000  0.4610800000000  0.5804030000000 1.0
C      1  0.6055580000000  0.4742390000000  0.4838190000000 1.0
C      1  0.4029700000000  0.5394510000000  0.4814620000000 1.0
C      1  0.4628070000000  0.4668460000000  0.4982690000000 1.0
C      1  0.4356620000000  0.4938300000000  0.4602510000000 1.0
C      1  0.4730100000000  0.4861200000000  0.4720900000000 1.0
C      1  0.4756910000000  0.5103010000000  0.3921240000000 1.0
C      1  0.4503400000000  0.4134800000000  0.4611620000000 1.0
C      1  0.4698520000000  0.5071680000000  0.5066000000000 1.0
C      1  0.4448730000000  0.4335380000000  0.5112370000000 1.0
C      1  0.5110980000000  0.4960120000000  0.6094470000000 1.0
C      1  0.4866170000000  0.6188920000000  0.4954830000000 1.0
C      1  0.5916770000000  0.5518020000000  0.5025810000000 1.0
C      1  0.4373930000000  0.4369760000000  0.4429320000000 1.0
C      1  0.5234340000000  0.4265510000000  0.4941210000000 1.0
C      1  0.5352030000000  0.5190430000000  0.5875400000000 1.0
C      1  0.4609700000000  0.4873510000000  0.5975960000000 1.0
C      1  0.4643000000000  0.4431550000000  0.4230660000000 1.0
C      1  0.4515980000000  0.5673100000000  0.4267640000000 1.0
C      1  0.6115140000000  0.5119870000000  0.5388170000000 1.0
C      1  0.4298740000000  0.4056340000000  0.4872780000000 1.0
C      1  0.5376650000000  0.5599350000000  0.5799550000000 1.0
C      1  0.5664110000000  0.5250680000000  0.4605320000000 1.0
C      1  0.5686280000000  0.4821960000000  0.5845070000000 1.0
C      1  0.5734470000000  0.4031810000000  0.4914610000000 1.0
C      1  0.4452020000000  0.5105570000000  0.4053950000000 1.0
C      1  0.5928950000000  0.4291120000000  0.4890690000000 1.0
C      1  0.4369290000000  0.5383510000000  0.5023840000000 1.0
C      1  0.4400890000000  0.5418530000000  0.4109660000000 1.0
C      1  0.4927970000000  0.4835910000000  0.5293370000000 1.0
C      1  0.5089560000000  0.4037510000000  0.4482830000000 1.0
C      1  0.4050910000000  0.5316410000000  0.5129610000000 1.0
C      1  0.4813970000000  0.6038140000000  0.5490690000000 1.0
C      1  0.5249440000000  0.5485200000000  0.4611490000000 1.0
C      1  0.4358090000000  0.4889490000000  0.5176080000000 1.0
C      1  0.5143760000000  0.4895370000000  0.5702150000000 1.0
C      1  0.4667860000000  0.4262910000000  0.5750570000000 1.0
C      1  0.5558250000000  0.4501870000000  0.5212660000000 1.0
C      1  0.5192680000000  0.5093010000000  0.4872390000000 1.0
C      1  0.5598860000000  0.4338150000000  0.4413180000000 1.0
C      1  0.4556920000000  0.5178160000000  0.5919660000000 1.0
C      1  0.5823090000000  0.5105530000000  0.5802150000000 1.0
C      1  0.5797080000000  0.5349370000000  0.5567550000000 1.0
C      1  0.5526750000000  0.4837870000000  0.4044350000000 1.0
C      1  0.5521710000000  0.5564220000000  0.5382700000000 1.0
C      1  0.5346110000000  0.4206660000000  0.4606780000000 1.0
C      1  0.5607980000000  0.5241310000000  0.5302550000000 1.0
C      1  0.4977670000000  0.4984090000000  0.5003650000000 1.0
C      1  0.5681890000000  0.4401980000000  0.4700930000000 1.0
C      1  0.5702410000000  0.4598860000000  0.4215080000000 1.0
C      1  0.4281490000000  0.5782400000000  0.5039670000000 1.0
C      1  0.4986500000000  0.5660950000000  0.4707190000000 1.0
C      1  0.5467480000000  0.6032860000000  0.5428090000000 1.0
C      1  0.6106680000000  0.5293540000000  0.5189020000000 1.0
C      1  0.5218750000000  0.5450710000000  0.4287070000000 1.0
C      1  0.4612250000000  0.5561270000000  0.4999990000000 1.0
C      1  0.5627850000000  0.5592480000000  0.5081050000000 1.0
C      1  0.4330530000000  0.5286800000000  0.5685990000000 1.0
C      1  0.5347370000000  0.5975580000000  0.4868180000000 1.0
C      1  0.3951700000000  0.5028680000000  0.5149450000000 1.0
C      1  0.5304630000000  0.5092210000000  0.4089070000000 1.0
C      1  0.5191620000000  0.6008110000000  0.4598510000000 1.0
C      1  0.5001970000000  0.6147280000000  0.5226660000000 1.0
C      1  0.5066220000000  0.4722400000000  0.3971730000000 1.0
C      1  0.5311460000000  0.4906130000000  0.4442990000000 1.0
C      1  0.5779000000000  0.4570670000000  0.5645610000000 1.0
C      1  0.4870370000000  0.4131860000000  0.5220820000000 1.0
C      1  0.4945230000000  0.4610850000000  0.5504760000000 1.0
C      1  0.4581510000000  0.5877430000000  0.5078090000000 1.0
C      1  0.4893460000000  0.5254120000000  0.4410900000000 1.0
C      1  0.4822460000000  0.4452020000000  0.5160150000000 1.0
C      1  0.4538400000000  0.4899320000000  0.4314570000000 1.0
C      1  0.5576600000000  0.5623940000000  0.4252220000000 1.0
C      1  0.5811810000000  0.4979030000000  0.4160600000000 1.0
C      1  0.5158200000000  0.5181080000000  0.4573220000000 1.0
C      1  0.5697460000000  0.4250900000000  0.5603590000000 1.0
C      1  0.4892600000000  0.5727880000000  0.5948930000000 1.0
C      1  0.5981260000000  0.5478880000000  0.4691610000000 1.0
C      1  0.4669970000000  0.4199610000000  0.4890320000000 1.0
C      1  0.5632220000000  0.5384050000000  0.5863320000000 1.0
C      1  0.4832610000000  0.5281040000000  0.5651630000000 1.0
C      1  0.5380080000000  0.5814360000000  0.4383480000000 1.0
C      1  0.4283430000000  0.4359640000000  0.5399770000000 1.0
C      1  0.5555180000000  0.5115870000000  0.4319310000000 1.0
C      1  0.5559640000000  0.4945080000000  0.4680350000000 1.0
C      1  0.5431550000000  0.4421520000000  0.4148200000000 1.0
C      1  0.4594940000000  0.4638010000000  0.4017110000000 1.0
C      1  0.4340300000000  0.4796840000000  0.4055110000000 1.0
C      1  0.5010390000000  0.5078790000000  0.4143470000000 1.0
C      1  0.5281660000000  0.4673130000000  0.5208570000000 1.0
C      1  0.5846120000000  0.4971670000000  0.4864690000000 1.0
C      1  0.5694000000000  0.4844120000000  0.5367110000000 1.0
C      1  0.5093060000000  0.5806620000000  0.4996230000000 1.0
C      1  0.4625680000000  0.4879270000000  0.5578160000000 1.0
C      1  0.4140000000000  0.5261820000000  0.4261430000000 1.0
C      1  0.4453810000000  0.3998400000000  0.5159390000000 1.0
C      1  0.5571470000000  0.5788530000000  0.4834760000000 1.0
C      1  0.3997620000000  0.4572620000000  0.4915660000000 1.0
C      1  0.4561000000000  0.4091450000000  0.5468480000000 1.0
C      1  0.4908340000000  0.5671050000000  0.5614060000000 1.0
C      1  0.4202780000000  0.5589280000000  0.4706050000000 1.0
C      1  0.4702530000000  0.4570370000000  0.4530440000000 1.0
C      1  0.4080470000000  0.4236570000000  0.4931570000000 1.0
C      1  0.5041680000000  0.5785320000000  0.4405990000000 1.0
C      1  0.5215760000000  0.4991130000000  0.5321980000000 1.0
C      1  0.5436580000000  0.5407230000000  0.4079990000000 1.0
C      1  0.5928980000000  0.4977540000000  0.5522460000000 1.0
C      1  0.4853630000000  0.4228330000000  0.4128570000000 1.0
C      1  0.4615810000000  0.4759490000000  0.5300350000000 1.0
C      1  0.5670330000000  0.5589140000000  0.4635540000000 1.0
C      1  0.5868060000000  0.4571210000000  0.5313940000000 1.0
C      1  0.5321290000000  0.6088380000000  0.5163710000000 1.0
C      1  0.5086350000000  0.4530090000000  0.5010350000000 1.0
C      1  0.4920380000000  0.3976780000000  0.4965810000000 1.0
END
