TITL C-2778432-5617-1482 0.00114032460185339 125000 -1005.39792054904 0 0 172 (C1) n - 1
REM
REM in /home/nfs/bkarasulu/CARBON/AIRSS/Generating-Clusters/REBO/Only-C1/SD-CG/HFTN-CG
REM
REM
REM
REM
REM
REM ./C.cell (11c1c37f851c82e70ff6c80c92926a4b)
REM
REM compiler GCC version 9.2.1 20190827 (Red Hat 9.2.1-1)
REM options -cpp -mtune=generic -march=x86-64 -g -O0 -fpre-include=/usr/include/finclude/math-vector-fortran.h
REM seed -171792145 -1594121848 -562450067 -2030783171 -1438668180 80484367 -326903423 -42971295 1912623117 547828339 -860905166 885994684 -1016107215 -184615940 463863675 -356662337 527864087 -1812595462 -2029612645 394143233 125825537 459898597 -1301015571 287645774 1585826667 -1422072436 1399677622 136257393 1167152963 2043560706 1046451851 58322186 508322308
REM
CELL 1.54180   50.00000   50.00000   50.00000   90.00000   90.00000   90.00000
LATT -1
SFAC C  
C      1  0.5340280000000  0.5824390000000  0.5716300000000 1.0
C      1  0.4247520000000  0.5528350000000  0.5293830000000 1.0
C      1  0.4663030000000  0.4803670000000  0.6147960000000 1.0
C      1  0.5992820000000  0.4677230000000  0.4657860000000 1.0
C      1  0.4861370000000  0.5608480000000  0.5590220000000 1.0
C      1  0.4796150000000  0.4450260000000  0.4784460000000 1.0
C      1  0.4839110000000  0.5438640000000  0.4121620000000 1.0
C      1  0.4693570000000  0.4647060000000  0.4018700000000 1.0
C      1  0.5318890000000  0.4785770000000  0.4960430000000 1.0
C      1  0.5370140000000  0.4977640000000  0.5306290000000 1.0
C      1  0.5957430000000  0.5377690000000  0.4410130000000 1.0
C      1  0.4862180000000  0.4068300000000  0.4875330000000 1.0
C      1  0.5487880000000  0.5076550000000  0.5839250000000 1.0
C      1  0.5215780000000  0.4530200000000  0.4627560000000 1.0
C      1  0.6119630000000  0.5323750000000  0.5216110000000 1.0
C      1  0.4069630000000  0.4126790000000  0.4967230000000 1.0
C      1  0.3874420000000  0.5069490000000  0.4959460000000 1.0
C      1  0.5395260000000  0.5320020000000  0.5536540000000 1.0
C      1  0.5264870000000  0.4938110000000  0.4547380000000 1.0
C      1  0.5108440000000  0.5955580000000  0.5818520000000 1.0
C      1  0.5783830000000  0.4874810000000  0.4177250000000 1.0
C      1  0.5020970000000  0.4266430000000  0.5344610000000 1.0
C      1  0.5180660000000  0.5114340000000  0.5698030000000 1.0
C      1  0.4294850000000  0.5240060000000  0.4309260000000 1.0
C      1  0.5868550000000  0.4652510000000  0.4405820000000 1.0
C      1  0.4419650000000  0.4568350000000  0.5778980000000 1.0
C      1  0.5331060000000  0.4620900000000  0.3992970000000 1.0
C      1  0.4825740000000  0.4047860000000  0.4553610000000 1.0
C      1  0.4632410000000  0.5644250000000  0.4301800000000 1.0
C      1  0.4414130000000  0.4889590000000  0.5070260000000 1.0
C      1  0.4875440000000  0.5820190000000  0.5761560000000 1.0
C      1  0.5645560000000  0.4834540000000  0.5051900000000 1.0
C      1  0.5047380000000  0.4228630000000  0.5999730000000 1.0
C      1  0.5616230000000  0.4599880000000  0.4180690000000 1.0
C      1  0.5148110000000  0.4873030000000  0.3899950000000 1.0
C      1  0.5570480000000  0.4215310000000  0.4556310000000 1.0
C      1  0.5322330000000  0.5087380000000  0.4097670000000 1.0
C      1  0.4359210000000  0.5900320000000  0.5201850000000 1.0
C      1  0.4969640000000  0.5232550000000  0.6053030000000 1.0
C      1  0.5360120000000  0.4675340000000  0.4355210000000 1.0
C      1  0.5348000000000  0.4067300000000  0.4689590000000 1.0
C      1  0.4845080000000  0.5573750000000  0.4707250000000 1.0
C      1  0.4428970000000  0.5654820000000  0.4504140000000 1.0
C      1  0.4208180000000  0.4758780000000  0.5775200000000 1.0
C      1  0.5130480000000  0.4428400000000  0.4152120000000 1.0
C      1  0.6118470000000  0.4925350000000  0.4694970000000 1.0
C      1  0.4920160000000  0.5751850000000  0.4185470000000 1.0
C      1  0.5377670000000  0.6105540000000  0.5208730000000 1.0
C      1  0.5510990000000  0.5602800000000  0.4304300000000 1.0
C      1  0.4822860000000  0.4993870000000  0.5999310000000 1.0
C      1  0.4968170000000  0.4663600000000  0.4341480000000 1.0
C      1  0.5229680000000  0.4783200000000  0.5761150000000 1.0
C      1  0.5144240000000  0.5422680000000  0.5960010000000 1.0
C      1  0.4817080000000  0.6090970000000  0.5078190000000 1.0
C      1  0.6029530000000  0.4650770000000  0.5224080000000 1.0
C      1  0.4574230000000  0.4134450000000  0.4362990000000 1.0
C      1  0.4595850000000  0.5101600000000  0.4684280000000 1.0
C      1  0.4335230000000  0.5266290000000  0.4792010000000 1.0
C      1  0.5095730000000  0.4817860000000  0.5285710000000 1.0
C      1  0.4335060000000  0.4199400000000  0.4563780000000 1.0
C      1  0.4570850000000  0.4640610000000  0.4320790000000 1.0
C      1  0.5607470000000  0.4918240000000  0.4547210000000 1.0
C      1  0.5336180000000  0.5330410000000  0.4336160000000 1.0
C      1  0.4185880000000  0.5298280000000  0.5732790000000 1.0
C      1  0.4876570000000  0.4115070000000  0.5567080000000 1.0
C      1  0.5117830000000  0.4698240000000  0.5989830000000 1.0
C      1  0.5808170000000  0.4411360000000  0.5255150000000 1.0
C      1  0.4430560000000  0.5422010000000  0.5040190000000 1.0
C      1  0.5183080000000  0.5343410000000  0.4850360000000 1.0
C      1  0.4043370000000  0.5531810000000  0.5041380000000 1.0
C      1  0.4108580000000  0.5024070000000  0.4312470000000 1.0
C      1  0.4173890000000  0.5000000000000  0.4853220000000 1.0
C      1  0.4630240000000  0.4446660000000  0.5245610000000 1.0
C      1  0.5477400000000  0.5722560000000  0.5252280000000 1.0
C      1  0.4354650000000  0.5039260000000  0.5706310000000 1.0
C      1  0.6001480000000  0.5150950000000  0.5413940000000 1.0
C      1  0.4522060000000  0.4454650000000  0.4594660000000 1.0
C      1  0.5647490000000  0.5323140000000  0.5788410000000 1.0
C      1  0.5134000000000  0.4236130000000  0.4751670000000 1.0
C      1  0.4961430000000  0.4702190000000  0.4680290000000 1.0
C      1  0.4959520000000  0.4269900000000  0.3993000000000 1.0
C      1  0.4488050000000  0.5802430000000  0.5667810000000 1.0
C      1  0.4726710000000  0.5132660000000  0.4019330000000 1.0
C      1  0.5442410000000  0.5275740000000  0.5208770000000 1.0
C      1  0.5474210000000  0.4267340000000  0.5757200000000 1.0
C      1  0.4177200000000  0.4403780000000  0.4790240000000 1.0
C      1  0.5695630000000  0.4386720000000  0.5529180000000 1.0
C      1  0.4602140000000  0.4551710000000  0.6009620000000 1.0
C      1  0.5041830000000  0.5505060000000  0.5099730000000 1.0
C      1  0.5505230000000  0.4670460000000  0.4717100000000 1.0
C      1  0.5112600000000  0.4552150000000  0.5456740000000 1.0
C      1  0.4675120000000  0.5615360000000  0.4985130000000 1.0
C      1  0.5718150000000  0.5343370000000  0.4219480000000 1.0
C      1  0.5042210000000  0.4930160000000  0.4220430000000 1.0
C      1  0.5237190000000  0.5762470000000  0.5060350000000 1.0
C      1  0.4721270000000  0.5017300000000  0.4970370000000 1.0
C      1  0.5803930000000  0.5456480000000  0.4859060000000 1.0
C      1  0.5631790000000  0.5102060000000  0.4129060000000 1.0
C      1  0.4701100000000  0.5257270000000  0.5156280000000 1.0
C      1  0.4599350000000  0.4594210000000  0.5508730000000 1.0
C      1  0.3983590000000  0.4655660000000  0.5211840000000 1.0
C      1  0.5021850000000  0.5238870000000  0.4310740000000 1.0
C      1  0.5923920000000  0.5496760000000  0.5126240000000 1.0
C      1  0.4755900000000  0.3988580000000  0.5752990000000 1.0
C      1  0.4096120000000  0.5479100000000  0.5583390000000 1.0
C      1  0.5676080000000  0.5495970000000  0.5314000000000 1.0
C      1  0.4893760000000  0.5294900000000  0.5665630000000 1.0
C      1  0.4174330000000  0.4832170000000  0.4494400000000 1.0
C      1  0.5318400000000  0.5538530000000  0.5762720000000 1.0
C      1  0.5539110000000  0.6054810000000  0.4973090000000 1.0
C      1  0.5946080000000  0.4494260000000  0.4941620000000 1.0
C      1  0.4240310000000  0.5767430000000  0.4973530000000 1.0
C      1  0.4375850000000  0.4363790000000  0.5063760000000 1.0
C      1  0.4808210000000  0.4881050000000  0.3904290000000 1.0
C      1  0.4325600000000  0.4037960000000  0.4838440000000 1.0
C      1  0.4973980000000  0.5291480000000  0.5334990000000 1.0
C      1  0.5228400000000  0.4483160000000  0.5081540000000 1.0
C      1  0.4891800000000  0.5896690000000  0.4603420000000 1.0
C      1  0.5515090000000  0.5329630000000  0.4890260000000 1.0
C      1  0.4849730000000  0.4898600000000  0.5737240000000 1.0
C      1  0.5568620000000  0.4497620000000  0.5066850000000 1.0
C      1  0.5301580000000  0.4164130000000  0.5929380000000 1.0
C      1  0.4639180000000  0.5918470000000  0.5242270000000 1.0
C      1  0.5556540000000  0.5892070000000  0.4743550000000 1.0
C      1  0.5085210000000  0.5127720000000  0.4693920000000 1.0
C      1  0.4881320000000  0.4584120000000  0.5668280000000 1.0
C      1  0.4365910000000  0.5118970000000  0.5316790000000 1.0
C      1  0.4621760000000  0.4349950000000  0.4168870000000 1.0
C      1  0.5088620000000  0.6061210000000  0.5121340000000 1.0
C      1  0.3925550000000  0.5270620000000  0.5159290000000 1.0
C      1  0.4561960000000  0.4909960000000  0.5468740000000 1.0
C      1  0.5813440000000  0.5334100000000  0.5548240000000 1.0
C      1  0.5749930000000  0.5010080000000  0.4815800000000 1.0
C      1  0.4012360000000  0.4960890000000  0.5606750000000 1.0
C      1  0.5464070000000  0.5211360000000  0.4599260000000 1.0
C      1  0.3873920000000  0.4767410000000  0.4970350000000 1.0
C      1  0.5395830000000  0.4546190000000  0.5593060000000 1.0
C      1  0.4805450000000  0.5650970000000  0.5297320000000 1.0
C      1  0.5621990000000  0.4846160000000  0.5729760000000 1.0
C      1  0.5867350000000  0.4904480000000  0.5301180000000 1.0
C      1  0.4604480000000  0.5307000000000  0.5479760000000 1.0
C      1  0.5349000000000  0.5795450000000  0.4505080000000 1.0
C      1  0.5359150000000  0.4250510000000  0.4334230000000 1.0
C      1  0.4897320000000  0.4415780000000  0.5069030000000 1.0
C      1  0.4876990000000  0.4986120000000  0.5418920000000 1.0
C      1  0.4576560000000  0.5186720000000  0.4279450000000 1.0
C      1  0.5738680000000  0.4593840000000  0.5791840000000 1.0
C      1  0.4071320000000  0.5138130000000  0.5377840000000 1.0
C      1  0.4059650000000  0.4675190000000  0.4735130000000 1.0
C      1  0.5971870000000  0.5229990000000  0.4689060000000 1.0
C      1  0.5448270000000  0.5929850000000  0.5469410000000 1.0
C      1  0.4776980000000  0.5317590000000  0.4524520000000 1.0
C      1  0.5820680000000  0.5656010000000  0.4435530000000 1.0
C      1  0.4693420000000  0.5918200000000  0.4840400000000 1.0
C      1  0.4471000000000  0.5593200000000  0.5514320000000 1.0
C      1  0.5783520000000  0.5721690000000  0.4707530000000 1.0
C      1  0.4259930000000  0.4628140000000  0.5208890000000 1.0
C      1  0.4850420000000  0.4407700000000  0.5926500000000 1.0
C      1  0.5172290000000  0.5657380000000  0.4753860000000 1.0
C      1  0.5298060000000  0.3909500000000  0.5101510000000 1.0
C      1  0.4415290000000  0.5803920000000  0.4746760000000 1.0
C      1  0.4889100000000  0.4369400000000  0.4465340000000 1.0
C      1  0.5085340000000  0.4065130000000  0.5107140000000 1.0
C      1  0.5071500000000  0.5885070000000  0.4385220000000 1.0
C      1  0.4273360000000  0.5418270000000  0.4530280000000 1.0
C      1  0.4482860000000  0.4846060000000  0.4538230000000 1.0
C      1  0.5685240000000  0.4420060000000  0.4751610000000 1.0
C      1  0.4984360000000  0.4854460000000  0.4966090000000 1.0
C      1  0.4582480000000  0.4102150000000  0.4992730000000 1.0
C      1  0.4499520000000  0.4687350000000  0.4826450000000 1.0
C      1  0.5593790000000  0.4864230000000  0.5445450000000 1.0
C      1  0.5091600000000  0.4106870000000  0.4378960000000 1.0
END
