TITL C-2778428-5639-995 0.0624165978122217 125000 -116.007284201432 0 0 21 (C1) n - 1
REM
REM in /home/nfs/bkarasulu/CARBON/AIRSS/Generating-Clusters/REBO/Only-C1/SD-CG/HFTN-CG
REM
REM
REM
REM
REM
REM ./C.cell (11c1c37f851c82e70ff6c80c92926a4b)
REM
REM compiler GCC version 9.2.1 20190827 (Red Hat 9.2.1-1)
REM options -cpp -mtune=generic -march=x86-64 -g -O0 -fpre-include=/usr/include/finclude/math-vector-fortran.h
REM seed 801014769 1984340780 1111703403 293917799 1233061897 -1459664263 -1720413867 1833375529 836870155 1538375347 1252703499 1822980479 72346184 -1621290164 -1064729592 -1920106765 1444860766 438604614 -1220290576 -670071328 -528064829 403164679 149974868 -1433943911 -1923029168 623860694 -1430276351 -619272043 -1221970589 2033213544 590805483 -1008146864 218308736
REM
CELL 1.54180   50.00000   50.00000   50.00000   90.00000   90.00000   90.00000
LATT -1
SFAC C  
C      1  0.5287230000000  0.5028280000000  0.5014560000000 1.0
C      1  0.5709900000000  0.5359610000000  0.5085220000000 1.0
C      1  0.5285470000000  0.4726160000000  0.5010300000000 1.0
C      1  0.5321540000000  0.4202910000000  0.4982460000000 1.0
C      1  0.5582650000000  0.5141180000000  0.4985270000000 1.0
C      1  0.4331640000000  0.4868150000000  0.4766620000000 1.0
C      1  0.5130520000000  0.4004750000000  0.4912190000000 1.0
C      1  0.4705640000000  0.5117870000000  0.4940380000000 1.0
C      1  0.4884410000000  0.4133580000000  0.4852740000000 1.0
C      1  0.5156080000000  0.5767180000000  0.5337860000000 1.0
C      1  0.4742700000000  0.4637890000000  0.4857620000000 1.0
C      1  0.4969690000000  0.5144150000000  0.5002280000000 1.0
C      1  0.5183230000000  0.5335020000000  0.5123970000000 1.0
C      1  0.4591020000000  0.4872640000000  0.4851080000000 1.0
C      1  0.5581580000000  0.5564240000000  0.5217900000000 1.0
C      1  0.4216240000000  0.5757290000000  0.5014640000000 1.0
C      1  0.5196950000000  0.4467400000000  0.4968200000000 1.0
C      1  0.4374850000000  0.5550060000000  0.4990580000000 1.0
C      1  0.4536030000000  0.5339480000000  0.4966120000000 1.0
C      1  0.4915670000000  0.4423040000000  0.4885360000000 1.0
C      1  0.5296940000000  0.5559130000000  0.5234670000000 1.0
END
