TITL C-2778434-4341-952 -0.00160459824544663 125000 -178.669325452759 0 0 33 (C1) n - 1
REM
REM in /home/nfs/bkarasulu/CARBON/AIRSS/Generating-Clusters/REBO/Only-C1/SD-CG/HFTN-CG
REM
REM
REM
REM
REM
REM ./C.cell (11c1c37f851c82e70ff6c80c92926a4b)
REM
REM compiler GCC version 9.2.1 20190827 (Red Hat 9.2.1-1)
REM options -cpp -mtune=generic -march=x86-64 -g -O0 -fpre-include=/usr/include/finclude/math-vector-fortran.h
REM seed -1522956347 1478432140 -2001774210 345903164 -1343237500 1428967640 -987884941 -767900495 1879103771 -1754767331 -1398139912 -1580336394 -857874848 -2132643501 -664048012 423531813 443370744 406687041 1596837558 333954220 -1618523423 451621409 -475119607 -1413165101 342393934 279766499 996791079 -2030354581 -1055939772 -35659157 1349354983 780371601 1633180108
REM
CELL 1.54180   50.00000   50.00000   50.00000   90.00000   90.00000   90.00000
LATT -1
SFAC C  
C      1  0.4295360000000  0.4997060000000  0.4450240000000 1.0
C      1  0.4973320000000  0.5223700000000  0.4823870000000 1.0
C      1  0.5591990000000  0.4796760000000  0.4847350000000 1.0
C      1  0.4748190000000  0.5012000000000  0.4955750000000 1.0
C      1  0.4505670000000  0.5744560000000  0.4380890000000 1.0
C      1  0.5158490000000  0.4451320000000  0.5226200000000 1.0
C      1  0.4356600000000  0.4771470000000  0.4606400000000 1.0
C      1  0.5211070000000  0.4964360000000  0.5527690000000 1.0
C      1  0.5419080000000  0.4530140000000  0.5324330000000 1.0
C      1  0.5848180000000  0.4933700000000  0.5843520000000 1.0
C      1  0.5278270000000  0.4573830000000  0.5845270000000 1.0
C      1  0.5703520000000  0.4712780000000  0.5379240000000 1.0
C      1  0.4231130000000  0.4533960000000  0.4562170000000 1.0
C      1  0.4902750000000  0.5428960000000  0.4618230000000 1.0
C      1  0.4818830000000  0.5641500000000  0.5542760000000 1.0
C      1  0.4563140000000  0.4797210000000  0.4785230000000 1.0
C      1  0.5389270000000  0.4739650000000  0.5623260000000 1.0
C      1  0.5695310000000  0.4827220000000  0.5664280000000 1.0
C      1  0.4382740000000  0.5979210000000  0.4424880000000 1.0
C      1  0.5351150000000  0.4874010000000  0.4741350000000 1.0
C      1  0.4337700000000  0.5222740000000  0.4316080000000 1.0
C      1  0.5640890000000  0.4560830000000  0.5080900000000 1.0
C      1  0.4511360000000  0.5453760000000  0.4217720000000 1.0
C      1  0.5806610000000  0.4859610000000  0.5089790000000 1.0
C      1  0.5059910000000  0.5145700000000  0.5418290000000 1.0
C      1  0.5089840000000  0.4928780000000  0.4767640000000 1.0
C      1  0.4898180000000  0.5418520000000  0.5415920000000 1.0
C      1  0.4731100000000  0.5536890000000  0.4454060000000 1.0
C      1  0.4873340000000  0.4710110000000  0.4875530000000 1.0
C      1  0.4894770000000  0.5234920000000  0.5144560000000 1.0
C      1  0.5183270000000  0.4431900000000  0.6035270000000 1.0
C      1  0.4568390000000  0.5458090000000  0.3946000000000 1.0
C      1  0.4980570000000  0.4504740000000  0.5065300000000 1.0
END
