TITL C-2778430-5657-201 -6.40127381207152e-05 125000 -488.667249563387 0 0 85 (C1) n - 1
REM
REM in /home/nfs/bkarasulu/CARBON/AIRSS/Generating-Clusters/REBO/Only-C1/SD-CG/HFTN-CG
REM
REM
REM
REM
REM
REM ./C.cell (11c1c37f851c82e70ff6c80c92926a4b)
REM
REM compiler GCC version 9.2.1 20190827 (Red Hat 9.2.1-1)
REM options -cpp -mtune=generic -march=x86-64 -g -O0 -fpre-include=/usr/include/finclude/math-vector-fortran.h
REM seed 1242889304 -900095308 1035880081 1384753993 945168586 900614046 834605407 600798666 -318443286 1686152558 -1142228719 -950869037 141952235 1727134381 -611632479 -1690608008 175534103 1600279298 -1924404253 -1233451237 -1953317702 -182824878 -1586513160 2121527265 154545352 1664881107 29117288 -1367410817 -478773392 -939461630 -1420599835 -1383525263 810983032
REM
CELL 1.54180   50.00000   50.00000   50.00000   90.00000   90.00000   90.00000
LATT -1
SFAC C  
C      1  0.5347430000000  0.5259690000000  0.5645650000000 1.0
C      1  0.5332540000000  0.4776950000000  0.5252830000000 1.0
C      1  0.4655340000000  0.5499700000000  0.5451820000000 1.0
C      1  0.5243340000000  0.5104170000000  0.4661720000000 1.0
C      1  0.5342820000000  0.4309120000000  0.4935120000000 1.0
C      1  0.4385800000000  0.4897650000000  0.4670780000000 1.0
C      1  0.4589060000000  0.5498670000000  0.4410830000000 1.0
C      1  0.5080350000000  0.4900240000000  0.5769580000000 1.0
C      1  0.4596910000000  0.4817050000000  0.4504390000000 1.0
C      1  0.4065580000000  0.4992310000000  0.4899270000000 1.0
C      1  0.3940560000000  0.5132900000000  0.4425660000000 1.0
C      1  0.4152990000000  0.5118730000000  0.5142170000000 1.0
C      1  0.4548460000000  0.4544910000000  0.5348960000000 1.0
C      1  0.4812580000000  0.4906560000000  0.5085810000000 1.0
C      1  0.4577890000000  0.5017060000000  0.5543090000000 1.0
C      1  0.5247830000000  0.5178050000000  0.5270090000000 1.0
C      1  0.5100380000000  0.5598310000000  0.5504880000000 1.0
C      1  0.5163050000000  0.5736070000000  0.5127750000000 1.0
C      1  0.5534870000000  0.5058230000000  0.4396060000000 1.0
C      1  0.5842410000000  0.4933200000000  0.5123050000000 1.0
C      1  0.5011710000000  0.5180410000000  0.5043620000000 1.0
C      1  0.4735670000000  0.5763230000000  0.5359960000000 1.0
C      1  0.4772710000000  0.4378650000000  0.4895130000000 1.0
C      1  0.5138650000000  0.4513130000000  0.5211950000000 1.0
C      1  0.5801850000000  0.5142250000000  0.4901250000000 1.0
C      1  0.5437890000000  0.5555930000000  0.5525860000000 1.0
C      1  0.5196190000000  0.4699520000000  0.5559720000000 1.0
C      1  0.5316620000000  0.5821440000000  0.5374360000000 1.0
C      1  0.4625690000000  0.5216630000000  0.4691590000000 1.0
C      1  0.4960780000000  0.4485750000000  0.4404930000000 1.0
C      1  0.5079130000000  0.4249340000000  0.4820820000000 1.0
C      1  0.4385800000000  0.5318460000000  0.4557750000000 1.0
C      1  0.4502660000000  0.4400930000000  0.5086460000000 1.0
C      1  0.4829280000000  0.4944460000000  0.4382300000000 1.0
C      1  0.4885920000000  0.5782330000000  0.5118850000000 1.0
C      1  0.4765360000000  0.5627130000000  0.4876590000000 1.0
C      1  0.4517080000000  0.4826390000000  0.5196780000000 1.0
C      1  0.5535160000000  0.5540750000000  0.4835370000000 1.0
C      1  0.4000740000000  0.4700990000000  0.4895030000000 1.0
C      1  0.5008070000000  0.5406410000000  0.5292800000000 1.0
C      1  0.5379860000000  0.5178970000000  0.4899690000000 1.0
C      1  0.5654260000000  0.4678410000000  0.4883160000000 1.0
C      1  0.5064660000000  0.5600440000000  0.4478250000000 1.0
C      1  0.4238980000000  0.4500260000000  0.4945450000000 1.0
C      1  0.5188310000000  0.4343170000000  0.5910840000000 1.0
C      1  0.5819130000000  0.4514000000000  0.5046510000000 1.0
C      1  0.4896530000000  0.5228590000000  0.4507890000000 1.0
C      1  0.5304710000000  0.4627890000000  0.4557080000000 1.0
C      1  0.5720570000000  0.5074560000000  0.4624910000000 1.0
C      1  0.5652500000000  0.4569670000000  0.5402670000000 1.0
C      1  0.5550150000000  0.5053640000000  0.5498420000000 1.0
C      1  0.5044110000000  0.4914180000000  0.5339660000000 1.0
C      1  0.5047270000000  0.5367330000000  0.4235670000000 1.0
C      1  0.4708270000000  0.5424420000000  0.5131360000000 1.0
C      1  0.5540000000000  0.5329110000000  0.5302550000000 1.0
C      1  0.5503010000000  0.4921140000000  0.5048080000000 1.0
C      1  0.4727310000000  0.4543270000000  0.4614790000000 1.0
C      1  0.4886300000000  0.4573120000000  0.5115280000000 1.0
C      1  0.5580370000000  0.4320910000000  0.5175060000000 1.0
C      1  0.5093310000000  0.4259570000000  0.4525480000000 1.0
C      1  0.5130130000000  0.4850050000000  0.4664980000000 1.0
C      1  0.4920600000000  0.5531450000000  0.5746990000000 1.0
C      1  0.5696460000000  0.5386050000000  0.5020920000000 1.0
C      1  0.5353360000000  0.4831430000000  0.4321590000000 1.0
C      1  0.4724090000000  0.5386740000000  0.4179180000000 1.0
C      1  0.4361090000000  0.5064540000000  0.5332690000000 1.0
C      1  0.5313950000000  0.5297610000000  0.4411210000000 1.0
C      1  0.4635580000000  0.4736160000000  0.5567770000000 1.0
C      1  0.4147030000000  0.5120290000000  0.4610530000000 1.0
C      1  0.5490350000000  0.4291220000000  0.5501640000000 1.0
C      1  0.4621940000000  0.5172200000000  0.4973710000000 1.0
C      1  0.4885210000000  0.4784230000000  0.4776730000000 1.0
C      1  0.4791350000000  0.5642070000000  0.4569260000000 1.0
C      1  0.4393270000000  0.4766350000000  0.4923060000000 1.0
C      1  0.5248230000000  0.5491190000000  0.4963890000000 1.0
C      1  0.5362350000000  0.5570890000000  0.4589210000000 1.0
C      1  0.4754540000000  0.5255410000000  0.5638590000000 1.0
C      1  0.5277200000000  0.4440520000000  0.5683130000000 1.0
C      1  0.5213220000000  0.4277400000000  0.5324470000000 1.0
C      1  0.5704130000000  0.4842560000000  0.5384590000000 1.0
C      1  0.3753780000000  0.4606200000000  0.4830520000000 1.0
C      1  0.5077450000000  0.5167690000000  0.5703880000000 1.0
C      1  0.5464910000000  0.4508960000000  0.4752910000000 1.0
C      1  0.5034770000000  0.4751000000000  0.4290640000000 1.0
C      1  0.4978240000000  0.5371400000000  0.4794450000000 1.0
END
