TITL C-2778422-5617-505 -0.00100877690724551 125000 -870.655797795532 0 0 149 (C1) n - 1
REM
REM in /home/nfs/bkarasulu/CARBON/AIRSS/Generating-Clusters/REBO/Only-C1/SD-CG/HFTN-CG
REM
REM
REM
REM
REM
REM ./C.cell (11c1c37f851c82e70ff6c80c92926a4b)
REM
REM compiler GCC version 9.2.1 20190827 (Red Hat 9.2.1-1)
REM options -cpp -mtune=generic -march=x86-64 -g -O0 -fpre-include=/usr/include/finclude/math-vector-fortran.h
REM seed -1704179845 -1495181576 -1735174944 -1514837534 -213467269 -1319435533 -973344041 -1039830018 1145481724 -1590915781 2088329038 301734970 740273169 1617546172 1796279042 470272636 -673425548 -411393358 1345355542 560654628 56134431 447862520 -657696883 -63389981 148121993 265509151 -845987352 847104769 -956531165 -161549601 2078539279 431912679 -1335240187
REM
CELL 1.54180   50.00000   50.00000   50.00000   90.00000   90.00000   90.00000
LATT -1
SFAC C  
C      1  0.4478860000000  0.5290140000000  0.5258390000000 1.0
C      1  0.4305910000000  0.5637740000000  0.5353220000000 1.0
C      1  0.4930370000000  0.5503440000000  0.5299930000000 1.0
C      1  0.5203430000000  0.4158380000000  0.5001350000000 1.0
C      1  0.5275040000000  0.4899660000000  0.4596750000000 1.0
C      1  0.5695260000000  0.5137850000000  0.4947000000000 1.0
C      1  0.5513050000000  0.4097220000000  0.4627650000000 1.0
C      1  0.5705280000000  0.5677420000000  0.4873910000000 1.0
C      1  0.4581290000000  0.4534240000000  0.4170750000000 1.0
C      1  0.5025950000000  0.5520750000000  0.5000380000000 1.0
C      1  0.5635200000000  0.5421390000000  0.4463560000000 1.0
C      1  0.5284740000000  0.4561430000000  0.4630540000000 1.0
C      1  0.3978710000000  0.5272890000000  0.4791810000000 1.0
C      1  0.5278490000000  0.5234090000000  0.5279240000000 1.0
C      1  0.4740710000000  0.4374250000000  0.4406070000000 1.0
C      1  0.4735820000000  0.5538090000000  0.5811530000000 1.0
C      1  0.5363650000000  0.5302550000000  0.4330000000000 1.0
C      1  0.5133640000000  0.5081040000000  0.4791400000000 1.0
C      1  0.5394670000000  0.5770920000000  0.5279800000000 1.0
C      1  0.5873970000000  0.5328870000000  0.5432290000000 1.0
C      1  0.5031500000000  0.5383250000000  0.5593070000000 1.0
C      1  0.4077280000000  0.4999650000000  0.4942960000000 1.0
C      1  0.5296770000000  0.5523880000000  0.5450710000000 1.0
C      1  0.4590130000000  0.4801540000000  0.5449000000000 1.0
C      1  0.4334570000000  0.4414750000000  0.4737350000000 1.0
C      1  0.5122480000000  0.5364370000000  0.4511190000000 1.0
C      1  0.5644520000000  0.4861480000000  0.4242480000000 1.0
C      1  0.5508130000000  0.4719680000000  0.5921810000000 1.0
C      1  0.4411390000000  0.4785000000000  0.5715210000000 1.0
C      1  0.5026620000000  0.4989530000000  0.6042350000000 1.0
C      1  0.4564380000000  0.4929040000000  0.4225350000000 1.0
C      1  0.6119580000000  0.5377850000000  0.5121230000000 1.0
C      1  0.4649190000000  0.5629490000000  0.4437880000000 1.0
C      1  0.4897470000000  0.4024150000000  0.4929410000000 1.0
C      1  0.4730920000000  0.5678190000000  0.5510560000000 1.0
C      1  0.4649150000000  0.4383170000000  0.4687940000000 1.0
C      1  0.4123760000000  0.5141820000000  0.5557550000000 1.0
C      1  0.4771150000000  0.4872920000000  0.4405140000000 1.0
C      1  0.4970610000000  0.5716850000000  0.4372080000000 1.0
C      1  0.5546970000000  0.4732950000000  0.5290750000000 1.0
C      1  0.4121080000000  0.4828400000000  0.5197190000000 1.0
C      1  0.4826600000000  0.5354580000000  0.4342420000000 1.0
C      1  0.4657980000000  0.4315240000000  0.5552570000000 1.0
C      1  0.4697920000000  0.5992660000000  0.4820130000000 1.0
C      1  0.5365510000000  0.4962190000000  0.5466170000000 1.0
C      1  0.4743360000000  0.4661120000000  0.3988740000000 1.0
C      1  0.4519800000000  0.5838640000000  0.4617970000000 1.0
C      1  0.5633190000000  0.5723110000000  0.4401960000000 1.0
C      1  0.5164380000000  0.4303620000000  0.5660360000000 1.0
C      1  0.5578440000000  0.5393240000000  0.4780250000000 1.0
C      1  0.5606980000000  0.4854220000000  0.4847340000000 1.0
C      1  0.5512220000000  0.4227910000000  0.5283240000000 1.0
C      1  0.5435810000000  0.4733580000000  0.4097140000000 1.0
C      1  0.4228350000000  0.4192790000000  0.4927920000000 1.0
C      1  0.5587280000000  0.4376910000000  0.4448980000000 1.0
C      1  0.5611780000000  0.4475830000000  0.5467190000000 1.0
C      1  0.5923620000000  0.4793900000000  0.4939060000000 1.0
C      1  0.4428090000000  0.5194450000000  0.4208300000000 1.0
C      1  0.5356490000000  0.5507760000000  0.5787560000000 1.0
C      1  0.4909560000000  0.5289590000000  0.5977600000000 1.0
C      1  0.5634210000000  0.4473790000000  0.5075700000000 1.0
C      1  0.4961170000000  0.5108940000000  0.5256960000000 1.0
C      1  0.4994370000000  0.4644440000000  0.5104030000000 1.0
C      1  0.4974220000000  0.4158600000000  0.4363590000000 1.0
C      1  0.5059970000000  0.5568540000000  0.5885710000000 1.0
C      1  0.5220190000000  0.4725290000000  0.5962480000000 1.0
C      1  0.5872570000000  0.4732510000000  0.4399080000000 1.0
C      1  0.4825490000000  0.5888290000000  0.5280780000000 1.0
C      1  0.4984840000000  0.4391250000000  0.5314950000000 1.0
C      1  0.5227850000000  0.4913480000000  0.4001630000000 1.0
C      1  0.5800730000000  0.5141620000000  0.4564020000000 1.0
C      1  0.5087710000000  0.5889590000000  0.5187250000000 1.0
C      1  0.5235110000000  0.4233390000000  0.4570330000000 1.0
C      1  0.4394910000000  0.4746880000000  0.4787880000000 1.0
C      1  0.5697070000000  0.4575890000000  0.5736550000000 1.0
C      1  0.5005320000000  0.4001680000000  0.4647090000000 1.0
C      1  0.4162360000000  0.5477500000000  0.5103460000000 1.0
C      1  0.5368580000000  0.4761310000000  0.5026320000000 1.0
C      1  0.5677170000000  0.5603670000000  0.5376710000000 1.0
C      1  0.4611590000000  0.4528750000000  0.5353390000000 1.0
C      1  0.4370870000000  0.5816970000000  0.5120380000000 1.0
C      1  0.4449420000000  0.5522440000000  0.5627540000000 1.0
C      1  0.5529140000000  0.5855490000000  0.4987730000000 1.0
C      1  0.5318940000000  0.4442860000000  0.4939450000000 1.0
C      1  0.4935520000000  0.5176590000000  0.4072410000000 1.0
C      1  0.5908470000000  0.5016690000000  0.5562300000000 1.0
C      1  0.4894250000000  0.4701080000000  0.5972790000000 1.0
C      1  0.5244560000000  0.5908240000000  0.4928220000000 1.0
C      1  0.4139610000000  0.4825450000000  0.5540800000000 1.0
C      1  0.4047240000000  0.4545570000000  0.5373800000000 1.0
C      1  0.4608620000000  0.4173770000000  0.4955370000000 1.0
C      1  0.5950820000000  0.4904870000000  0.4649770000000 1.0
C      1  0.4363090000000  0.5334750000000  0.4872470000000 1.0
C      1  0.4018490000000  0.4885210000000  0.4643480000000 1.0
C      1  0.4308010000000  0.5261340000000  0.5738690000000 1.0
C      1  0.4080150000000  0.4270620000000  0.5176200000000 1.0
C      1  0.4858400000000  0.4956960000000  0.5539720000000 1.0
C      1  0.5501390000000  0.5047130000000  0.4445950000000 1.0
C      1  0.5532880000000  0.4106130000000  0.4966120000000 1.0
C      1  0.4649580000000  0.5491060000000  0.5167180000000 1.0
C      1  0.5362090000000  0.5200260000000  0.5933020000000 1.0
C      1  0.5376760000000  0.4479530000000  0.4216160000000 1.0
C      1  0.4670710000000  0.4906660000000  0.4694400000000 1.0
C      1  0.5917910000000  0.4722050000000  0.5532470000000 1.0
C      1  0.4980080000000  0.4538710000000  0.5621500000000 1.0
C      1  0.4331700000000  0.5671570000000  0.4818360000000 1.0
C      1  0.5626430000000  0.5422660000000  0.5649740000000 1.0
C      1  0.4177030000000  0.5008100000000  0.4209080000000 1.0
C      1  0.5025130000000  0.4001460000000  0.5240850000000 1.0
C      1  0.5271080000000  0.5235970000000  0.4040430000000 1.0
C      1  0.4676360000000  0.4577910000000  0.5768310000000 1.0
C      1  0.4626150000000  0.5212590000000  0.4708300000000 1.0
C      1  0.5277930000000  0.5388400000000  0.4813920000000 1.0
C      1  0.4447730000000  0.5368200000000  0.4468900000000 1.0
C      1  0.4921060000000  0.4649050000000  0.4346580000000 1.0
C      1  0.5568240000000  0.5348910000000  0.5176610000000 1.0
C      1  0.4758430000000  0.5107380000000  0.5777190000000 1.0
C      1  0.5604290000000  0.4678140000000  0.4594740000000 1.0
C      1  0.4645690000000  0.5610540000000  0.4917630000000 1.0
C      1  0.4197030000000  0.4641010000000  0.4538970000000 1.0
C      1  0.5622860000000  0.5104670000000  0.5646160000000 1.0
C      1  0.4483400000000  0.5062060000000  0.5831840000000 1.0
C      1  0.4930200000000  0.4864580000000  0.3980840000000 1.0
C      1  0.4892610000000  0.5320140000000  0.4759250000000 1.0
C      1  0.5858980000000  0.5487240000000  0.5048320000000 1.0
C      1  0.4021700000000  0.5089110000000  0.4439380000000 1.0
C      1  0.5103810000000  0.4433110000000  0.4251570000000 1.0
C      1  0.4129930000000  0.5351160000000  0.4549920000000 1.0
C      1  0.5121340000000  0.4940650000000  0.5052550000000 1.0
C      1  0.5066960000000  0.5490660000000  0.4137140000000 1.0
C      1  0.5180230000000  0.5129830000000  0.5700910000000 1.0
C      1  0.4412090000000  0.5014140000000  0.4979520000000 1.0
C      1  0.4736810000000  0.4161010000000  0.5266990000000 1.0
C      1  0.5243550000000  0.4176440000000  0.5398570000000 1.0
C      1  0.5918910000000  0.5114220000000  0.5176210000000 1.0
C      1  0.4268520000000  0.4545530000000  0.5109400000000 1.0
C      1  0.4631930000000  0.5021940000000  0.5220660000000 1.0
C      1  0.5970340000000  0.4799970000000  0.5235430000000 1.0
C      1  0.4913230000000  0.5750290000000  0.4776040000000 1.0
C      1  0.4616270000000  0.5968410000000  0.5101090000000 1.0
C      1  0.5165150000000  0.5853360000000  0.4601730000000 1.0
C      1  0.4769000000000  0.4640890000000  0.4875830000000 1.0
C      1  0.5700360000000  0.4335700000000  0.4773300000000 1.0
C      1  0.4177930000000  0.5254350000000  0.5309400000000 1.0
C      1  0.4557640000000  0.4482280000000  0.5062090000000 1.0
C      1  0.4312790000000  0.4699230000000  0.4253990000000 1.0
C      1  0.5091470000000  0.4764590000000  0.5410200000000 1.0
C      1  0.5443910000000  0.5874990000000  0.4460810000000 1.0
C      1  0.5582300000000  0.5000140000000  0.5943690000000 1.0
END
