TITL C-2778430-5657-853 0.000801198753646698 125000 -856.051538940111 0 0 150 (C1) n - 1
REM
REM in /home/nfs/bkarasulu/CARBON/AIRSS/Generating-Clusters/REBO/Only-C1/SD-CG/HFTN-CG
REM
REM
REM
REM
REM
REM ./C.cell (11c1c37f851c82e70ff6c80c92926a4b)
REM
REM compiler GCC version 9.2.1 20190827 (Red Hat 9.2.1-1)
REM options -cpp -mtune=generic -march=x86-64 -g -O0 -fpre-include=/usr/include/finclude/math-vector-fortran.h
REM seed 1266154274 -329189753 -1810814894 -918167458 -1326305792 -160692757 -2019792842 392850918 -145506801 -1321633395 -1842956690 1605796367 -473292751 75073584 1362591165 126953915 198277432 -1050687085 270455739 -1095610649 -257704204 894037326 -1696081946 -1460292766 -752676824 -1488882519 1770503288 -1987648814 1957679916 767797099 -1139416702 -314960646 1040305248
REM
CELL 1.54180   50.00000   50.00000   50.00000   90.00000   90.00000   90.00000
LATT -1
SFAC C  
C      1  0.4929100000000  0.5013270000000  0.4585420000000 1.0
C      1  0.4113650000000  0.5240450000000  0.5647930000000 1.0
C      1  0.5406430000000  0.4073270000000  0.4672380000000 1.0
C      1  0.5732800000000  0.4739520000000  0.5637070000000 1.0
C      1  0.4888950000000  0.5667590000000  0.5669560000000 1.0
C      1  0.4466640000000  0.4886200000000  0.4284180000000 1.0
C      1  0.5952700000000  0.5038920000000  0.4562880000000 1.0
C      1  0.4669260000000  0.4679140000000  0.5342290000000 1.0
C      1  0.4649430000000  0.5901700000000  0.4370340000000 1.0
C      1  0.4818310000000  0.4638950000000  0.4748600000000 1.0
C      1  0.4379010000000  0.5519610000000  0.4101760000000 1.0
C      1  0.5306550000000  0.4620900000000  0.4598590000000 1.0
C      1  0.5649430000000  0.4770910000000  0.5005100000000 1.0
C      1  0.4632710000000  0.4896170000000  0.4834370000000 1.0
C      1  0.4617220000000  0.5920530000000  0.4885250000000 1.0
C      1  0.5245980000000  0.5755540000000  0.4766350000000 1.0
C      1  0.5008180000000  0.5565390000000  0.5305360000000 1.0
C      1  0.5124180000000  0.5219910000000  0.4247510000000 1.0
C      1  0.5198010000000  0.5072900000000  0.5973290000000 1.0
C      1  0.4704520000000  0.4406810000000  0.5053360000000 1.0
C      1  0.4090550000000  0.5504900000000  0.5148520000000 1.0
C      1  0.5378160000000  0.5440730000000  0.4310750000000 1.0
C      1  0.4758420000000  0.4074370000000  0.5097750000000 1.0
C      1  0.4447130000000  0.4603090000000  0.5104530000000 1.0
C      1  0.5389030000000  0.4841840000000  0.5812750000000 1.0
C      1  0.4897970000000  0.5103320000000  0.5935120000000 1.0
C      1  0.4213580000000  0.4759660000000  0.5388560000000 1.0
C      1  0.5651390000000  0.5448460000000  0.4721760000000 1.0
C      1  0.5238100000000  0.4759840000000  0.5516950000000 1.0
C      1  0.4320540000000  0.5081190000000  0.5427850000000 1.0
C      1  0.4529090000000  0.4456100000000  0.5668080000000 1.0
C      1  0.5516300000000  0.4897930000000  0.5440400000000 1.0
C      1  0.4864350000000  0.4023840000000  0.5391240000000 1.0
C      1  0.5024350000000  0.4948810000000  0.4894490000000 1.0
C      1  0.4738240000000  0.5945560000000  0.5202240000000 1.0
C      1  0.5357570000000  0.5912050000000  0.5487200000000 1.0
C      1  0.5021700000000  0.4564760000000  0.5858080000000 1.0
C      1  0.5510830000000  0.5128310000000  0.4266760000000 1.0
C      1  0.5101220000000  0.5616720000000  0.4204870000000 1.0
C      1  0.4329210000000  0.4493020000000  0.5467750000000 1.0
C      1  0.5055820000000  0.5947600000000  0.4593310000000 1.0
C      1  0.5383770000000  0.5419820000000  0.4932440000000 1.0
C      1  0.5375230000000  0.4498040000000  0.4227620000000 1.0
C      1  0.5334710000000  0.4972150000000  0.4018950000000 1.0
C      1  0.4831300000000  0.5611500000000  0.5017340000000 1.0
C      1  0.5981070000000  0.4472270000000  0.4739470000000 1.0
C      1  0.5306010000000  0.5578850000000  0.5469490000000 1.0
C      1  0.4658920000000  0.5439080000000  0.5637950000000 1.0
C      1  0.4986450000000  0.5477980000000  0.4493650000000 1.0
C      1  0.4986690000000  0.4532430000000  0.5011010000000 1.0
C      1  0.6032890000000  0.4979890000000  0.4885590000000 1.0
C      1  0.5376500000000  0.4015110000000  0.5235790000000 1.0
C      1  0.4008840000000  0.4966940000000  0.5206360000000 1.0
C      1  0.4429790000000  0.5062900000000  0.5809710000000 1.0
C      1  0.5322330000000  0.5101290000000  0.4869550000000 1.0
C      1  0.5468730000000  0.5477770000000  0.5203680000000 1.0
C      1  0.5162560000000  0.4587820000000  0.5284550000000 1.0
C      1  0.4283620000000  0.5140090000000  0.4423820000000 1.0
C      1  0.5695880000000  0.4441550000000  0.5471350000000 1.0
C      1  0.4438790000000  0.5404070000000  0.4332780000000 1.0
C      1  0.5103110000000  0.5349470000000  0.3931900000000 1.0
C      1  0.4442370000000  0.4164590000000  0.4731090000000 1.0
C      1  0.4825780000000  0.5384040000000  0.4034620000000 1.0
C      1  0.5174810000000  0.4070820000000  0.4437270000000 1.0
C      1  0.4939600000000  0.4182290000000  0.4614220000000 1.0
C      1  0.5419510000000  0.4267360000000  0.4390300000000 1.0
C      1  0.4989850000000  0.4042360000000  0.4897160000000 1.0
C      1  0.5183010000000  0.5229420000000  0.4586640000000 1.0
C      1  0.5513170000000  0.5145880000000  0.5750270000000 1.0
C      1  0.5461680000000  0.4801610000000  0.4355500000000 1.0
C      1  0.5060310000000  0.4161550000000  0.5638110000000 1.0
C      1  0.4746420000000  0.5165260000000  0.5551010000000 1.0
C      1  0.4932830000000  0.4977920000000  0.5366470000000 1.0
C      1  0.4396370000000  0.4873300000000  0.4604750000000 1.0
C      1  0.5973490000000  0.4668320000000  0.4963850000000 1.0
C      1  0.5650210000000  0.5116400000000  0.4807150000000 1.0
C      1  0.5348420000000  0.4381950000000  0.5085160000000 1.0
C      1  0.5762850000000  0.4243130000000  0.4769200000000 1.0
C      1  0.5085920000000  0.5500610000000  0.4861500000000 1.0
C      1  0.4188270000000  0.4768800000000  0.5023350000000 1.0
C      1  0.4668550000000  0.5532280000000  0.4520690000000 1.0
C      1  0.5710730000000  0.5681350000000  0.4963730000000 1.0
C      1  0.5754700000000  0.5263630000000  0.4455190000000 1.0
C      1  0.5735190000000  0.4813270000000  0.4677810000000 1.0
C      1  0.5093700000000  0.4806390000000  0.3982500000000 1.0
C      1  0.5426810000000  0.5869320000000  0.4965780000000 1.0
C      1  0.5791820000000  0.5453940000000  0.5206950000000 1.0
C      1  0.5448550000000  0.4953450000000  0.5143510000000 1.0
C      1  0.4643150000000  0.5707510000000  0.5427810000000 1.0
C      1  0.4813030000000  0.4895040000000  0.4003780000000 1.0
C      1  0.5209690000000  0.4374700000000  0.5758890000000 1.0
C      1  0.4342080000000  0.5705850000000  0.5260110000000 1.0
C      1  0.5812530000000  0.5038600000000  0.5500590000000 1.0
C      1  0.4094770000000  0.5372690000000  0.4832520000000 1.0
C      1  0.4497680000000  0.4555870000000  0.4677980000000 1.0
C      1  0.3974400000000  0.5267090000000  0.5365080000000 1.0
C      1  0.5688000000000  0.4505290000000  0.4566910000000 1.0
C      1  0.4204920000000  0.4574920000000  0.4787370000000 1.0
C      1  0.4675130000000  0.4946260000000  0.5921080000000 1.0
C      1  0.5574660000000  0.5791470000000  0.5263160000000 1.0
C      1  0.4559670000000  0.4885380000000  0.5543660000000 1.0
C      1  0.4797600000000  0.4868130000000  0.5110790000000 1.0
C      1  0.5785810000000  0.5348250000000  0.5508080000000 1.0
C      1  0.4878740000000  0.5232790000000  0.4915230000000 1.0
C      1  0.4448800000000  0.5314210000000  0.5229740000000 1.0
C      1  0.4636260000000  0.4686520000000  0.4120740000000 1.0
C      1  0.4762520000000  0.5346210000000  0.5214940000000 1.0
C      1  0.4984280000000  0.4631290000000  0.4490680000000 1.0
C      1  0.5107230000000  0.4199400000000  0.5245270000000 1.0
C      1  0.4590930000000  0.5602580000000  0.4800620000000 1.0
C      1  0.4773700000000  0.5973630000000  0.4607200000000 1.0
C      1  0.5277180000000  0.4014220000000  0.4934680000000 1.0
C      1  0.5557430000000  0.5481970000000  0.5689800000000 1.0
C      1  0.5254610000000  0.5258870000000  0.5558690000000 1.0
C      1  0.5148300000000  0.4901830000000  0.4365660000000 1.0
C      1  0.5893270000000  0.4636540000000  0.5290080000000 1.0
C      1  0.5866330000000  0.5213190000000  0.5045530000000 1.0
C      1  0.4724710000000  0.4223690000000  0.5614180000000 1.0
C      1  0.5287000000000  0.5741510000000  0.4445680000000 1.0
C      1  0.5335380000000  0.5381270000000  0.5927970000000 1.0
C      1  0.4886900000000  0.4421810000000  0.5388970000000 1.0
C      1  0.4394870000000  0.5376860000000  0.4923570000000 1.0
C      1  0.5482570000000  0.4524120000000  0.5725630000000 1.0
C      1  0.4347950000000  0.4302000000000  0.5200230000000 1.0
C      1  0.5113690000000  0.4544180000000  0.4113790000000 1.0
C      1  0.4000130000000  0.4445520000000  0.4683290000000 1.0
C      1  0.5197820000000  0.5099720000000  0.5312930000000 1.0
C      1  0.5971400000000  0.4962230000000  0.5228690000000 1.0
C      1  0.5025710000000  0.5377030000000  0.5781960000000 1.0
C      1  0.4763630000000  0.5642140000000  0.4208880000000 1.0
C      1  0.4387860000000  0.5379210000000  0.5794210000000 1.0
C      1  0.5632680000000  0.4207710000000  0.5005340000000 1.0
C      1  0.5491960000000  0.4546130000000  0.4848300000000 1.0
C      1  0.5091480000000  0.5866610000000  0.5667950000000 1.0
C      1  0.4938930000000  0.4816500000000  0.5650200000000 1.0
C      1  0.4677960000000  0.5105510000000  0.4441780000000 1.0
C      1  0.5256130000000  0.6020900000000  0.5205290000000 1.0
C      1  0.5616680000000  0.4191140000000  0.5320150000000 1.0
C      1  0.4671350000000  0.4309430000000  0.4524680000000 1.0
C      1  0.4053130000000  0.5283730000000  0.4570520000000 1.0
C      1  0.4703560000000  0.4649450000000  0.5831620000000 1.0
C      1  0.4450510000000  0.4107470000000  0.5007440000000 1.0
C      1  0.5132710000000  0.4393310000000  0.4770150000000 1.0
C      1  0.4816850000000  0.4472650000000  0.4263990000000 1.0
C      1  0.4359270000000  0.5929820000000  0.5079130000000 1.0
C      1  0.4606870000000  0.5207630000000  0.4744540000000 1.0
C      1  0.3896840000000  0.5235750000000  0.5045700000000 1.0
C      1  0.4294260000000  0.5475220000000  0.5485970000000 1.0
C      1  0.4730630000000  0.5142830000000  0.4128870000000 1.0
C      1  0.4987160000000  0.6058570000000  0.5204350000000 1.0
END
