TITL C-2778429-3646-1259 0.00361338534913109 125000 -1152.36225802789 0 0 200 (C1) n - 1
REM
REM in /home/nfs/bkarasulu/CARBON/AIRSS/Generating-Clusters/REBO/Only-C1/SD-CG/HFTN-CG
REM
REM
REM
REM
REM
REM ./C.cell (11c1c37f851c82e70ff6c80c92926a4b)
REM
REM compiler GCC version 9.2.1 20190827 (Red Hat 9.2.1-1)
REM options -cpp -mtune=generic -march=x86-64 -g -O0 -fpre-include=/usr/include/finclude/math-vector-fortran.h
REM seed 887363986 1531397071 -957994100 405598008 -1869941041 282755597 -902151656 -220914398 -1863800747 -71310912 1263595072 190509296 1363582583 -1793104674 -909078328 -16728656 1141785954 -629080457 -1324269777 1765352856 -1498700642 -548258591 1746294417 565718867 -186846030 -442204271 1295022776 902717807 -1602902685 -1343702236 -1753436980 -455981764 34250636
REM
CELL 1.54180   50.00000   50.00000   50.00000   90.00000   90.00000   90.00000
LATT -1
SFAC C  
C      1  0.4569520000000  0.4717410000000  0.5057270000000 1.0
C      1  0.5255580000000  0.4739870000000  0.4248960000000 1.0
C      1  0.4788220000000  0.4779170000000  0.4280000000000 1.0
C      1  0.4300820000000  0.5886650000000  0.4569350000000 1.0
C      1  0.4973030000000  0.4587190000000  0.6075610000000 1.0
C      1  0.4002510000000  0.5599860000000  0.5619760000000 1.0
C      1  0.5370670000000  0.4602530000000  0.5400360000000 1.0
C      1  0.5390740000000  0.5792210000000  0.4361540000000 1.0
C      1  0.4295810000000  0.4346010000000  0.5488130000000 1.0
C      1  0.5128030000000  0.6082180000000  0.5358760000000 1.0
C      1  0.5012210000000  0.4807950000000  0.5105140000000 1.0
C      1  0.4734960000000  0.4340920000000  0.4119150000000 1.0
C      1  0.5427450000000  0.4961260000000  0.4667130000000 1.0
C      1  0.5323000000000  0.5423760000000  0.5496050000000 1.0
C      1  0.4651310000000  0.4207120000000  0.4363530000000 1.0
C      1  0.5821470000000  0.5270550000000  0.5718510000000 1.0
C      1  0.5522420000000  0.4863460000000  0.5559150000000 1.0
C      1  0.4862340000000  0.4392840000000  0.4820850000000 1.0
C      1  0.4441810000000  0.4379050000000  0.4568930000000 1.0
C      1  0.4465560000000  0.5100980000000  0.4086510000000 1.0
C      1  0.5975330000000  0.4992690000000  0.4531360000000 1.0
C      1  0.5474660000000  0.5281220000000  0.4616800000000 1.0
C      1  0.4429640000000  0.5836380000000  0.5201280000000 1.0
C      1  0.5570920000000  0.4728190000000  0.5865110000000 1.0
C      1  0.5042820000000  0.5028200000000  0.4587900000000 1.0
C      1  0.5536780000000  0.4972470000000  0.6077220000000 1.0
C      1  0.3928130000000  0.5454220000000  0.5343400000000 1.0
C      1  0.4488330000000  0.4062990000000  0.4836230000000 1.0
C      1  0.5915020000000  0.5227290000000  0.4762580000000 1.0
C      1  0.4070610000000  0.4785620000000  0.5438180000000 1.0
C      1  0.5907390000000  0.4541420000000  0.5236510000000 1.0
C      1  0.5089150000000  0.5666550000000  0.4262920000000 1.0
C      1  0.4253790000000  0.5807360000000  0.4907360000000 1.0
C      1  0.4934960000000  0.4457310000000  0.5618290000000 1.0
C      1  0.4605980000000  0.5942690000000  0.5473520000000 1.0
C      1  0.5342670000000  0.4497060000000  0.5954430000000 1.0
C      1  0.4307760000000  0.5712090000000  0.5600000000000 1.0
C      1  0.4479990000000  0.4471520000000  0.4896090000000 1.0
C      1  0.5077960000000  0.4354130000000  0.5879060000000 1.0
C      1  0.4841490000000  0.3991800000000  0.4489550000000 1.0
C      1  0.5556930000000  0.4010060000000  0.5365180000000 1.0
C      1  0.4470680000000  0.4662740000000  0.4379800000000 1.0
C      1  0.5862020000000  0.4732070000000  0.4344540000000 1.0
C      1  0.5013300000000  0.5843470000000  0.5758980000000 1.0
C      1  0.4745310000000  0.4734710000000  0.5538740000000 1.0
C      1  0.5717060000000  0.5827410000000  0.5121510000000 1.0
C      1  0.4223280000000  0.5598280000000  0.5291170000000 1.0
C      1  0.4343180000000  0.4829890000000  0.5237660000000 1.0
C      1  0.5648350000000  0.4873410000000  0.4114800000000 1.0
C      1  0.4426240000000  0.5343970000000  0.5342220000000 1.0
C      1  0.5314930000000  0.5549010000000  0.5117850000000 1.0
C      1  0.4787730000000  0.5628490000000  0.4108450000000 1.0
C      1  0.4499790000000  0.4816030000000  0.4680900000000 1.0
C      1  0.5604440000000  0.5122920000000  0.3930280000000 1.0
C      1  0.4613680000000  0.5646970000000  0.5632640000000 1.0
C      1  0.5163110000000  0.4003900000000  0.4433070000000 1.0
C      1  0.4709100000000  0.5987200000000  0.4798700000000 1.0
C      1  0.5150920000000  0.4609540000000  0.3962340000000 1.0
C      1  0.5139670000000  0.4451870000000  0.5391450000000 1.0
C      1  0.4634030000000  0.5027650000000  0.4369030000000 1.0
C      1  0.5289790000000  0.5211980000000  0.3868600000000 1.0
C      1  0.6013450000000  0.5324280000000  0.5267530000000 1.0
C      1  0.5143140000000  0.5977500000000  0.4504250000000 1.0
C      1  0.5809740000000  0.5369220000000  0.4013590000000 1.0
C      1  0.4599940000000  0.5332790000000  0.5898720000000 1.0
C      1  0.4848970000000  0.5348180000000  0.4274660000000 1.0
C      1  0.5820970000000  0.5586790000000  0.5300620000000 1.0
C      1  0.4775580000000  0.5836300000000  0.5219170000000 1.0
C      1  0.4107890000000  0.4508050000000  0.5269390000000 1.0
C      1  0.5581030000000  0.5383830000000  0.5194180000000 1.0
C      1  0.4842640000000  0.5442920000000  0.6099490000000 1.0
C      1  0.4146060000000  0.5640680000000  0.4560100000000 1.0
C      1  0.4006770000000  0.5046460000000  0.4391820000000 1.0
C      1  0.5019680000000  0.4333240000000  0.4032550000000 1.0
C      1  0.5475930000000  0.5402280000000  0.4077510000000 1.0
C      1  0.5431970000000  0.5016170000000  0.5149690000000 1.0
C      1  0.5428530000000  0.4244280000000  0.5213410000000 1.0
C      1  0.4605760000000  0.4832330000000  0.3931780000000 1.0
C      1  0.5479430000000  0.4694020000000  0.3926460000000 1.0
C      1  0.5441180000000  0.4148060000000  0.5607950000000 1.0
C      1  0.5880180000000  0.5487180000000  0.4637350000000 1.0
C      1  0.5305400000000  0.3997760000000  0.4923810000000 1.0
C      1  0.5256720000000  0.4777030000000  0.6105640000000 1.0
C      1  0.5705710000000  0.5173520000000  0.4990050000000 1.0
C      1  0.5585870000000  0.5232770000000  0.5492240000000 1.0
C      1  0.5172940000000  0.5446250000000  0.6063950000000 1.0
C      1  0.4788750000000  0.4632730000000  0.4701350000000 1.0
C      1  0.4694560000000  0.4237970000000  0.5023170000000 1.0
C      1  0.6141510000000  0.4898620000000  0.4774370000000 1.0
C      1  0.4339330000000  0.5381230000000  0.5878100000000 1.0
C      1  0.3984110000000  0.5293650000000  0.4268690000000 1.0
C      1  0.5203820000000  0.4137310000000  0.4138720000000 1.0
C      1  0.3923350000000  0.5165650000000  0.5351370000000 1.0
C      1  0.5324000000000  0.5188360000000  0.4896650000000 1.0
C      1  0.4834450000000  0.5416800000000  0.5044070000000 1.0
C      1  0.5190720000000  0.6049700000000  0.5032270000000 1.0
C      1  0.5902870000000  0.4854160000000  0.5387930000000 1.0
C      1  0.5169620000000  0.5535230000000  0.4572830000000 1.0
C      1  0.4670710000000  0.5047810000000  0.5452810000000 1.0
C      1  0.5031900000000  0.4879010000000  0.5618670000000 1.0
C      1  0.5717460000000  0.4487590000000  0.4175800000000 1.0
C      1  0.4800920000000  0.4613020000000  0.5228270000000 1.0
C      1  0.5200800000000  0.4429450000000  0.4491310000000 1.0
C      1  0.4932200000000  0.6007920000000  0.5544320000000 1.0
C      1  0.4465740000000  0.4120240000000  0.5319300000000 1.0
C      1  0.4992320000000  0.3974670000000  0.5004670000000 1.0
C      1  0.4408720000000  0.5257370000000  0.4827070000000 1.0
C      1  0.5732240000000  0.4879720000000  0.5116290000000 1.0
C      1  0.4265190000000  0.4915320000000  0.4291180000000 1.0
C      1  0.4047790000000  0.4691470000000  0.5007390000000 1.0
C      1  0.4787320000000  0.4013680000000  0.5262920000000 1.0
C      1  0.4775400000000  0.5327010000000  0.3944400000000 1.0
C      1  0.6097470000000  0.5245980000000  0.5022270000000 1.0
C      1  0.5498290000000  0.4773730000000  0.4451380000000 1.0
C      1  0.4365060000000  0.5179270000000  0.4507810000000 1.0
C      1  0.5436500000000  0.5968630000000  0.5254790000000 1.0
C      1  0.4453420000000  0.4341900000000  0.5764000000000 1.0
C      1  0.5459590000000  0.4140920000000  0.4373010000000 1.0
C      1  0.3967190000000  0.4404810000000  0.4878000000000 1.0
C      1  0.5576960000000  0.4406370000000  0.5731930000000 1.0
C      1  0.5662680000000  0.5266510000000  0.5982470000000 1.0
C      1  0.4835830000000  0.5103420000000  0.6120210000000 1.0
C      1  0.4687800000000  0.4357660000000  0.5424070000000 1.0
C      1  0.4208370000000  0.4218660000000  0.4763230000000 1.0
C      1  0.5847220000000  0.5452940000000  0.4320480000000 1.0
C      1  0.5358250000000  0.5383720000000  0.4347010000000 1.0
C      1  0.5091300000000  0.5843850000000  0.4812400000000 1.0
C      1  0.4669130000000  0.5496160000000  0.4491990000000 1.0
C      1  0.4825100000000  0.6009700000000  0.4497620000000 1.0
C      1  0.5432410000000  0.4445140000000  0.4235020000000 1.0
C      1  0.5032280000000  0.5122460000000  0.4003680000000 1.0
C      1  0.5776900000000  0.5575650000000  0.5608010000000 1.0
C      1  0.4027470000000  0.5046280000000  0.4675400000000 1.0
C      1  0.5024340000000  0.4227160000000  0.4639880000000 1.0
C      1  0.5324120000000  0.5751620000000  0.5461580000000 1.0
C      1  0.3997370000000  0.5273420000000  0.4866190000000 1.0
C      1  0.5677980000000  0.5699380000000  0.4462520000000 1.0
C      1  0.4023950000000  0.5020570000000  0.5092640000000 1.0
C      1  0.4253430000000  0.5448660000000  0.4340860000000 1.0
C      1  0.4694390000000  0.4990090000000  0.4896580000000 1.0
C      1  0.5463110000000  0.5756240000000  0.4920840000000 1.0
C      1  0.4852790000000  0.5111580000000  0.5175410000000 1.0
C      1  0.5279780000000  0.5160110000000  0.5999800000000 1.0
C      1  0.5481850000000  0.5504160000000  0.5967000000000 1.0
C      1  0.3715230000000  0.4325350000000  0.4866180000000 1.0
C      1  0.4725130000000  0.5215460000000  0.5681830000000 1.0
C      1  0.4909400000000  0.4050540000000  0.5550290000000 1.0
C      1  0.4064330000000  0.5535480000000  0.4826440000000 1.0
C      1  0.4053020000000  0.5051400000000  0.5625760000000 1.0
C      1  0.5714700000000  0.4166970000000  0.4574810000000 1.0
C      1  0.4765520000000  0.3929760000000  0.4781880000000 1.0
C      1  0.5146800000000  0.5560380000000  0.5759850000000 1.0
C      1  0.5039220000000  0.5636450000000  0.5305840000000 1.0
C      1  0.4458420000000  0.4591270000000  0.5905720000000 1.0
C      1  0.5297820000000  0.5070370000000  0.5680320000000 1.0
C      1  0.4702490000000  0.4641230000000  0.6051070000000 1.0
C      1  0.5123090000000  0.4226130000000  0.5195050000000 1.0
C      1  0.4857960000000  0.6068240000000  0.5036610000000 1.0
C      1  0.5485530000000  0.3864030000000  0.5106400000000 1.0
C      1  0.4886330000000  0.5688330000000  0.4603790000000 1.0
C      1  0.4597950000000  0.5474400000000  0.4881570000000 1.0
C      1  0.5098430000000  0.5238960000000  0.5376910000000 1.0
C      1  0.5799480000000  0.4266300000000  0.5066480000000 1.0
C      1  0.5744070000000  0.4598220000000  0.5530670000000 1.0
C      1  0.5014200000000  0.5271010000000  0.5688400000000 1.0
C      1  0.5765390000000  0.5755040000000  0.4789560000000 1.0
C      1  0.4558050000000  0.5745020000000  0.4836480000000 1.0
C      1  0.5009680000000  0.4714610000000  0.4482650000000 1.0
C      1  0.4238950000000  0.4794960000000  0.5744220000000 1.0
C      1  0.4552710000000  0.5815290000000  0.4443110000000 1.0
C      1  0.5779000000000  0.4097610000000  0.4843740000000 1.0
C      1  0.5493900000000  0.4493000000000  0.4624990000000 1.0
C      1  0.4687310000000  0.4164150000000  0.5724630000000 1.0
C      1  0.5248970000000  0.4538640000000  0.4932980000000 1.0
C      1  0.5844070000000  0.5119280000000  0.4250060000000 1.0
C      1  0.5972040000000  0.5130150000000  0.5478160000000 1.0
C      1  0.5084590000000  0.5518180000000  0.4904090000000 1.0
C      1  0.4203020000000  0.4844830000000  0.4782020000000 1.0
C      1  0.4434360000000  0.4652150000000  0.5513100000000 1.0
C      1  0.5186090000000  0.4944060000000  0.5319480000000 1.0
C      1  0.5024340000000  0.4959990000000  0.5947890000000 1.0
C      1  0.5545130000000  0.4507100000000  0.5074250000000 1.0
C      1  0.4929070000000  0.4837550000000  0.3991760000000 1.0
C      1  0.4743520000000  0.5470250000000  0.5370740000000 1.0
C      1  0.5160960000000  0.4130880000000  0.5661560000000 1.0
C      1  0.5102610000000  0.5195680000000  0.4331350000000 1.0
C      1  0.5377650000000  0.4251040000000  0.4818540000000 1.0
C      1  0.4339890000000  0.5134830000000  0.5108600000000 1.0
C      1  0.5528180000000  0.5674920000000  0.5725330000000 1.0
C      1  0.6018610000000  0.4752890000000  0.4989330000000 1.0
C      1  0.4746350000000  0.5190250000000  0.4626620000000 1.0
C      1  0.5773640000000  0.4594340000000  0.4865940000000 1.0
C      1  0.5813130000000  0.4490010000000  0.4562030000000 1.0
C      1  0.4280430000000  0.4283530000000  0.5094530000000 1.0
C      1  0.5166680000000  0.4826570000000  0.4832540000000 1.0
C      1  0.4205390000000  0.5326690000000  0.5601680000000 1.0
C      1  0.4543040000000  0.4559210000000  0.4055740000000 1.0
C      1  0.4787490000000  0.5682470000000  0.5884160000000 1.0
C      1  0.4497070000000  0.5439740000000  0.4111440000000 1.0
C      1  0.5441580000000  0.5946740000000  0.4662560000000 1.0
END
