TITL C-2778425-5191-1321 -0.0021369006479418 125000 -328.781616434994 0 0 57 (C1) n - 1
REM
REM in /home/nfs/bkarasulu/CARBON/AIRSS/Generating-Clusters/REBO/Only-C1/SD-CG/HFTN-CG
REM
REM
REM
REM
REM
REM ./C.cell (11c1c37f851c82e70ff6c80c92926a4b)
REM
REM compiler GCC version 9.2.1 20190827 (Red Hat 9.2.1-1)
REM options -cpp -mtune=generic -march=x86-64 -g -O0 -fpre-include=/usr/include/finclude/math-vector-fortran.h
REM seed -700198017 2047684791 1883880791 1801805135 417840395 -953516006 -485957346 458526589 624813564 1130938723 -846763138 -1552396187 -888496185 1630145611 -1210366446 -890217668 528679806 657076599 -200474283 -1942576983 1355256498 -1813365170 513824819 1733064970 413345100 -18278752 -160596916 1708338080 -1570761846 -180414399 1033884101 -2123455889 -338239033
REM
CELL 1.54180   50.00000   50.00000   50.00000   90.00000   90.00000   90.00000
LATT -1
SFAC C  
C      1  0.5290080000000  0.5607200000000  0.4699980000000 1.0
C      1  0.5421430000000  0.5314610000000  0.4692460000000 1.0
C      1  0.4895780000000  0.4909230000000  0.4550700000000 1.0
C      1  0.4514960000000  0.4455910000000  0.4902070000000 1.0
C      1  0.5070190000000  0.5113290000000  0.4955420000000 1.0
C      1  0.5587930000000  0.4575320000000  0.4853960000000 1.0
C      1  0.5429000000000  0.4317450000000  0.4879650000000 1.0
C      1  0.5375460000000  0.4756360000000  0.4339230000000 1.0
C      1  0.4596880000000  0.5363630000000  0.4640560000000 1.0
C      1  0.5026960000000  0.4258420000000  0.5263450000000 1.0
C      1  0.4784700000000  0.5135060000000  0.5463670000000 1.0
C      1  0.5605670000000  0.4683010000000  0.4237730000000 1.0
C      1  0.5402270000000  0.5587160000000  0.5175980000000 1.0
C      1  0.4958120000000  0.4564400000000  0.4952510000000 1.0
C      1  0.4515290000000  0.4742780000000  0.5323460000000 1.0
C      1  0.5531390000000  0.5153870000000  0.5674840000000 1.0
C      1  0.4973160000000  0.5246020000000  0.5664230000000 1.0
C      1  0.5545090000000  0.5327720000000  0.5174420000000 1.0
C      1  0.4678160000000  0.5021620000000  0.4977020000000 1.0
C      1  0.5145210000000  0.5503460000000  0.5588920000000 1.0
C      1  0.5151410000000  0.5596630000000  0.5322080000000 1.0
C      1  0.5492350000000  0.4569220000000  0.5181180000000 1.0
C      1  0.4745660000000  0.4542320000000  0.4498300000000 1.0
C      1  0.5571980000000  0.5199740000000  0.4908950000000 1.0
C      1  0.5241380000000  0.4923550000000  0.5054750000000 1.0
C      1  0.4759430000000  0.5462180000000  0.4406950000000 1.0
C      1  0.5127300000000  0.5247990000000  0.4721720000000 1.0
C      1  0.4923690000000  0.5537720000000  0.5167990000000 1.0
C      1  0.4985030000000  0.4681150000000  0.5439730000000 1.0
C      1  0.4780790000000  0.4329870000000  0.5077140000000 1.0
C      1  0.4963130000000  0.5517080000000  0.4658930000000 1.0
C      1  0.5112400000000  0.4707790000000  0.5176490000000 1.0
C      1  0.4390580000000  0.5163630000000  0.4662410000000 1.0
C      1  0.4853040000000  0.5224690000000  0.5149860000000 1.0
C      1  0.4539110000000  0.5331220000000  0.5371970000000 1.0
C      1  0.4134210000000  0.5249450000000  0.4705890000000 1.0
C      1  0.4723080000000  0.5509180000000  0.4900620000000 1.0
C      1  0.4438410000000  0.4883930000000  0.4654970000000 1.0
C      1  0.4440220000000  0.4935280000000  0.5117100000000 1.0
C      1  0.5141520000000  0.4830890000000  0.4442370000000 1.0
C      1  0.4985210000000  0.4516700000000  0.4633600000000 1.0
C      1  0.4522500000000  0.4612660000000  0.4665120000000 1.0
C      1  0.4726120000000  0.5064130000000  0.4403500000000 1.0
C      1  0.4821520000000  0.4834160000000  0.4813270000000 1.0
C      1  0.4989800000000  0.4402320000000  0.5510870000000 1.0
C      1  0.5545520000000  0.4883510000000  0.4942750000000 1.0
C      1  0.4531820000000  0.5462780000000  0.5159650000000 1.0
C      1  0.5284310000000  0.4304020000000  0.5149910000000 1.0
C      1  0.4744730000000  0.4835650000000  0.5471520000000 1.0
C      1  0.5285400000000  0.5267240000000  0.5755670000000 1.0
C      1  0.4513720000000  0.4476320000000  0.5220740000000 1.0
C      1  0.5712550000000  0.5055320000000  0.5852200000000 1.0
C      1  0.5393020000000  0.5739480000000  0.4930940000000 1.0
C      1  0.4762130000000  0.5475270000000  0.4136890000000 1.0
C      1  0.4186400000000  0.5006150000000  0.5055100000000 1.0
C      1  0.5567930000000  0.5124390000000  0.5389870000000 1.0
C      1  0.5564880000000  0.4859850000000  0.5278740000000 1.0
END
