TITL C-2778433-5640-1171 -0.000138385491767733 125000 -336.320264725633 0 0 59 (C1) n - 1
REM
REM in /home/nfs/bkarasulu/CARBON/AIRSS/Generating-Clusters/REBO/Only-C1/SD-CG/HFTN-CG
REM
REM
REM
REM
REM
REM ./C.cell (11c1c37f851c82e70ff6c80c92926a4b)
REM
REM compiler GCC version 9.2.1 20190827 (Red Hat 9.2.1-1)
REM options -cpp -mtune=generic -march=x86-64 -g -O0 -fpre-include=/usr/include/finclude/math-vector-fortran.h
REM seed 570327456 2027698410 -1897383852 -888221887 -561105830 640431259 39091758 -536568930 161656683 101472398 395439220 -263083106 1456035634 1019967039 -1419945700 -397330513 2128843014 -1071269836 -639333228 -437389264 -1914538975 385841560 348291371 -573473934 -1494538048 2010174706 1761798232 -1115774193 -859734383 1020946591 431208806 2024653365 -2144043673
REM
CELL 1.54180   50.00000   50.00000   50.00000   90.00000   90.00000   90.00000
LATT -1
SFAC C  
C      1  0.5289280000000  0.5250800000000  0.4095050000000 1.0
C      1  0.4656870000000  0.4545380000000  0.5443150000000 1.0
C      1  0.5270170000000  0.5558810000000  0.5319360000000 1.0
C      1  0.5093100000000  0.5718240000000  0.5166550000000 1.0
C      1  0.5168140000000  0.4570080000000  0.5533410000000 1.0
C      1  0.4507740000000  0.4455810000000  0.4445770000000 1.0
C      1  0.5375800000000  0.5354790000000  0.4648020000000 1.0
C      1  0.4722890000000  0.5356030000000  0.4315650000000 1.0
C      1  0.5484630000000  0.5192960000000  0.5485320000000 1.0
C      1  0.4615530000000  0.5312000000000  0.5445810000000 1.0
C      1  0.5452810000000  0.4574410000000  0.5552010000000 1.0
C      1  0.4459300000000  0.5041260000000  0.5580710000000 1.0
C      1  0.5198810000000  0.4362680000000  0.4935280000000 1.0
C      1  0.4425830000000  0.5195770000000  0.5093690000000 1.0
C      1  0.4822960000000  0.5277220000000  0.4822310000000 1.0
C      1  0.5791210000000  0.4952240000000  0.5401960000000 1.0
C      1  0.5296330000000  0.4580380000000  0.5043810000000 1.0
C      1  0.5281940000000  0.5089690000000  0.5041530000000 1.0
C      1  0.4981140000000  0.5142120000000  0.5091730000000 1.0
C      1  0.4576930000000  0.5552570000000  0.5319080000000 1.0
C      1  0.4525140000000  0.4955600000000  0.5266990000000 1.0
C      1  0.4846780000000  0.4883830000000  0.5233430000000 1.0
C      1  0.4696300000000  0.4403470000000  0.4661000000000 1.0
C      1  0.5400690000000  0.4813310000000  0.5159960000000 1.0
C      1  0.4846800000000  0.4928550000000  0.4630420000000 1.0
C      1  0.5575510000000  0.4770810000000  0.5381850000000 1.0
C      1  0.4900010000000  0.4633270000000  0.5047520000000 1.0
C      1  0.4938890000000  0.4508460000000  0.5356130000000 1.0
C      1  0.5720030000000  0.5225360000000  0.5247810000000 1.0
C      1  0.5723090000000  0.5177280000000  0.4928770000000 1.0
C      1  0.4525870000000  0.4624770000000  0.5188260000000 1.0
C      1  0.4415180000000  0.4729050000000  0.4435890000000 1.0
C      1  0.4959460000000  0.5542820000000  0.4913860000000 1.0
C      1  0.6021050000000  0.4929780000000  0.5551820000000 1.0
C      1  0.4920270000000  0.5220250000000  0.4512060000000 1.0
C      1  0.5053640000000  0.4863120000000  0.5500660000000 1.0
C      1  0.4772560000000  0.5682120000000  0.5161630000000 1.0
C      1  0.4360320000000  0.5217590000000  0.4590040000000 1.0
C      1  0.5152790000000  0.4335520000000  0.4442360000000 1.0
C      1  0.4793420000000  0.5003320000000  0.5624730000000 1.0
C      1  0.4921590000000  0.5230180000000  0.5415150000000 1.0
C      1  0.4621760000000  0.4506910000000  0.4918880000000 1.0
C      1  0.4977430000000  0.4461790000000  0.4612010000000 1.0
C      1  0.4460110000000  0.5384010000000  0.4380990000000 1.0
C      1  0.5198000000000  0.5272330000000  0.4422740000000 1.0
C      1  0.5278860000000  0.5496250000000  0.4875310000000 1.0
C      1  0.4512970000000  0.5243560000000  0.4839390000000 1.0
C      1  0.4232940000000  0.4975260000000  0.4487690000000 1.0
C      1  0.5449330000000  0.4841560000000  0.4478360000000 1.0
C      1  0.5047200000000  0.4730770000000  0.4769420000000 1.0
C      1  0.5436360000000  0.5368810000000  0.5131000000000 1.0
C      1  0.4572500000000  0.4863830000000  0.4664110000000 1.0
C      1  0.5288920000000  0.5054140000000  0.5526530000000 1.0
C      1  0.4598400000000  0.4736720000000  0.5648340000000 1.0
C      1  0.4426770000000  0.4853850000000  0.4893320000000 1.0
C      1  0.5320700000000  0.4875480000000  0.4775360000000 1.0
C      1  0.5535570000000  0.5133790000000  0.4736760000000 1.0
C      1  0.5137210000000  0.5423630000000  0.5518390000000 1.0
C      1  0.5364150000000  0.5015580000000  0.4290860000000 1.0
END
