TITL C-2778424-3986-1327 -0.00142657209867854 125000 -918.234572901478 0 0 155 (C1) n - 1
REM
REM in /home/nfs/bkarasulu/CARBON/AIRSS/Generating-Clusters/REBO/Only-C1/SD-CG/HFTN-CG
REM
REM
REM
REM
REM
REM ./C.cell (11c1c37f851c82e70ff6c80c92926a4b)
REM
REM compiler GCC version 9.2.1 20190827 (Red Hat 9.2.1-1)
REM options -cpp -mtune=generic -march=x86-64 -g -O0 -fpre-include=/usr/include/finclude/math-vector-fortran.h
REM seed -802498981 -753850841 -1655837100 -2045373374 -160683734 -1296374511 -1072820132 1326462661 192712457 -549030025 704523886 -1309325856 1347328103 -71032686 1220422305 312486999 1732836071 2137959360 1946100826 -1554338920 -1066728058 -1154558647 -560852470 -1011296289 1432222175 883714719 -1853757452 -1456874007 -2030465644 589621089 1144842792 955022932 651132746
REM
CELL 1.54180   50.00000   50.00000   50.00000   90.00000   90.00000   90.00000
LATT -1
SFAC C  
C      1  0.4981130000000  0.4304670000000  0.5146650000000 1.0
C      1  0.4613780000000  0.4230460000000  0.4421440000000 1.0
C      1  0.4334040000000  0.5551160000000  0.5161470000000 1.0
C      1  0.5888550000000  0.4889970000000  0.4820290000000 1.0
C      1  0.5545500000000  0.5089940000000  0.4127410000000 1.0
C      1  0.5082410000000  0.4354800000000  0.4115560000000 1.0
C      1  0.5147390000000  0.3956090000000  0.4804610000000 1.0
C      1  0.5713670000000  0.5606230000000  0.5109530000000 1.0
C      1  0.4241260000000  0.4489650000000  0.5025470000000 1.0
C      1  0.4985980000000  0.4407620000000  0.4697420000000 1.0
C      1  0.5523290000000  0.4756200000000  0.4890500000000 1.0
C      1  0.4408890000000  0.5620570000000  0.5448090000000 1.0
C      1  0.4729250000000  0.5517550000000  0.5820960000000 1.0
C      1  0.5340100000000  0.4773000000000  0.5772050000000 1.0
C      1  0.4539200000000  0.5310210000000  0.5831570000000 1.0
C      1  0.4881610000000  0.4667010000000  0.6033750000000 1.0
C      1  0.5053560000000  0.4935820000000  0.5344000000000 1.0
C      1  0.5033720000000  0.5879380000000  0.5226400000000 1.0
C      1  0.3983150000000  0.5199780000000  0.4929360000000 1.0
C      1  0.5144480000000  0.5413060000000  0.5421340000000 1.0
C      1  0.5438980000000  0.4502370000000  0.5091200000000 1.0
C      1  0.5187350000000  0.4784230000000  0.4940380000000 1.0
C      1  0.5504990000000  0.5568670000000  0.4161610000000 1.0
C      1  0.5280480000000  0.5101750000000  0.4426730000000 1.0
C      1  0.5018950000000  0.4701140000000  0.4587630000000 1.0
C      1  0.5330890000000  0.5747520000000  0.4343730000000 1.0
C      1  0.4579370000000  0.5282100000000  0.5326750000000 1.0
C      1  0.5152410000000  0.5723640000000  0.5672200000000 1.0
C      1  0.4548950000000  0.5037880000000  0.5909210000000 1.0
C      1  0.5096250000000  0.4827290000000  0.4035400000000 1.0
C      1  0.4998770000000  0.5733480000000  0.4928950000000 1.0
C      1  0.4858230000000  0.4654000000000  0.5636950000000 1.0
C      1  0.5076630000000  0.5275130000000  0.4209560000000 1.0
C      1  0.5802720000000  0.5418100000000  0.4839590000000 1.0
C      1  0.5261830000000  0.4104300000000  0.5344140000000 1.0
C      1  0.5802300000000  0.5155580000000  0.4623220000000 1.0
C      1  0.5405970000000  0.5484290000000  0.4533870000000 1.0
C      1  0.4483550000000  0.5894980000000  0.4990300000000 1.0
C      1  0.4912880000000  0.5044350000000  0.4095860000000 1.0
C      1  0.5359240000000  0.5323750000000  0.4077380000000 1.0
C      1  0.4059400000000  0.4570200000000  0.4531500000000 1.0
C      1  0.5612380000000  0.5614270000000  0.4723950000000 1.0
C      1  0.5052660000000  0.5800030000000  0.4349150000000 1.0
C      1  0.4645510000000  0.4861830000000  0.5564050000000 1.0
C      1  0.5247670000000  0.5775760000000  0.4752530000000 1.0
C      1  0.5581390000000  0.4324930000000  0.4734800000000 1.0
C      1  0.5633830000000  0.4740800000000  0.5465660000000 1.0
C      1  0.5025370000000  0.5161750000000  0.5862570000000 1.0
C      1  0.4719170000000  0.5189220000000  0.4913420000000 1.0
C      1  0.4921320000000  0.5442650000000  0.5018630000000 1.0
C      1  0.4343510000000  0.4885820000000  0.5707900000000 1.0
C      1  0.4522150000000  0.4509770000000  0.4369130000000 1.0
C      1  0.4546190000000  0.4411410000000  0.5579310000000 1.0
C      1  0.4124530000000  0.4932230000000  0.4823020000000 1.0
C      1  0.5519520000000  0.5873920000000  0.4820000000000 1.0
C      1  0.3956970000000  0.5181110000000  0.5271600000000 1.0
C      1  0.5261970000000  0.5366330000000  0.6108320000000 1.0
C      1  0.4321480000000  0.4613610000000  0.5552450000000 1.0
C      1  0.5622590000000  0.5302130000000  0.4374470000000 1.0
C      1  0.5414380000000  0.4782830000000  0.4086350000000 1.0
C      1  0.5018850000000  0.6101400000000  0.4774250000000 1.0
C      1  0.4683330000000  0.4647850000000  0.4141190000000 1.0
C      1  0.4351670000000  0.5035480000000  0.4615740000000 1.0
C      1  0.5165130000000  0.6083330000000  0.5028330000000 1.0
C      1  0.4247340000000  0.4663360000000  0.4338180000000 1.0
C      1  0.4528020000000  0.4634850000000  0.5068910000000 1.0
C      1  0.4746940000000  0.5643340000000  0.4721350000000 1.0
C      1  0.5416930000000  0.5255560000000  0.4935670000000 1.0
C      1  0.5290380000000  0.4037590000000  0.4572250000000 1.0
C      1  0.4560810000000  0.4105750000000  0.4736400000000 1.0
C      1  0.4844410000000  0.3915220000000  0.4762870000000 1.0
C      1  0.5208040000000  0.5605500000000  0.5244020000000 1.0
C      1  0.5535510000000  0.5341600000000  0.5453600000000 1.0
C      1  0.5458410000000  0.6015100000000  0.5071300000000 1.0
C      1  0.4312000000000  0.4933610000000  0.4231370000000 1.0
C      1  0.4648890000000  0.5794600000000  0.5182770000000 1.0
C      1  0.4847470000000  0.5413110000000  0.4506960000000 1.0
C      1  0.4067710000000  0.5454840000000  0.5127630000000 1.0
C      1  0.4732380000000  0.4430790000000  0.5843030000000 1.0
C      1  0.5829520000000  0.4841930000000  0.4487850000000 1.0
C      1  0.4111230000000  0.5272380000000  0.4622060000000 1.0
C      1  0.4909910000000  0.5552420000000  0.4221740000000 1.0
C      1  0.4733270000000  0.5533580000000  0.5235180000000 1.0
C      1  0.5702680000000  0.4371160000000  0.5220830000000 1.0
C      1  0.5801280000000  0.4664300000000  0.5066570000000 1.0
C      1  0.4614830000000  0.4942140000000  0.4139350000000 1.0
C      1  0.5264870000000  0.4360820000000  0.5921440000000 1.0
C      1  0.5894300000000  0.5048850000000  0.5105720000000 1.0
C      1  0.5916340000000  0.4823780000000  0.5345530000000 1.0
C      1  0.4088870000000  0.4645140000000  0.4804900000000 1.0
C      1  0.4583450000000  0.4881020000000  0.4899380000000 1.0
C      1  0.4341850000000  0.5805190000000  0.4777860000000 1.0
C      1  0.4433290000000  0.5063590000000  0.5132010000000 1.0
C      1  0.4900410000000  0.4170000000000  0.4238370000000 1.0
C      1  0.4912270000000  0.5906130000000  0.4580930000000 1.0
C      1  0.4118680000000  0.5136720000000  0.4310090000000 1.0
C      1  0.4205630000000  0.4652020000000  0.5301350000000 1.0
C      1  0.4779330000000  0.4294340000000  0.4913830000000 1.0
C      1  0.5287710000000  0.4615080000000  0.5310010000000 1.0
C      1  0.4525530000000  0.5472190000000  0.4901220000000 1.0
C      1  0.4674790000000  0.5699920000000  0.5593420000000 1.0
C      1  0.5643620000000  0.4862670000000  0.5845070000000 1.0
C      1  0.5050200000000  0.5501440000000  0.5884070000000 1.0
C      1  0.5217110000000  0.4084620000000  0.5046750000000 1.0
C      1  0.5435450000000  0.5033330000000  0.4725220000000 1.0
C      1  0.5346090000000  0.4247910000000  0.4421580000000 1.0
C      1  0.5555110000000  0.5836560000000  0.5299700000000 1.0
C      1  0.4943280000000  0.4591190000000  0.4050360000000 1.0
C      1  0.5618270000000  0.5220810000000  0.5156170000000 1.0
C      1  0.5323620000000  0.5106780000000  0.6166970000000 1.0
C      1  0.4758570000000  0.5041180000000  0.5397390000000 1.0
C      1  0.5681490000000  0.4586230000000  0.4309220000000 1.0
C      1  0.4182360000000  0.4945810000000  0.5256960000000 1.0
C      1  0.4317720000000  0.5514410000000  0.4649460000000 1.0
C      1  0.5111610000000  0.5251550000000  0.4887220000000 1.0
C      1  0.5670040000000  0.4562210000000  0.5711950000000 1.0
C      1  0.5312400000000  0.4833460000000  0.6166270000000 1.0
C      1  0.4908830000000  0.4154560000000  0.4553250000000 1.0
C      1  0.5406290000000  0.4448890000000  0.4153350000000 1.0
C      1  0.5490810000000  0.4231060000000  0.5448540000000 1.0
C      1  0.4986430000000  0.4971360000000  0.4928700000000 1.0
C      1  0.4539710000000  0.4771270000000  0.4586690000000 1.0
C      1  0.5845630000000  0.5209710000000  0.5406260000000 1.0
C      1  0.5685860000000  0.4229490000000  0.4934600000000 1.0
C      1  0.4366880000000  0.5331770000000  0.5581400000000 1.0
C      1  0.4359420000000  0.5413100000000  0.4150020000000 1.0
C      1  0.4927850000000  0.5809410000000  0.5508090000000 1.0
C      1  0.5233260000000  0.4487770000000  0.4848960000000 1.0
C      1  0.4834290000000  0.4878260000000  0.4556450000000 1.0
C      1  0.5406690000000  0.5779550000000  0.5544110000000 1.0
C      1  0.4641170000000  0.4202590000000  0.5328320000000 1.0
C      1  0.4976600000000  0.4620440000000  0.5247130000000 1.0
C      1  0.5299970000000  0.4783800000000  0.4549600000000 1.0
C      1  0.4955050000000  0.4151050000000  0.5452260000000 1.0
C      1  0.5163910000000  0.4600960000000  0.6085620000000 1.0
C      1  0.4807370000000  0.4941540000000  0.5975470000000 1.0
C      1  0.4654660000000  0.5144770000000  0.4501570000000 1.0
C      1  0.5495150000000  0.4341600000000  0.5719430000000 1.0
C      1  0.4486120000000  0.5533720000000  0.3940710000000 1.0
C      1  0.5176800000000  0.4545810000000  0.5584170000000 1.0
C      1  0.4745090000000  0.5611360000000  0.3972060000000 1.0
C      1  0.5130960000000  0.5333360000000  0.4600680000000 1.0
C      1  0.5748650000000  0.4856630000000  0.4157600000000 1.0
C      1  0.5888210000000  0.4989380000000  0.5643890000000 1.0
C      1  0.5603780000000  0.5163420000000  0.5723230000000 1.0
C      1  0.5074290000000  0.4916670000000  0.5678950000000 1.0
C      1  0.4468600000000  0.4241840000000  0.5035540000000 1.0
C      1  0.5001690000000  0.4292390000000  0.5728310000000 1.0
C      1  0.4148360000000  0.5110970000000  0.5545870000000 1.0
C      1  0.5392030000000  0.4913290000000  0.5379290000000 1.0
C      1  0.4433380000000  0.5363540000000  0.4403550000000 1.0
C      1  0.5470900000000  0.4541670000000  0.4533910000000 1.0
C      1  0.5281540000000  0.5258290000000  0.5667390000000 1.0
C      1  0.5412040000000  0.5548350000000  0.5063190000000 1.0
C      1  0.4686870000000  0.4532340000000  0.5290680000000 1.0
END
