TITL C-2778424-3986-1360 0.00184804892368579 125000 -956.320404994912 0 0 167 (C1) n - 1
REM
REM in /home/nfs/bkarasulu/CARBON/AIRSS/Generating-Clusters/REBO/Only-C1/SD-CG/HFTN-CG
REM
REM
REM
REM
REM
REM ./C.cell (11c1c37f851c82e70ff6c80c92926a4b)
REM
REM compiler GCC version 9.2.1 20190827 (Red Hat 9.2.1-1)
REM options -cpp -mtune=generic -march=x86-64 -g -O0 -fpre-include=/usr/include/finclude/math-vector-fortran.h
REM seed -1108345534 1441825753 -1118628453 532532933 -1968190026 -680953220 181816859 243342444 1734804266 1322051320 -335126609 2017253151 2086563757 634834436 -751936915 -180724195 277961156 -1547087553 1500413452 -1244178087 561464265 858550478 -1180196448 1882131000 1064690908 -1506385272 -570682641 -989555145 722348367 -817742410 -364713786 -1019786873 457954635
REM
CELL 1.54180   50.00000   50.00000   50.00000   90.00000   90.00000   90.00000
LATT -1
SFAC C  
C      1  0.4121740000000  0.5224200000000  0.5394890000000 1.0
C      1  0.5040410000000  0.5030430000000  0.6164930000000 1.0
C      1  0.5034240000000  0.5426980000000  0.3967430000000 1.0
C      1  0.5076190000000  0.4627630000000  0.5723280000000 1.0
C      1  0.4961310000000  0.5202500000000  0.4500850000000 1.0
C      1  0.4995790000000  0.4881640000000  0.4265670000000 1.0
C      1  0.4223450000000  0.5232590000000  0.4407940000000 1.0
C      1  0.4457890000000  0.6004830000000  0.5078940000000 1.0
C      1  0.5086610000000  0.4739960000000  0.6032240000000 1.0
C      1  0.5056880000000  0.4391920000000  0.4389560000000 1.0
C      1  0.4875870000000  0.5458350000000  0.4331590000000 1.0
C      1  0.4995900000000  0.6108200000000  0.5262670000000 1.0
C      1  0.5534950000000  0.4510100000000  0.6058000000000 1.0
C      1  0.4629960000000  0.5572900000000  0.4437170000000 1.0
C      1  0.4486690000000  0.5123930000000  0.4217580000000 1.0
C      1  0.4517250000000  0.5995840000000  0.5375090000000 1.0
C      1  0.4921780000000  0.5611930000000  0.4797120000000 1.0
C      1  0.4842120000000  0.4434930000000  0.4134100000000 1.0
C      1  0.5775760000000  0.4417440000000  0.4623750000000 1.0
C      1  0.5582670000000  0.5737500000000  0.4829040000000 1.0
C      1  0.4366730000000  0.5208670000000  0.4777000000000 1.0
C      1  0.5854090000000  0.5327350000000  0.5265920000000 1.0
C      1  0.5503170000000  0.4759260000000  0.4464780000000 1.0
C      1  0.5600620000000  0.5745640000000  0.4547490000000 1.0
C      1  0.4749360000000  0.4975860000000  0.5096550000000 1.0
C      1  0.5310900000000  0.5397230000000  0.4091090000000 1.0
C      1  0.5716800000000  0.5181250000000  0.4900820000000 1.0
C      1  0.5282230000000  0.5063390000000  0.4961710000000 1.0
C      1  0.4229920000000  0.5701080000000  0.4733480000000 1.0
C      1  0.4871970000000  0.4702540000000  0.4034640000000 1.0
C      1  0.5002000000000  0.5601150000000  0.5445370000000 1.0
C      1  0.5214650000000  0.4006580000000  0.5161470000000 1.0
C      1  0.4898210000000  0.4044750000000  0.5221910000000 1.0
C      1  0.5252850000000  0.4462400000000  0.5176820000000 1.0
C      1  0.5785690000000  0.5028620000000  0.5759540000000 1.0
C      1  0.5949580000000  0.4672160000000  0.4773430000000 1.0
C      1  0.6052840000000  0.4892260000000  0.5235990000000 1.0
C      1  0.4364300000000  0.5056000000000  0.5561220000000 1.0
C      1  0.5340520000000  0.5444880000000  0.4709310000000 1.0
C      1  0.5429860000000  0.5060160000000  0.4652580000000 1.0
C      1  0.4699940000000  0.5375050000000  0.4913670000000 1.0
C      1  0.5382140000000  0.4653000000000  0.5785430000000 1.0
C      1  0.5299600000000  0.5494010000000  0.5388800000000 1.0
C      1  0.5101070000000  0.5256060000000  0.4765830000000 1.0
C      1  0.5388370000000  0.5062690000000  0.5756440000000 1.0
C      1  0.4721400000000  0.5956960000000  0.4385180000000 1.0
C      1  0.4562210000000  0.5476920000000  0.5788460000000 1.0
C      1  0.4197230000000  0.4522790000000  0.4996030000000 1.0
C      1  0.4672530000000  0.5324910000000  0.5502850000000 1.0
C      1  0.4290350000000  0.5551330000000  0.4431550000000 1.0
C      1  0.4767120000000  0.4408650000000  0.4525190000000 1.0
C      1  0.5891330000000  0.5016190000000  0.4406570000000 1.0
C      1  0.4648990000000  0.4387460000000  0.5967890000000 1.0
C      1  0.5163530000000  0.4886030000000  0.4628430000000 1.0
C      1  0.4338530000000  0.5337290000000  0.5079910000000 1.0
C      1  0.4563430000000  0.3976320000000  0.4682080000000 1.0
C      1  0.5110370000000  0.5657490000000  0.4315410000000 1.0
C      1  0.5874250000000  0.4996120000000  0.4715140000000 1.0
C      1  0.5044360000000  0.5926880000000  0.4493450000000 1.0
C      1  0.4633830000000  0.4963820000000  0.5920150000000 1.0
C      1  0.5363600000000  0.4040530000000  0.5398770000000 1.0
C      1  0.4217890000000  0.5877750000000  0.4987770000000 1.0
C      1  0.4529720000000  0.5594180000000  0.4747540000000 1.0
C      1  0.4786880000000  0.4653870000000  0.5054900000000 1.0
C      1  0.4337300000000  0.4582070000000  0.5521760000000 1.0
C      1  0.6085160000000  0.5315810000000  0.4829670000000 1.0
C      1  0.5641830000000  0.5472390000000  0.5441530000000 1.0
C      1  0.5628800000000  0.4998960000000  0.4292240000000 1.0
C      1  0.5284670000000  0.4194770000000  0.4439470000000 1.0
C      1  0.5330830000000  0.5215110000000  0.5243600000000 1.0
C      1  0.4649970000000  0.3940780000000  0.5012090000000 1.0
C      1  0.5758390000000  0.4938520000000  0.5091870000000 1.0
C      1  0.4759430000000  0.5822280000000  0.5536370000000 1.0
C      1  0.4488910000000  0.4208130000000  0.4473960000000 1.0
C      1  0.4828900000000  0.5400520000000  0.5893400000000 1.0
C      1  0.5603170000000  0.5315400000000  0.5741050000000 1.0
C      1  0.5325840000000  0.4208360000000  0.5609210000000 1.0
C      1  0.5039230000000  0.4331060000000  0.5649490000000 1.0
C      1  0.5326700000000  0.3977460000000  0.4296080000000 1.0
C      1  0.4916610000000  0.4797530000000  0.5519360000000 1.0
C      1  0.5547200000000  0.4327210000000  0.5108920000000 1.0
C      1  0.3908540000000  0.5175460000000  0.4888400000000 1.0
C      1  0.4725740000000  0.4985450000000  0.4416830000000 1.0
C      1  0.5178130000000  0.4668460000000  0.4410700000000 1.0
C      1  0.5455050000000  0.5616180000000  0.5670330000000 1.0
C      1  0.5323670000000  0.4961780000000  0.6031570000000 1.0
C      1  0.4529060000000  0.5512510000000  0.5257010000000 1.0
C      1  0.5776550000000  0.4367110000000  0.4960190000000 1.0
C      1  0.5282810000000  0.5978060000000  0.5238500000000 1.0
C      1  0.4049620000000  0.5735040000000  0.5181320000000 1.0
C      1  0.4438030000000  0.5708100000000  0.5511460000000 1.0
C      1  0.4647560000000  0.4282570000000  0.5024380000000 1.0
C      1  0.5561560000000  0.4901720000000  0.5531930000000 1.0
C      1  0.4772340000000  0.5257520000000  0.4086040000000 1.0
C      1  0.5854370000000  0.4503750000000  0.5645180000000 1.0
C      1  0.5604230000000  0.5101650000000  0.5305850000000 1.0
C      1  0.4321860000000  0.4899320000000  0.5024860000000 1.0
C      1  0.5753310000000  0.4530400000000  0.4317470000000 1.0
C      1  0.5805040000000  0.4599420000000  0.5341130000000 1.0
C      1  0.5521390000000  0.4812570000000  0.3955370000000 1.0
C      1  0.4303210000000  0.5361310000000  0.5657640000000 1.0
C      1  0.4806470000000  0.4186880000000  0.5839830000000 1.0
C      1  0.4401340000000  0.4636130000000  0.4186240000000 1.0
C      1  0.4155170000000  0.5562580000000  0.5428740000000 1.0
C      1  0.4786790000000  0.5948930000000  0.5083910000000 1.0
C      1  0.5979170000000  0.4606060000000  0.5071700000000 1.0
C      1  0.5114410000000  0.4960260000000  0.5308310000000 1.0
C      1  0.4567630000000  0.4643710000000  0.5952720000000 1.0
C      1  0.5059170000000  0.5439340000000  0.5056380000000 1.0
C      1  0.4064990000000  0.5052990000000  0.5141420000000 1.0
C      1  0.4774370000000  0.4960710000000  0.3942590000000 1.0
C      1  0.4833130000000  0.4006440000000  0.5552280000000 1.0
C      1  0.4456510000000  0.5809020000000  0.4276880000000 1.0
C      1  0.4743990000000  0.4316610000000  0.5470890000000 1.0
C      1  0.4095020000000  0.4706570000000  0.4733730000000 1.0
C      1  0.5032700000000  0.5986260000000  0.5545840000000 1.0
C      1  0.4828040000000  0.5256710000000  0.5213260000000 1.0
C      1  0.5430330000000  0.5557840000000  0.4336730000000 1.0
C      1  0.5020640000000  0.5399290000000  0.5684030000000 1.0
C      1  0.4216370000000  0.4669950000000  0.4428690000000 1.0
C      1  0.5209690000000  0.5704890000000  0.4695140000000 1.0
C      1  0.4718280000000  0.5857630000000  0.4703300000000 1.0
C      1  0.4838760000000  0.4127520000000  0.4798330000000 1.0
C      1  0.4041480000000  0.5031880000000  0.4628490000000 1.0
C      1  0.4818380000000  0.5165810000000  0.6056090000000 1.0
C      1  0.4470130000000  0.5082820000000  0.5259290000000 1.0
C      1  0.5177860000000  0.4768460000000  0.5048360000000 1.0
C      1  0.5633100000000  0.4612610000000  0.4057130000000 1.0
C      1  0.5953380000000  0.4820480000000  0.5554020000000 1.0
C      1  0.4352090000000  0.4950910000000  0.4551150000000 1.0
C      1  0.4797340000000  0.5067200000000  0.5657110000000 1.0
C      1  0.4426000000000  0.4313190000000  0.5409270000000 1.0
C      1  0.5132990000000  0.5119840000000  0.5608790000000 1.0
C      1  0.4418800000000  0.4657660000000  0.5211130000000 1.0
C      1  0.4014710000000  0.5441670000000  0.5075720000000 1.0
C      1  0.5297710000000  0.4093850000000  0.4908000000000 1.0
C      1  0.5970070000000  0.4718830000000  0.4448990000000 1.0
C      1  0.5000530000000  0.6009970000000  0.4826390000000 1.0
C      1  0.5087810000000  0.4259130000000  0.4779980000000 1.0
C      1  0.4394390000000  0.4793560000000  0.5710530000000 1.0
C      1  0.5474910000000  0.4275340000000  0.4687630000000 1.0
C      1  0.4559110000000  0.4754590000000  0.4828740000000 1.0
C      1  0.5438020000000  0.5097650000000  0.4069900000000 1.0
C      1  0.5709660000000  0.4722450000000  0.5855270000000 1.0
C      1  0.4655950000000  0.5067210000000  0.4783490000000 1.0
C      1  0.4610360000000  0.4686410000000  0.4455450000000 1.0
C      1  0.5597510000000  0.5329930000000  0.4529760000000 1.0
C      1  0.4113660000000  0.5405350000000  0.4757600000000 1.0
C      1  0.4564120000000  0.4364730000000  0.4186990000000 1.0
C      1  0.4273930000000  0.4287190000000  0.5162340000000 1.0
C      1  0.5577240000000  0.4710200000000  0.4999940000000 1.0
C      1  0.4717210000000  0.4613820000000  0.5368870000000 1.0
C      1  0.4815290000000  0.5652390000000  0.5178730000000 1.0
C      1  0.5140460000000  0.4536890000000  0.4801220000000 1.0
C      1  0.5912040000000  0.5381200000000  0.4616810000000 1.0
C      1  0.4269280000000  0.4420280000000  0.4626370000000 1.0
C      1  0.4957140000000  0.4371930000000  0.5140450000000 1.0
C      1  0.5563270000000  0.4367710000000  0.5746200000000 1.0
C      1  0.4390900000000  0.4907320000000  0.4039730000000 1.0
C      1  0.5450630000000  0.4609040000000  0.4750620000000 1.0
C      1  0.5314700000000  0.5867000000000  0.5539660000000 1.0
C      1  0.5600290000000  0.5432170000000  0.4915330000000 1.0
C      1  0.6061520000000  0.5203700000000  0.5099590000000 1.0
C      1  0.5488740000000  0.4660050000000  0.5320180000000 1.0
C      1  0.5311170000000  0.5912020000000  0.4939010000000 1.0
C      1  0.5149120000000  0.5141180000000  0.4222200000000 1.0
C      1  0.4556690000000  0.4451950000000  0.4779940000000 1.0
END
