TITL C-2778431-5191-705 -0.000320941785367341 125000 -1145.96949711715 0 0 194 (C1) n - 1
REM
REM in /home/nfs/bkarasulu/CARBON/AIRSS/Generating-Clusters/REBO/Only-C1/SD-CG/HFTN-CG
REM
REM
REM
REM
REM
REM ./C.cell (11c1c37f851c82e70ff6c80c92926a4b)
REM
REM compiler GCC version 9.2.1 20190827 (Red Hat 9.2.1-1)
REM options -cpp -mtune=generic -march=x86-64 -g -O0 -fpre-include=/usr/include/finclude/math-vector-fortran.h
REM seed 1809920988 42657420 1169363790 472411466 1303084959 -279661693 -224357442 1979343618 -246964298 2112051621 1122098946 -1657683384 198181849 -1084000076 695759129 1120726117 -1508775122 -2127649967 -35817990 626363907 -1879598935 133924959 1701712745 807646678 -395911766 1735905102 -972330265 -1540356373 401285399 -1383516711 -507834643 -217654495 -1809649711
REM
CELL 1.54180   50.00000   50.00000   50.00000   90.00000   90.00000   90.00000
LATT -1
SFAC C  
C      1  0.4633490000000  0.5149950000000  0.5912050000000 1.0
C      1  0.4846180000000  0.5785620000000  0.5840280000000 1.0
C      1  0.4009370000000  0.5412360000000  0.5400570000000 1.0
C      1  0.5534400000000  0.4373020000000  0.5663610000000 1.0
C      1  0.4878510000000  0.4653340000000  0.5022980000000 1.0
C      1  0.4582190000000  0.5225960000000  0.4724710000000 1.0
C      1  0.5281510000000  0.4419600000000  0.6058550000000 1.0
C      1  0.5906390000000  0.5640340000000  0.4804170000000 1.0
C      1  0.5266320000000  0.4335770000000  0.4518840000000 1.0
C      1  0.4763350000000  0.3953530000000  0.4721560000000 1.0
C      1  0.4641990000000  0.5946370000000  0.4854390000000 1.0
C      1  0.5173310000000  0.5009990000000  0.4833430000000 1.0
C      1  0.4403210000000  0.5009610000000  0.5745930000000 1.0
C      1  0.4236810000000  0.5783070000000  0.5111540000000 1.0
C      1  0.3943990000000  0.4837150000000  0.5356470000000 1.0
C      1  0.4236650000000  0.5351940000000  0.4158780000000 1.0
C      1  0.6217120000000  0.4670060000000  0.3730470000000 1.0
C      1  0.4803150000000  0.4445350000000  0.4338510000000 1.0
C      1  0.5924290000000  0.4514120000000  0.5398740000000 1.0
C      1  0.4243270000000  0.4704900000000  0.5735050000000 1.0
C      1  0.5822760000000  0.5230710000000  0.4496790000000 1.0
C      1  0.5447820000000  0.5031050000000  0.4544240000000 1.0
C      1  0.3693720000000  0.4558000000000  0.4579240000000 1.0
C      1  0.4617350000000  0.4810920000000  0.5108130000000 1.0
C      1  0.3994740000000  0.4437780000000  0.4607110000000 1.0
C      1  0.5310320000000  0.5047420000000  0.5661620000000 1.0
C      1  0.4227020000000  0.5573440000000  0.4884420000000 1.0
C      1  0.4831100000000  0.3809990000000  0.4956270000000 1.0
C      1  0.4094750000000  0.4989320000000  0.5118320000000 1.0
C      1  0.3710260000000  0.5403550000000  0.5368120000000 1.0
C      1  0.5553760000000  0.4439330000000  0.5943080000000 1.0
C      1  0.4090270000000  0.5668830000000  0.4437380000000 1.0
C      1  0.5268780000000  0.4114370000000  0.5328060000000 1.0
C      1  0.4445960000000  0.4751340000000  0.4834730000000 1.0
C      1  0.4298780000000  0.4737390000000  0.5201940000000 1.0
C      1  0.5559730000000  0.4151130000000  0.5480790000000 1.0
C      1  0.4368650000000  0.4229520000000  0.4140620000000 1.0
C      1  0.4747330000000  0.4483250000000  0.4773870000000 1.0
C      1  0.5052730000000  0.5241020000000  0.4969270000000 1.0
C      1  0.4564210000000  0.5286250000000  0.4168600000000 1.0
C      1  0.6032430000000  0.5607430000000  0.5387250000000 1.0
C      1  0.4607350000000  0.4583750000000  0.5844640000000 1.0
C      1  0.4374000000000  0.5637130000000  0.4403050000000 1.0
C      1  0.5162820000000  0.4497450000000  0.5019770000000 1.0
C      1  0.5223390000000  0.4686240000000  0.6151140000000 1.0
C      1  0.4393350000000  0.4507780000000  0.5380800000000 1.0
C      1  0.4896490000000  0.5576210000000  0.6099810000000 1.0
C      1  0.5395240000000  0.4494570000000  0.4022320000000 1.0
C      1  0.5862060000000  0.4489170000000  0.5124060000000 1.0
C      1  0.5670410000000  0.5640410000000  0.5230820000000 1.0
C      1  0.5384840000000  0.4749840000000  0.5059370000000 1.0
C      1  0.5073180000000  0.5271730000000  0.5542200000000 1.0
C      1  0.5540860000000  0.5415200000000  0.5077360000000 1.0
C      1  0.5390180000000  0.5687790000000  0.4671020000000 1.0
C      1  0.5859420000000  0.5723200000000  0.5585120000000 1.0
C      1  0.5800830000000  0.5215090000000  0.5625290000000 1.0
C      1  0.4713900000000  0.5912860000000  0.5560030000000 1.0
C      1  0.5326570000000  0.4539330000000  0.5551250000000 1.0
C      1  0.5848930000000  0.4924720000000  0.4491010000000 1.0
C      1  0.5501120000000  0.5339540000000  0.4518550000000 1.0
C      1  0.5022270000000  0.6015480000000  0.5106580000000 1.0
C      1  0.5602050000000  0.5486540000000  0.4797360000000 1.0
C      1  0.5011430000000  0.3874480000000  0.5147840000000 1.0
C      1  0.5122480000000  0.5090360000000  0.3799360000000 1.0
C      1  0.6057580000000  0.4612650000000  0.3930300000000 1.0
C      1  0.4902850000000  0.5158980000000  0.3702150000000 1.0
C      1  0.5559750000000  0.4460510000000  0.5048190000000 1.0
C      1  0.5666640000000  0.4712810000000  0.5986170000000 1.0
C      1  0.4120000000000  0.4325190000000  0.4886980000000 1.0
C      1  0.4476050000000  0.4780230000000  0.4436970000000 1.0
C      1  0.5895470000000  0.4554310000000  0.4133370000000 1.0
C      1  0.4916020000000  0.4216110000000  0.4669580000000 1.0
C      1  0.5415380000000  0.6054880000000  0.5048650000000 1.0
C      1  0.4346260000000  0.5020710000000  0.4723620000000 1.0
C      1  0.5033670000000  0.4226210000000  0.4351550000000 1.0
C      1  0.4335430000000  0.4416730000000  0.5768580000000 1.0
C      1  0.4866940000000  0.5238120000000  0.5327790000000 1.0
C      1  0.5095100000000  0.4828900000000  0.5224590000000 1.0
C      1  0.4146520000000  0.5203670000000  0.5633580000000 1.0
C      1  0.4397230000000  0.5430650000000  0.5675190000000 1.0
C      1  0.5234110000000  0.5449840000000  0.5141100000000 1.0
C      1  0.5085800000000  0.4927000000000  0.5969010000000 1.0
C      1  0.5888130000000  0.4988070000000  0.5314900000000 1.0
C      1  0.6076760000000  0.4894300000000  0.5063350000000 1.0
C      1  0.4471310000000  0.3967450000000  0.4644430000000 1.0
C      1  0.5361710000000  0.5365470000000  0.5428480000000 1.0
C      1  0.5662610000000  0.5639900000000  0.5820720000000 1.0
C      1  0.4094050000000  0.5195400000000  0.4365380000000 1.0
C      1  0.5534480000000  0.4229560000000  0.4655710000000 1.0
C      1  0.5246340000000  0.4614350000000  0.3859870000000 1.0
C      1  0.5514610000000  0.4563360000000  0.4731590000000 1.0
C      1  0.4480480000000  0.5237600000000  0.5419740000000 1.0
C      1  0.4039410000000  0.5019200000000  0.4815370000000 1.0
C      1  0.4896190000000  0.4156250000000  0.5738520000000 1.0
C      1  0.4735240000000  0.4189690000000  0.5351350000000 1.0
C      1  0.5422730000000  0.4554470000000  0.4335550000000 1.0
C      1  0.5589230000000  0.5116530000000  0.5213500000000 1.0
C      1  0.4134090000000  0.4644970000000  0.4919050000000 1.0
C      1  0.4676660000000  0.4722170000000  0.6101690000000 1.0
C      1  0.5222610000000  0.5993370000000  0.5577630000000 1.0
C      1  0.4212520000000  0.5233250000000  0.5239090000000 1.0
C      1  0.4986380000000  0.4022220000000  0.5454240000000 1.0
C      1  0.5593140000000  0.5425720000000  0.5602520000000 1.0
C      1  0.6026120000000  0.5293920000000  0.5383090000000 1.0
C      1  0.3904460000000  0.4754030000000  0.4720140000000 1.0
C      1  0.4083150000000  0.4184030000000  0.5156330000000 1.0
C      1  0.4969670000000  0.6051880000000  0.5681160000000 1.0
C      1  0.4844150000000  0.5385520000000  0.4315830000000 1.0
C      1  0.5825050000000  0.5570990000000  0.4480200000000 1.0
C      1  0.4606700000000  0.4380950000000  0.4068410000000 1.0
C      1  0.4728720000000  0.5679630000000  0.4726580000000 1.0
C      1  0.5051620000000  0.6061870000000  0.4616850000000 1.0
C      1  0.4931460000000  0.4434740000000  0.4026480000000 1.0
C      1  0.4336140000000  0.4615080000000  0.4239600000000 1.0
C      1  0.4641900000000  0.4270850000000  0.5755040000000 1.0
C      1  0.5588700000000  0.5058930000000  0.5759440000000 1.0
C      1  0.5871670000000  0.4781250000000  0.5802860000000 1.0
C      1  0.5096500000000  0.5743950000000  0.5097930000000 1.0
C      1  0.5632790000000  0.4165640000000  0.5170480000000 1.0
C      1  0.4933360000000  0.5554070000000  0.4909600000000 1.0
C      1  0.5412460000000  0.5871080000000  0.4270350000000 1.0
C      1  0.4671880000000  0.5624170000000  0.3984400000000 1.0
C      1  0.5778510000000  0.4138090000000  0.4861430000000 1.0
C      1  0.4957650000000  0.5472760000000  0.3943120000000 1.0
C      1  0.5243520000000  0.4424910000000  0.5310300000000 1.0
C      1  0.5147330000000  0.5457720000000  0.6156410000000 1.0
C      1  0.5513360000000  0.4963750000000  0.4852070000000 1.0
C      1  0.5190500000000  0.4997170000000  0.4111320000000 1.0
C      1  0.4786430000000  0.5141530000000  0.4511460000000 1.0
C      1  0.5272270000000  0.5519500000000  0.4395880000000 1.0
C      1  0.4566910000000  0.4056370000000  0.5165910000000 1.0
C      1  0.4797220000000  0.4964070000000  0.6049190000000 1.0
C      1  0.5945630000000  0.5712440000000  0.5104350000000 1.0
C      1  0.4475510000000  0.5513720000000  0.4679930000000 1.0
C      1  0.5401270000000  0.6048480000000  0.5330520000000 1.0
C      1  0.5126880000000  0.5326160000000  0.4170800000000 1.0
C      1  0.5312480000000  0.5030040000000  0.5334260000000 1.0
C      1  0.5458400000000  0.4885820000000  0.6099300000000 1.0
C      1  0.5550050000000  0.5798490000000  0.5472160000000 1.0
C      1  0.4632690000000  0.4793850000000  0.5619790000000 1.0
C      1  0.4599570000000  0.5693240000000  0.4242850000000 1.0
C      1  0.5133620000000  0.4727390000000  0.5696480000000 1.0
C      1  0.4430170000000  0.5389170000000  0.5056540000000 1.0
C      1  0.5036410000000  0.6207970000000  0.5297240000000 1.0
C      1  0.5252720000000  0.4712190000000  0.4685060000000 1.0
C      1  0.5635430000000  0.5720740000000  0.4356730000000 1.0
C      1  0.5012010000000  0.5510450000000  0.5724850000000 1.0
C      1  0.4746300000000  0.4671230000000  0.4528950000000 1.0
C      1  0.4979350000000  0.4763260000000  0.3976580000000 1.0
C      1  0.4216580000000  0.4283940000000  0.5375260000000 1.0
C      1  0.5968690000000  0.5331760000000  0.4766430000000 1.0
C      1  0.5827620000000  0.4681370000000  0.4677090000000 1.0
C      1  0.4409240000000  0.5083110000000  0.4393980000000 1.0
C      1  0.5834470000000  0.4358330000000  0.4607830000000 1.0
C      1  0.4328200000000  0.5690230000000  0.5600290000000 1.0
C      1  0.4970530000000  0.4880520000000  0.4592670000000 1.0
C      1  0.6079830000000  0.5218530000000  0.5055400000000 1.0
C      1  0.4446100000000  0.4411280000000  0.4839950000000 1.0
C      1  0.4449980000000  0.4105770000000  0.4915940000000 1.0
C      1  0.4004860000000  0.5523890000000  0.4676530000000 1.0
C      1  0.4049810000000  0.4894870000000  0.5603970000000 1.0
C      1  0.4727530000000  0.5228800000000  0.5013490000000 1.0
C      1  0.5986220000000  0.4664260000000  0.4941240000000 1.0
C      1  0.4494570000000  0.5915230000000  0.5105130000000 1.0
C      1  0.5303680000000  0.5179150000000  0.6038690000000 1.0
C      1  0.4674200000000  0.4459770000000  0.5404520000000 1.0
C      1  0.4776700000000  0.4959700000000  0.4252030000000 1.0
C      1  0.5272290000000  0.4020130000000  0.5021220000000 1.0
C      1  0.5904080000000  0.4768610000000  0.5524880000000 1.0
C      1  0.4727700000000  0.5409800000000  0.5888410000000 1.0
C      1  0.4893840000000  0.6090370000000  0.4855160000000 1.0
C      1  0.4909700000000  0.4696610000000  0.5469200000000 1.0
C      1  0.5386430000000  0.5493680000000  0.5936060000000 1.0
C      1  0.4652370000000  0.4981800000000  0.5362940000000 1.0
C      1  0.4667790000000  0.5312350000000  0.3851840000000 1.0
C      1  0.4148290000000  0.5695080000000  0.5370010000000 1.0
C      1  0.5298070000000  0.5688500000000  0.5673590000000 1.0
C      1  0.3973990000000  0.5249220000000  0.4615140000000 1.0
C      1  0.5110950000000  0.4181870000000  0.4055450000000 1.0
C      1  0.4646590000000  0.5797770000000  0.5322530000000 1.0
C      1  0.5123480000000  0.5827630000000  0.4411760000000 1.0
C      1  0.4845740000000  0.5681240000000  0.4438900000000 1.0
C      1  0.5733260000000  0.4495940000000  0.4336550000000 1.0
C      1  0.5361060000000  0.4869100000000  0.4335150000000 1.0
C      1  0.5094090000000  0.4248930000000  0.5923290000000 1.0
C      1  0.5184760000000  0.4259740000000  0.4842380000000 1.0
C      1  0.5771890000000  0.5119160000000  0.4940300000000 1.0
C      1  0.4659530000000  0.4717300000000  0.4089870000000 1.0
C      1  0.5369310000000  0.5917950000000  0.4814910000000 1.0
C      1  0.4164340000000  0.4365390000000  0.4376380000000 1.0
C      1  0.5428390000000  0.6058040000000  0.4066390000000 1.0
C      1  0.4652860000000  0.5501940000000  0.5291280000000 1.0
C      1  0.5558330000000  0.3905010000000  0.4963560000000 1.0
C      1  0.4342700000000  0.4079500000000  0.4424930000000 1.0
END
