TITL C-2778433-5640-488 -0.0622770021290346 125000 -929.874261183438 0 0 160 (C1) n - 1
REM
REM in /home/nfs/bkarasulu/CARBON/AIRSS/Generating-Clusters/REBO/Only-C1/SD-CG/HFTN-CG
REM
REM
REM
REM
REM
REM ./C.cell (11c1c37f851c82e70ff6c80c92926a4b)
REM
REM compiler GCC version 9.2.1 20190827 (Red Hat 9.2.1-1)
REM options -cpp -mtune=generic -march=x86-64 -g -O0 -fpre-include=/usr/include/finclude/math-vector-fortran.h
REM seed 1853736498 1968109300 372290627 -990575861 1374455151 -121711522 1379878974 1511854580 -653961260 -250620495 1291043557 444332722 683075207 -182103420 -203928092 -127998627 1484080640 34164208 2093896836 964307071 -1860450065 852675845 1844328712 1319444772 -1169647454 -861388563 -1404502726 -1620695079 -552186338 -1958096250 350931312 -1734716814 924834950
REM
CELL 1.54180   50.00000   50.00000   50.00000   90.00000   90.00000   90.00000
LATT -1
SFAC C  
C      1  0.4192390000000  0.5311810000000  0.5038470000000 1.0
C      1  0.4921090000000  0.4311850000000  0.4376730000000 1.0
C      1  0.5309930000000  0.5782000000000  0.5419830000000 1.0
C      1  0.4655620000000  0.5391850000000  0.4498470000000 1.0
C      1  0.4284470000000  0.4579970000000  0.5721530000000 1.0
C      1  0.4719910000000  0.4962620000000  0.4856790000000 1.0
C      1  0.6110710000000  0.5066360000000  0.5123060000000 1.0
C      1  0.4449500000000  0.5748780000000  0.5321140000000 1.0
C      1  0.5113370000000  0.4555840000000  0.5204810000000 1.0
C      1  0.4582250000000  0.4646460000000  0.4360010000000 1.0
C      1  0.4745380000000  0.4188940000000  0.5366060000000 1.0
C      1  0.5642510000000  0.5373470000000  0.5102540000000 1.0
C      1  0.5550830000000  0.4602660000000  0.5047760000000 1.0
C      1  0.4751460000000  0.4766090000000  0.6049130000000 1.0
C      1  0.5015310000000  0.4448780000000  0.5850350000000 1.0
C      1  0.4619100000000  0.5759900000000  0.4646470000000 1.0
C      1  0.4584920000000  0.5345580000000  0.5255400000000 1.0
C      1  0.3951120000000  0.4380570000000  0.5009830000000 1.0
C      1  0.3965290000000  0.5209970000000  0.4641020000000 1.0
C      1  0.4811560000000  0.4028150000000  0.5146700000000 1.0
C      1  0.5822030000000  0.5608950000000  0.5116590000000 1.0
C      1  0.4620880000000  0.4708450000000  0.4673720000000 1.0
C      1  0.4051070000000  0.4995650000000  0.4427580000000 1.0
C      1  0.4864390000000  0.5201190000000  0.5517600000000 1.0
C      1  0.5466600000000  0.5157450000000  0.4111580000000 1.0
C      1  0.5784500000000  0.5592930000000  0.4341720000000 1.0
C      1  0.4927970000000  0.4600550000000  0.4748860000000 1.0
C      1  0.4240640000000  0.5573890000000  0.5139900000000 1.0
C      1  0.4453400000000  0.4183760000000  0.4494630000000 1.0
C      1  0.4561160000000  0.4451690000000  0.5322820000000 1.0
C      1  0.4085910000000  0.4572940000000  0.5515470000000 1.0
C      1  0.4542210000000  0.5083060000000  0.4516660000000 1.0
C      1  0.4426090000000  0.5347420000000  0.4245940000000 1.0
C      1  0.5362710000000  0.5391780000000  0.4297610000000 1.0
C      1  0.5985920000000  0.5188650000000  0.5423820000000 1.0
C      1  0.4489700000000  0.4735700000000  0.5943650000000 1.0
C      1  0.4576890000000  0.4616050000000  0.5575800000000 1.0
C      1  0.4911680000000  0.5130040000000  0.4659000000000 1.0
C      1  0.4662260000000  0.5721650000000  0.5585140000000 1.0
C      1  0.4823940000000  0.5379660000000  0.5997970000000 1.0
C      1  0.5315380000000  0.5372280000000  0.5340170000000 1.0
C      1  0.5175280000000  0.5543140000000  0.5938220000000 1.0
C      1  0.5530260000000  0.5727910000000  0.4429230000000 1.0
C      1  0.4091730000000  0.4375660000000  0.5306270000000 1.0
C      1  0.5187820000000  0.4479670000000  0.5491310000000 1.0
C      1  0.4464010000000  0.4927770000000  0.5662760000000 1.0
C      1  0.5941400000000  0.4586300000000  0.5124310000000 1.0
C      1  0.5141190000000  0.4347260000000  0.3982100000000 1.0
C      1  0.4720440000000  0.5282660000000  0.4972380000000 1.0
C      1  0.5087170000000  0.5589640000000  0.4806920000000 1.0
C      1  0.4889920000000  0.4888270000000  0.3958170000000 1.0
C      1  0.5525260000000  0.4686830000000  0.5437960000000 1.0
C      1  0.5260910000000  0.5794210000000  0.4607450000000 1.0
C      1  0.4072050000000  0.4747110000000  0.5113440000000 1.0
C      1  0.5111920000000  0.5252980000000  0.4897240000000 1.0
C      1  0.5461160000000  0.4942410000000  0.4626340000000 1.0
C      1  0.4538640000000  0.3892770000000  0.4874450000000 1.0
C      1  0.4308900000000  0.5682820000000  0.4661970000000 1.0
C      1  0.5721280000000  0.5142960000000  0.5624280000000 1.0
C      1  0.4597610000000  0.5407130000000  0.5569860000000 1.0
C      1  0.4952400000000  0.5695450000000  0.4245020000000 1.0
C      1  0.4272400000000  0.4937450000000  0.4924890000000 1.0
C      1  0.5055070000000  0.5208010000000  0.4125830000000 1.0
C      1  0.4814040000000  0.5921300000000  0.5376600000000 1.0
C      1  0.4933300000000  0.5833220000000  0.4530730000000 1.0
C      1  0.5284940000000  0.4959970000000  0.4882540000000 1.0
C      1  0.4631830000000  0.5828960000000  0.5039320000000 1.0
C      1  0.4288880000000  0.5070690000000  0.4301920000000 1.0
C      1  0.5435320000000  0.5365660000000  0.4865490000000 1.0
C      1  0.5897890000000  0.4665200000000  0.4823590000000 1.0
C      1  0.4609890000000  0.5259730000000  0.6112550000000 1.0
C      1  0.4251910000000  0.4037210000000  0.4376630000000 1.0
C      1  0.5710980000000  0.4430640000000  0.5291510000000 1.0
C      1  0.4964790000000  0.5240480000000  0.5203920000000 1.0
C      1  0.5605830000000  0.4526320000000  0.4723600000000 1.0
C      1  0.4640510000000  0.4356340000000  0.4362550000000 1.0
C      1  0.5380980000000  0.5729910000000  0.5889560000000 1.0
C      1  0.4963920000000  0.6043010000000  0.5093120000000 1.0
C      1  0.4936200000000  0.4895070000000  0.5400860000000 1.0
C      1  0.5283030000000  0.4115890000000  0.4678010000000 1.0
C      1  0.5973860000000  0.4990890000000  0.4827050000000 1.0
C      1  0.3999040000000  0.4857720000000  0.5404300000000 1.0
C      1  0.5120430000000  0.4709180000000  0.4956780000000 1.0
C      1  0.5114580000000  0.4033080000000  0.5407300000000 1.0
C      1  0.5602250000000  0.4895430000000  0.5109830000000 1.0
C      1  0.4803750000000  0.4306220000000  0.4861400000000 1.0
C      1  0.4149700000000  0.5450840000000  0.4651880000000 1.0
C      1  0.3999450000000  0.4886880000000  0.4746190000000 1.0
C      1  0.4866460000000  0.4672670000000  0.5648010000000 1.0
C      1  0.4974410000000  0.4897250000000  0.5977810000000 1.0
C      1  0.4489090000000  0.4184570000000  0.4815160000000 1.0
C      1  0.4362620000000  0.4596310000000  0.5112190000000 1.0
C      1  0.5303110000000  0.5267230000000  0.5834650000000 1.0
C      1  0.4345990000000  0.5191610000000  0.4757420000000 1.0
C      1  0.5411880000000  0.5809360000000  0.4893780000000 1.0
C      1  0.5732100000000  0.5141060000000  0.5219110000000 1.0
C      1  0.4822960000000  0.5969900000000  0.4823380000000 1.0
C      1  0.6067980000000  0.5401810000000  0.5171940000000 1.0
C      1  0.5213350000000  0.5632600000000  0.4163460000000 1.0
C      1  0.5464220000000  0.4758980000000  0.4088200000000 1.0
C      1  0.5476310000000  0.4267300000000  0.4828060000000 1.0
C      1  0.5274940000000  0.4871550000000  0.5382340000000 1.0
C      1  0.4811070000000  0.4490990000000  0.5113860000000 1.0
C      1  0.4831510000000  0.4982750000000  0.4368210000000 1.0
C      1  0.4345200000000  0.5303300000000  0.5709630000000 1.0
C      1  0.5258650000000  0.4497020000000  0.5966810000000 1.0
C      1  0.6003810000000  0.4814640000000  0.5286940000000 1.0
C      1  0.4233390000000  0.4225360000000  0.5038200000000 1.0
C      1  0.5502040000000  0.5350400000000  0.5606870000000 1.0
C      1  0.5112030000000  0.6050800000000  0.5402730000000 1.0
C      1  0.5524040000000  0.4367360000000  0.4357950000000 1.0
C      1  0.5407150000000  0.4641450000000  0.4497480000000 1.0
C      1  0.5412340000000  0.4278500000000  0.5108790000000 1.0
C      1  0.4435230000000  0.4519870000000  0.4831760000000 1.0
C      1  0.5301410000000  0.5001800000000  0.4360610000000 1.0
C      1  0.5715220000000  0.5765070000000  0.4882950000000 1.0
C      1  0.5771140000000  0.5128800000000  0.4157600000000 1.0
C      1  0.5516120000000  0.5418580000000  0.4578660000000 1.0
C      1  0.5758480000000  0.5101640000000  0.4602900000000 1.0
C      1  0.5493290000000  0.4552900000000  0.5830170000000 1.0
C      1  0.4732800000000  0.5489410000000  0.4193210000000 1.0
C      1  0.5049110000000  0.5566970000000  0.5430480000000 1.0
C      1  0.5606610000000  0.4862310000000  0.5786600000000 1.0
C      1  0.4081970000000  0.5131710000000  0.5217080000000 1.0
C      1  0.5337580000000  0.5099350000000  0.5188610000000 1.0
C      1  0.5701520000000  0.4842100000000  0.4234870000000 1.0
C      1  0.4612760000000  0.4768440000000  0.4114670000000 1.0
C      1  0.4431340000000  0.5128550000000  0.5939770000000 1.0
C      1  0.5807230000000  0.4778420000000  0.4513990000000 1.0
C      1  0.5072380000000  0.4607830000000  0.4011860000000 1.0
C      1  0.5784150000000  0.5508760000000  0.4732410000000 1.0
C      1  0.5027080000000  0.4070980000000  0.4885120000000 1.0
C      1  0.5276350000000  0.5562760000000  0.5088630000000 1.0
C      1  0.5505710000000  0.4376200000000  0.5551960000000 1.0
C      1  0.4738650000000  0.5163410000000  0.4093010000000 1.0
C      1  0.4917790000000  0.5574120000000  0.5741420000000 1.0
C      1  0.5959690000000  0.5327000000000  0.4863470000000 1.0
C      1  0.4786820000000  0.5494460000000  0.4762690000000 1.0
C      1  0.4140400000000  0.5136460000000  0.5539650000000 1.0
C      1  0.5843250000000  0.5311380000000  0.4376320000000 1.0
C      1  0.5074930000000  0.4792620000000  0.4297600000000 1.0
C      1  0.5291540000000  0.5959010000000  0.5129800000000 1.0
C      1  0.5802860000000  0.4843930000000  0.5507710000000 1.0
C      1  0.4441470000000  0.5088710000000  0.5386770000000 1.0
C      1  0.4784670000000  0.4813700000000  0.5146350000000 1.0
C      1  0.5222840000000  0.4968210000000  0.3970560000000 1.0
C      1  0.4803430000000  0.5604890000000  0.5230360000000 1.0
C      1  0.5339810000000  0.4144460000000  0.4394300000000 1.0
C      1  0.5491680000000  0.5676060000000  0.5636150000000 1.0
C      1  0.5203070000000  0.4104390000000  0.5162110000000 1.0
C      1  0.5111490000000  0.4171100000000  0.4212030000000 1.0
C      1  0.5078630000000  0.4551760000000  0.4496830000000 1.0
C      1  0.4992180000000  0.5187070000000  0.5809100000000 1.0
C      1  0.4968960000000  0.4252050000000  0.5592380000000 1.0
C      1  0.5190580000000  0.4760280000000  0.5673980000000 1.0
C      1  0.4477300000000  0.4894500000000  0.5166610000000 1.0
C      1  0.5110780000000  0.5254300000000  0.4450730000000 1.0
C      1  0.5301840000000  0.4951610000000  0.5898100000000 1.0
C      1  0.3858540000000  0.4635530000000  0.4886390000000 1.0
C      1  0.4346570000000  0.5768080000000  0.4938720000000 1.0
END
