TITL C-2778437-8639-874 -0.027847327411379 125000 -652.133598131422 0 0 111 (C1) n - 1
REM
REM in /home/nfs/bkarasulu/CARBON/AIRSS/Generating-Clusters/REBO/Only-C1/SD-CG/HFTN-CG
REM
REM
REM
REM
REM
REM ./C.cell (11c1c37f851c82e70ff6c80c92926a4b)
REM
REM compiler GCC version 9.2.1 20190827 (Red Hat 9.2.1-1)
REM options -cpp -mtune=generic -march=x86-64 -g -O0 -fpre-include=/usr/include/finclude/math-vector-fortran.h
REM seed 2023732347 1513732624 -1737811178 937866979 1758250263 2063673767 -995153213 1907881505 -408434245 -1645676314 -926582530 555004264 -461170614 -1236250411 -1556697943 129888059 1822759346 1271797897 -794545467 -486080262 1389934534 1614725129 1818330224 481851028 -1347489375 -195156343 -579752188 -1345989138 -1755831983 1318061119 -1442833316 -1986665849 971613237
REM
CELL 1.54180   50.00000   50.00000   50.00000   90.00000   90.00000   90.00000
LATT -1
SFAC C  
C      1  0.5184320000000  0.5569070000000  0.5328530000000 1.0
C      1  0.5324950000000  0.4706840000000  0.5321250000000 1.0
C      1  0.4172660000000  0.4910920000000  0.5202120000000 1.0
C      1  0.4762770000000  0.5022000000000  0.3975740000000 1.0
C      1  0.5538040000000  0.4240660000000  0.5142650000000 1.0
C      1  0.5427110000000  0.4434050000000  0.4083200000000 1.0
C      1  0.5385620000000  0.5585380000000  0.4814420000000 1.0
C      1  0.4695980000000  0.5625990000000  0.5484860000000 1.0
C      1  0.4868240000000  0.5533030000000  0.4271000000000 1.0
C      1  0.4910190000000  0.5333100000000  0.4855020000000 1.0
C      1  0.5004860000000  0.4110590000000  0.5265260000000 1.0
C      1  0.4720740000000  0.4230510000000  0.4774920000000 1.0
C      1  0.4908160000000  0.5054940000000  0.5972490000000 1.0
C      1  0.4893370000000  0.4910730000000  0.4186450000000 1.0
C      1  0.5771350000000  0.4696780000000  0.5276750000000 1.0
C      1  0.4831860000000  0.4826390000000  0.4699580000000 1.0
C      1  0.4285980000000  0.5730560000000  0.4957690000000 1.0
C      1  0.4623650000000  0.5465850000000  0.4388830000000 1.0
C      1  0.4434830000000  0.5649670000000  0.4545610000000 1.0
C      1  0.4642190000000  0.5448060000000  0.4820860000000 1.0
C      1  0.5740330000000  0.4909720000000  0.4120510000000 1.0
C      1  0.5180480000000  0.5257820000000  0.5295560000000 1.0
C      1  0.5471160000000  0.4603250000000  0.5675880000000 1.0
C      1  0.4466780000000  0.5260080000000  0.4614750000000 1.0
C      1  0.4519180000000  0.4264960000000  0.5252110000000 1.0
C      1  0.5544720000000  0.5479310000000  0.4564740000000 1.0
C      1  0.5081940000000  0.5819370000000  0.4578530000000 1.0
C      1  0.5538510000000  0.4902000000000  0.4569770000000 1.0
C      1  0.5115020000000  0.5641880000000  0.4366330000000 1.0
C      1  0.4195680000000  0.5163850000000  0.5034750000000 1.0
C      1  0.4725800000000  0.5389270000000  0.5619100000000 1.0
C      1  0.5381600000000  0.5526840000000  0.4342590000000 1.0
C      1  0.5756480000000  0.5228370000000  0.4637080000000 1.0
C      1  0.5558660000000  0.5360790000000  0.5684070000000 1.0
C      1  0.4962620000000  0.5249360000000  0.4534270000000 1.0
C      1  0.4694570000000  0.5155010000000  0.5296390000000 1.0
C      1  0.5601000000000  0.4864650000000  0.5079880000000 1.0
C      1  0.4207090000000  0.5481160000000  0.4655590000000 1.0
C      1  0.4113140000000  0.5437260000000  0.4945830000000 1.0
C      1  0.5508220000000  0.4913670000000  0.5529650000000 1.0
C      1  0.5192470000000  0.4668060000000  0.5828330000000 1.0
C      1  0.4487980000000  0.4220890000000  0.4943950000000 1.0
C      1  0.5279560000000  0.4681470000000  0.3905340000000 1.0
C      1  0.5377080000000  0.5695870000000  0.5130420000000 1.0
C      1  0.5727890000000  0.5040650000000  0.4354180000000 1.0
C      1  0.5516050000000  0.5234790000000  0.4954880000000 1.0
C      1  0.5006090000000  0.4484450000000  0.4591220000000 1.0
C      1  0.4600900000000  0.5073000000000  0.5601200000000 1.0
C      1  0.5212600000000  0.5862040000000  0.4883130000000 1.0
C      1  0.4912880000000  0.5720810000000  0.5300750000000 1.0
C      1  0.5206440000000  0.5348490000000  0.4729780000000 1.0
C      1  0.4898150000000  0.5690660000000  0.5823460000000 1.0
C      1  0.4479500000000  0.5522890000000  0.5077990000000 1.0
C      1  0.4400770000000  0.5581220000000  0.5750480000000 1.0
C      1  0.5660360000000  0.5565180000000  0.5171180000000 1.0
C      1  0.4475100000000  0.5354300000000  0.5293670000000 1.0
C      1  0.5295870000000  0.4755180000000  0.5013110000000 1.0
C      1  0.5210220000000  0.4986870000000  0.5908510000000 1.0
C      1  0.4777510000000  0.5920620000000  0.5120270000000 1.0
C      1  0.4538650000000  0.5851170000000  0.5318760000000 1.0
C      1  0.5223840000000  0.4098930000000  0.4743300000000 1.0
C      1  0.4183840000000  0.4695500000000  0.5011780000000 1.0
C      1  0.5557930000000  0.4415620000000  0.4659180000000 1.0
C      1  0.4686790000000  0.4526600000000  0.4623910000000 1.0
C      1  0.5773130000000  0.4412300000000  0.4995990000000 1.0
C      1  0.4151840000000  0.4702630000000  0.4725740000000 1.0
C      1  0.5456330000000  0.4627690000000  0.4502500000000 1.0
C      1  0.4288140000000  0.4866210000000  0.5468040000000 1.0
C      1  0.4425760000000  0.4521810000000  0.5061750000000 1.0
C      1  0.5744170000000  0.5435490000000  0.4908130000000 1.0
C      1  0.4728670000000  0.4835740000000  0.5916790000000 1.0
C      1  0.4944400000000  0.5229090000000  0.5733750000000 1.0
C      1  0.5100600000000  0.5652500000000  0.5645740000000 1.0
C      1  0.5315090000000  0.4251440000000  0.4257890000000 1.0
C      1  0.4265630000000  0.5109590000000  0.5659440000000 1.0
C      1  0.4389700000000  0.5046920000000  0.4837690000000 1.0
C      1  0.4738070000000  0.4252100000000  0.5421600000000 1.0
C      1  0.4942560000000  0.5164470000000  0.5117890000000 1.0
C      1  0.3940120000000  0.4816180000000  0.4599770000000 1.0
C      1  0.4796920000000  0.4662960000000  0.5059290000000 1.0
C      1  0.4922670000000  0.4370890000000  0.5089350000000 1.0
C      1  0.4980060000000  0.4089050000000  0.4923960000000 1.0
C      1  0.5641720000000  0.5384290000000  0.5402800000000 1.0
C      1  0.4857690000000  0.5003210000000  0.4453090000000 1.0
C      1  0.4331950000000  0.5382960000000  0.5552220000000 1.0
C      1  0.5351800000000  0.5062160000000  0.4754200000000 1.0
C      1  0.4585980000000  0.5785330000000  0.4797410000000 1.0
C      1  0.5072820000000  0.4565920000000  0.4883590000000 1.0
C      1  0.5092180000000  0.5097240000000  0.5538750000000 1.0
C      1  0.4741180000000  0.4450720000000  0.5609930000000 1.0
C      1  0.5102880000000  0.4727700000000  0.4157400000000 1.0
C      1  0.5596770000000  0.4700700000000  0.4007670000000 1.0
C      1  0.5488840000000  0.5129480000000  0.5264920000000 1.0
C      1  0.5421410000000  0.4412900000000  0.5400750000000 1.0
C      1  0.5755230000000  0.4930800000000  0.4807730000000 1.0
C      1  0.4627430000000  0.5680490000000  0.5874660000000 1.0
C      1  0.4552270000000  0.4791990000000  0.4891240000000 1.0
C      1  0.5293270000000  0.4118460000000  0.5345650000000 1.0
C      1  0.5200260000000  0.4610190000000  0.4391520000000 1.0
C      1  0.5123340000000  0.4817840000000  0.5539220000000 1.0
C      1  0.5189110000000  0.4732620000000  0.3653360000000 1.0
C      1  0.5157210000000  0.4222190000000  0.4490210000000 1.0
C      1  0.5756860000000  0.4601960000000  0.5506590000000 1.0
C      1  0.4557440000000  0.4737020000000  0.5635340000000 1.0
C      1  0.4883580000000  0.4598230000000  0.5820060000000 1.0
C      1  0.4380810000000  0.4594520000000  0.4588590000000 1.0
C      1  0.5424170000000  0.5111940000000  0.5761120000000 1.0
C      1  0.5463780000000  0.4214500000000  0.4837400000000 1.0
C      1  0.5056200000000  0.4962380000000  0.4889600000000 1.0
C      1  0.5851810000000  0.4620690000000  0.4888330000000 1.0
C      1  0.4879860000000  0.5915520000000  0.4827960000000 1.0
END
