TITL C-2778435-5768-973 0.000687499865623298 125000 -491.739877475302 0 0 85 (C1) n - 1
REM
REM in /home/nfs/bkarasulu/CARBON/AIRSS/Generating-Clusters/REBO/Only-C1/SD-CG/HFTN-CG
REM
REM
REM
REM
REM
REM ./C.cell (11c1c37f851c82e70ff6c80c92926a4b)
REM
REM compiler GCC version 9.2.1 20190827 (Red Hat 9.2.1-1)
REM options -cpp -mtune=generic -march=x86-64 -g -O0 -fpre-include=/usr/include/finclude/math-vector-fortran.h
REM seed -1660005080 1635892310 35495019 739927474 464720492 -2114353032 -1860934392 -614620377 1220310494 -2056794299 -1891755812 -1520806684 1762222056 1439038829 750010857 725153879 2028009116 -1419168845 822920892 -1261675874 2091374544 183308929 -819690105 -1084915827 -837635055 -1026573698 124439330 856968502 -790854231 58848287 617926968 228584317 1297738165
REM
CELL 1.54180   50.00000   50.00000   50.00000   90.00000   90.00000   90.00000
LATT -1
SFAC C  
C      1  0.5423650000000  0.5555330000000  0.5057400000000 1.0
C      1  0.5097680000000  0.4398900000000  0.5190670000000 1.0
C      1  0.4570380000000  0.5285600000000  0.4611950000000 1.0
C      1  0.5660170000000  0.4629610000000  0.4864380000000 1.0
C      1  0.4524860000000  0.4809060000000  0.4837770000000 1.0
C      1  0.5079410000000  0.4942980000000  0.4170790000000 1.0
C      1  0.5589690000000  0.4517330000000  0.4359750000000 1.0
C      1  0.4911180000000  0.4526270000000  0.4653010000000 1.0
C      1  0.4713140000000  0.5266750000000  0.4301190000000 1.0
C      1  0.4794210000000  0.4827140000000  0.4423480000000 1.0
C      1  0.4477500000000  0.4504030000000  0.4879050000000 1.0
C      1  0.4487990000000  0.5443110000000  0.5132300000000 1.0
C      1  0.5168100000000  0.5019740000000  0.5820390000000 1.0
C      1  0.5182890000000  0.5413110000000  0.4320070000000 1.0
C      1  0.5067540000000  0.4371960000000  0.5482740000000 1.0
C      1  0.5130880000000  0.4361280000000  0.4474820000000 1.0
C      1  0.5393470000000  0.5785550000000  0.5225880000000 1.0
C      1  0.5131160000000  0.5796070000000  0.5340040000000 1.0
C      1  0.5506830000000  0.4642480000000  0.5447620000000 1.0
C      1  0.5788810000000  0.4970560000000  0.4462260000000 1.0
C      1  0.5111720000000  0.5209200000000  0.4882040000000 1.0
C      1  0.5633440000000  0.4902480000000  0.5172520000000 1.0
C      1  0.4676420000000  0.4993370000000  0.5858500000000 1.0
C      1  0.4805180000000  0.4379550000000  0.5590560000000 1.0
C      1  0.5250880000000  0.5286210000000  0.5875180000000 1.0
C      1  0.5433640000000  0.5168990000000  0.5389800000000 1.0
C      1  0.4444850000000  0.5022220000000  0.5685190000000 1.0
C      1  0.5027660000000  0.4622130000000  0.4281070000000 1.0
C      1  0.4410200000000  0.4352240000000  0.4653450000000 1.0
C      1  0.5034410000000  0.5518410000000  0.5409410000000 1.0
C      1  0.4979740000000  0.4646610000000  0.5093180000000 1.0
C      1  0.4961530000000  0.4839440000000  0.5347160000000 1.0
C      1  0.4571800000000  0.5637640000000  0.4422580000000 1.0
C      1  0.5649250000000  0.4942010000000  0.5483650000000 1.0
C      1  0.5257330000000  0.4884080000000  0.5455310000000 1.0
C      1  0.5362140000000  0.4762980000000  0.5094990000000 1.0
C      1  0.5320320000000  0.4906520000000  0.4367340000000 1.0
C      1  0.5234520000000  0.4917720000000  0.4839580000000 1.0
C      1  0.4994120000000  0.5302420000000  0.4583180000000 1.0
C      1  0.4685960000000  0.5185100000000  0.5132030000000 1.0
C      1  0.4567200000000  0.4505030000000  0.5633450000000 1.0
C      1  0.4945360000000  0.4231290000000  0.4735560000000 1.0
C      1  0.5861020000000  0.5130610000000  0.4671170000000 1.0
C      1  0.4315420000000  0.5549020000000  0.4453620000000 1.0
C      1  0.4859280000000  0.5881160000000  0.4961260000000 1.0
C      1  0.4816040000000  0.5585190000000  0.4518950000000 1.0
C      1  0.5052950000000  0.4971320000000  0.4567330000000 1.0
C      1  0.5336860000000  0.4314080000000  0.5062720000000 1.0
C      1  0.5580800000000  0.4802310000000  0.4368150000000 1.0
C      1  0.5081220000000  0.5464520000000  0.5739780000000 1.0
C      1  0.4117120000000  0.5084410000000  0.4856870000000 1.0
C      1  0.4510190000000  0.4938270000000  0.5117160000000 1.0
C      1  0.5282340000000  0.4489120000000  0.5628860000000 1.0
C      1  0.5561560000000  0.4891960000000  0.4781490000000 1.0
C      1  0.4204720000000  0.5023670000000  0.5116540000000 1.0
C      1  0.5586490000000  0.5971390000000  0.5266890000000 1.0
C      1  0.4944470000000  0.5960430000000  0.5207500000000 1.0
C      1  0.4436190000000  0.4763950000000  0.5548210000000 1.0
C      1  0.4692030000000  0.5391590000000  0.4864430000000 1.0
C      1  0.5707140000000  0.5140240000000  0.4955790000000 1.0
C      1  0.4709980000000  0.4523180000000  0.4307870000000 1.0
C      1  0.4519400000000  0.4366090000000  0.4403600000000 1.0
C      1  0.4562860000000  0.5006290000000  0.4416710000000 1.0
C      1  0.5225830000000  0.5518510000000  0.4826900000000 1.0
C      1  0.4351680000000  0.5446450000000  0.5368220000000 1.0
C      1  0.4921290000000  0.5612090000000  0.4825180000000 1.0
C      1  0.4231970000000  0.5285070000000  0.4618520000000 1.0
C      1  0.5524490000000  0.5310620000000  0.5157420000000 1.0
C      1  0.5468490000000  0.5354690000000  0.6020890000000 1.0
C      1  0.5314020000000  0.4765070000000  0.5774230000000 1.0
C      1  0.4646150000000  0.4707450000000  0.5298270000000 1.0
C      1  0.4831410000000  0.4688850000000  0.4856990000000 1.0
C      1  0.4976110000000  0.5218480000000  0.4193430000000 1.0
C      1  0.4810450000000  0.4203990000000  0.4994610000000 1.0
C      1  0.5579120000000  0.4507650000000  0.5172780000000 1.0
C      1  0.5084350000000  0.5336880000000  0.5154780000000 1.0
C      1  0.5488050000000  0.4383370000000  0.4805090000000 1.0
C      1  0.4341420000000  0.4960160000000  0.4638180000000 1.0
C      1  0.4645120000000  0.4427830000000  0.5103100000000 1.0
C      1  0.4786160000000  0.5385600000000  0.5601570000000 1.0
C      1  0.5423410000000  0.4362550000000  0.4531160000000 1.0
C      1  0.5333520000000  0.5542770000000  0.4532080000000 1.0
C      1  0.4836110000000  0.5131900000000  0.5388350000000 1.0
C      1  0.4475160000000  0.5299530000000  0.5581220000000 1.0
C      1  0.4910360000000  0.5019170000000  0.5700820000000 1.0
END
