TITL C-2778432-5617-1113 0.00111415865373445 125000 -912.501090951859 0 0 159 (C1) n - 1
REM
REM in /home/nfs/bkarasulu/CARBON/AIRSS/Generating-Clusters/REBO/Only-C1/SD-CG/HFTN-CG
REM
REM
REM
REM
REM
REM ./C.cell (11c1c37f851c82e70ff6c80c92926a4b)
REM
REM compiler GCC version 9.2.1 20190827 (Red Hat 9.2.1-1)
REM options -cpp -mtune=generic -march=x86-64 -g -O0 -fpre-include=/usr/include/finclude/math-vector-fortran.h
REM seed -2080777674 14708164 -1993085050 857375142 1710298770 -1003642345 1471658135 -1082159414 2002563872 -916941681 -364584024 -53819401 -581944932 1160008714 -174525332 -1377484336 187064197 -254481988 545887745 1483941747 1131050073 -89131441 -1013866299 136290643 -460450888 1606554397 -1783312025 1599538661 -2004035120 -1095751467 -480307756 -1788675767 98132082
REM
CELL 1.54180   50.00000   50.00000   50.00000   90.00000   90.00000   90.00000
LATT -1
SFAC C  
C      1  0.4231860000000  0.4858880000000  0.5247270000000 1.0
C      1  0.4524410000000  0.5010840000000  0.5795800000000 1.0
C      1  0.4064880000000  0.4382610000000  0.4554560000000 1.0
C      1  0.4942960000000  0.4289110000000  0.5637930000000 1.0
C      1  0.5153570000000  0.4211820000000  0.4785250000000 1.0
C      1  0.4155580000000  0.5490160000000  0.5289660000000 1.0
C      1  0.4651210000000  0.5766740000000  0.4257990000000 1.0
C      1  0.5038160000000  0.4475130000000  0.5296970000000 1.0
C      1  0.5506160000000  0.5238590000000  0.4201460000000 1.0
C      1  0.4697540000000  0.4762790000000  0.3962560000000 1.0
C      1  0.5268200000000  0.5580210000000  0.5433850000000 1.0
C      1  0.3973360000000  0.4486760000000  0.5129430000000 1.0
C      1  0.4962620000000  0.5098950000000  0.6001810000000 1.0
C      1  0.5794460000000  0.4277530000000  0.4765470000000 1.0
C      1  0.5874740000000  0.5236140000000  0.5033460000000 1.0
C      1  0.5368690000000  0.4366480000000  0.5329460000000 1.0
C      1  0.5097610000000  0.5224330000000  0.4399780000000 1.0
C      1  0.5678730000000  0.5484280000000  0.4364380000000 1.0
C      1  0.4966750000000  0.4096760000000  0.4597270000000 1.0
C      1  0.5937390000000  0.5289510000000  0.5423850000000 1.0
C      1  0.5344610000000  0.4654220000000  0.4581740000000 1.0
C      1  0.4841640000000  0.5219130000000  0.4560390000000 1.0
C      1  0.3980100000000  0.5017410000000  0.5137890000000 1.0
C      1  0.5111410000000  0.4914720000000  0.5550110000000 1.0
C      1  0.5550980000000  0.5460650000000  0.5747930000000 1.0
C      1  0.4632920000000  0.4411070000000  0.5664930000000 1.0
C      1  0.5118180000000  0.4614430000000  0.6015100000000 1.0
C      1  0.4822050000000  0.5913730000000  0.4725320000000 1.0
C      1  0.5875850000000  0.5298630000000  0.4530300000000 1.0
C      1  0.5300020000000  0.5781540000000  0.4424380000000 1.0
C      1  0.5362880000000  0.4891440000000  0.5776670000000 1.0
C      1  0.4666330000000  0.4485040000000  0.5008610000000 1.0
C      1  0.5641080000000  0.5039830000000  0.4955230000000 1.0
C      1  0.5323580000000  0.5394480000000  0.4521140000000 1.0
C      1  0.5656480000000  0.4936970000000  0.4256850000000 1.0
C      1  0.4869550000000  0.3772250000000  0.5729470000000 1.0
C      1  0.4686230000000  0.4014550000000  0.5115730000000 1.0
C      1  0.5356910000000  0.5798000000000  0.5661610000000 1.0
C      1  0.4627980000000  0.5487180000000  0.4953740000000 1.0
C      1  0.5140400000000  0.4513570000000  0.4786670000000 1.0
C      1  0.4898870000000  0.3650140000000  0.5951620000000 1.0
C      1  0.5300740000000  0.5513180000000  0.4213280000000 1.0
C      1  0.4773530000000  0.6123820000000  0.5204930000000 1.0
C      1  0.5209930000000  0.4604700000000  0.5054320000000 1.0
C      1  0.5247740000000  0.4923700000000  0.6081180000000 1.0
C      1  0.6080550000000  0.4817330000000  0.5178440000000 1.0
C      1  0.4620860000000  0.5117900000000  0.4356360000000 1.0
C      1  0.5783380000000  0.4313680000000  0.5009130000000 1.0
C      1  0.5205660000000  0.5529970000000  0.4777840000000 1.0
C      1  0.5389760000000  0.4426720000000  0.5636410000000 1.0
C      1  0.4634440000000  0.5748890000000  0.5255540000000 1.0
C      1  0.4966530000000  0.5217440000000  0.4842500000000 1.0
C      1  0.4853810000000  0.4257240000000  0.4365050000000 1.0
C      1  0.3983820000000  0.4749620000000  0.4953610000000 1.0
C      1  0.5126130000000  0.5251600000000  0.4078800000000 1.0
C      1  0.5251820000000  0.4138200000000  0.5105410000000 1.0
C      1  0.4319210000000  0.5737550000000  0.5155130000000 1.0
C      1  0.4634080000000  0.5130610000000  0.5525940000000 1.0
C      1  0.4312310000000  0.4662950000000  0.4973680000000 1.0
C      1  0.5530170000000  0.5956000000000  0.4975390000000 1.0
C      1  0.5047460000000  0.4943100000000  0.4924290000000 1.0
C      1  0.4377820000000  0.5770640000000  0.4423450000000 1.0
C      1  0.5094810000000  0.4445870000000  0.4207330000000 1.0
C      1  0.5872390000000  0.4699660000000  0.5042700000000 1.0
C      1  0.5776500000000  0.5231090000000  0.5705980000000 1.0
C      1  0.4835200000000  0.3915320000000  0.5469170000000 1.0
C      1  0.4570990000000  0.5801350000000  0.4928050000000 1.0
C      1  0.5299370000000  0.4361920000000  0.4431770000000 1.0
C      1  0.4073020000000  0.4710450000000  0.4656900000000 1.0
C      1  0.5648770000000  0.5762100000000  0.4805320000000 1.0
C      1  0.5034950000000  0.4148130000000  0.5357300000000 1.0
C      1  0.4434360000000  0.4313220000000  0.5189840000000 1.0
C      1  0.4458520000000  0.4702490000000  0.5711930000000 1.0
C      1  0.4965940000000  0.4839810000000  0.5814730000000 1.0
C      1  0.5646110000000  0.4707990000000  0.4509100000000 1.0
C      1  0.4939820000000  0.6095910000000  0.4976290000000 1.0
C      1  0.4314350000000  0.5070690000000  0.4236780000000 1.0
C      1  0.4810850000000  0.5290810000000  0.4131530000000 1.0
C      1  0.5276950000000  0.4791490000000  0.5330680000000 1.0
C      1  0.4608850000000  0.5535560000000  0.5792090000000 1.0
C      1  0.5800150000000  0.4832700000000  0.4762830000000 1.0
C      1  0.4611440000000  0.5989140000000  0.4486630000000 1.0
C      1  0.5804600000000  0.4982250000000  0.5491730000000 1.0
C      1  0.5472820000000  0.4020360000000  0.4922750000000 1.0
C      1  0.5492930000000  0.5569400000000  0.5199660000000 1.0
C      1  0.4501040000000  0.5374210000000  0.5443270000000 1.0
C      1  0.5158820000000  0.4392990000000  0.5786950000000 1.0
C      1  0.4192910000000  0.5245090000000  0.4709660000000 1.0
C      1  0.5007820000000  0.4804370000000  0.3833820000000 1.0
C      1  0.5658230000000  0.5696560000000  0.5538640000000 1.0
C      1  0.4769120000000  0.5660890000000  0.5543520000000 1.0
C      1  0.4936010000000  0.5136870000000  0.5434110000000 1.0
C      1  0.5560540000000  0.5183220000000  0.4593550000000 1.0
C      1  0.4674890000000  0.4190440000000  0.4896970000000 1.0
C      1  0.4189600000000  0.4474300000000  0.5339870000000 1.0
C      1  0.4971670000000  0.5731750000000  0.5209580000000 1.0
C      1  0.5410390000000  0.5272810000000  0.4886150000000 1.0
C      1  0.4309360000000  0.5496490000000  0.4512150000000 1.0
C      1  0.5555210000000  0.4745280000000  0.4015080000000 1.0
C      1  0.5810920000000  0.5527910000000  0.5299270000000 1.0
C      1  0.5245560000000  0.5683080000000  0.5034820000000 1.0
C      1  0.5235750000000  0.4659260000000  0.4023400000000 1.0
C      1  0.5043950000000  0.4830920000000  0.4392520000000 1.0
C      1  0.4407610000000  0.4741910000000  0.4593560000000 1.0
C      1  0.5532710000000  0.4662740000000  0.5681930000000 1.0
C      1  0.5325220000000  0.4994680000000  0.4042150000000 1.0
C      1  0.4602720000000  0.4255900000000  0.4598110000000 1.0
C      1  0.4054310000000  0.4569500000000  0.4285610000000 1.0
C      1  0.5631970000000  0.4386830000000  0.4511050000000 1.0
C      1  0.5445970000000  0.4131160000000  0.4637680000000 1.0
C      1  0.4572740000000  0.5353380000000  0.4673570000000 1.0
C      1  0.5653530000000  0.4516120000000  0.5227240000000 1.0
C      1  0.4698650000000  0.5240180000000  0.5926920000000 1.0
C      1  0.5257310000000  0.5238070000000  0.5941090000000 1.0
C      1  0.5215980000000  0.6015950000000  0.5074370000000 1.0
C      1  0.5215920000000  0.5987150000000  0.5416270000000 1.0
C      1  0.5388530000000  0.5190610000000  0.5629020000000 1.0
C      1  0.5706210000000  0.4731220000000  0.5471170000000 1.0
C      1  0.5196620000000  0.5261680000000  0.5114800000000 1.0
C      1  0.4073140000000  0.4154940000000  0.4777080000000 1.0
C      1  0.4825670000000  0.5550570000000  0.4338030000000 1.0
C      1  0.4650120000000  0.4569060000000  0.4504000000000 1.0
C      1  0.4929230000000  0.5603850000000  0.4617140000000 1.0
C      1  0.5113290000000  0.5947970000000  0.4538200000000 1.0
C      1  0.4197430000000  0.4833840000000  0.4359540000000 1.0
C      1  0.4921460000000  0.5451530000000  0.5064000000000 1.0
C      1  0.4534260000000  0.4893200000000  0.4988630000000 1.0
C      1  0.6009360000000  0.5389620000000  0.4775320000000 1.0
C      1  0.4757490000000  0.4607760000000  0.5299520000000 1.0
C      1  0.4767740000000  0.4539750000000  0.4192450000000 1.0
C      1  0.5322890000000  0.5192830000000  0.5356070000000 1.0
C      1  0.5818280000000  0.5568480000000  0.4967140000000 1.0
C      1  0.4144650000000  0.4242940000000  0.5024430000000 1.0
C      1  0.4901230000000  0.5962390000000  0.5457170000000 1.0
C      1  0.4631180000000  0.4182960000000  0.5412350000000 1.0
C      1  0.4804080000000  0.4564160000000  0.5890870000000 1.0
C      1  0.4759310000000  0.3735460000000  0.5190590000000 1.0
C      1  0.4422720000000  0.5354900000000  0.5145930000000 1.0
C      1  0.4352210000000  0.4436430000000  0.4732310000000 1.0
C      1  0.4708490000000  0.4933200000000  0.5279110000000 1.0
C      1  0.5893930000000  0.4997190000000  0.4480380000000 1.0
C      1  0.5317790000000  0.4982040000000  0.4495070000000 1.0
C      1  0.4314850000000  0.5502290000000  0.5665420000000 1.0
C      1  0.4273410000000  0.4964630000000  0.5568170000000 1.0
C      1  0.5514350000000  0.5898720000000  0.5309420000000 1.0
C      1  0.5572750000000  0.5705830000000  0.4525990000000 1.0
C      1  0.4454070000000  0.4651270000000  0.5401660000000 1.0
C      1  0.4940030000000  0.4647920000000  0.4574550000000 1.0
C      1  0.4942730000000  0.5463220000000  0.5839940000000 1.0
C      1  0.5254810000000  0.5564910000000  0.5881710000000 1.0
C      1  0.4587490000000  0.5049670000000  0.4035160000000 1.0
C      1  0.5014640000000  0.5432670000000  0.5508740000000 1.0
C      1  0.4414960000000  0.5153560000000  0.4904450000000 1.0
C      1  0.4844640000000  0.4765990000000  0.4944240000000 1.0
C      1  0.5363340000000  0.4904290000000  0.5030260000000 1.0
C      1  0.4129730000000  0.5270740000000  0.5537200000000 1.0
C      1  0.6077870000000  0.5084290000000  0.5218710000000 1.0
C      1  0.4174180000000  0.5315000000000  0.4285320000000 1.0
C      1  0.4942020000000  0.4897270000000  0.4150430000000 1.0
END
