TITL C-2778428-5639-1193 0.00256484316365828 125000 -482.66633286464 0 0 84 (C1) n - 1
REM
REM in /home/nfs/bkarasulu/CARBON/AIRSS/Generating-Clusters/REBO/Only-C1/SD-CG/HFTN-CG
REM
REM
REM
REM
REM
REM ./C.cell (11c1c37f851c82e70ff6c80c92926a4b)
REM
REM compiler GCC version 9.2.1 20190827 (Red Hat 9.2.1-1)
REM options -cpp -mtune=generic -march=x86-64 -g -O0 -fpre-include=/usr/include/finclude/math-vector-fortran.h
REM seed -400288325 -1593280041 126682815 144773472 -497316141 814398217 -632209864 -1211635364 -1562968636 1378519786 192882788 -379398166 441198404 -123848002 -2048856022 870721671 2062953376 1913502021 -1933752473 -520266815 197011748 -681964392 52757112 897821763 -1179084645 2019232460 1701856495 755265635 -1580790807 -1524614626 -234481207 -795295146 799752915
REM
CELL 1.54180   50.00000   50.00000   50.00000   90.00000   90.00000   90.00000
LATT -1
SFAC C  
C      1  0.4475930000000  0.4528450000000  0.4615460000000 1.0
C      1  0.5504380000000  0.5559540000000  0.5207530000000 1.0
C      1  0.4680870000000  0.5759870000000  0.4621600000000 1.0
C      1  0.4370800000000  0.5480340000000  0.5079570000000 1.0
C      1  0.4029520000000  0.4767860000000  0.4955520000000 1.0
C      1  0.5529090000000  0.4651530000000  0.4462960000000 1.0
C      1  0.4790520000000  0.5588930000000  0.4441630000000 1.0
C      1  0.5630860000000  0.4717620000000  0.5169980000000 1.0
C      1  0.5269150000000  0.4379510000000  0.5689780000000 1.0
C      1  0.4566840000000  0.4682780000000  0.4376290000000 1.0
C      1  0.4549690000000  0.5759130000000  0.5096380000000 1.0
C      1  0.4808450000000  0.5886110000000  0.5072440000000 1.0
C      1  0.5193540000000  0.5272660000000  0.4383380000000 1.0
C      1  0.5332940000000  0.5177460000000  0.5268500000000 1.0
C      1  0.4842500000000  0.5934510000000  0.4787590000000 1.0
C      1  0.5033480000000  0.5328790000000  0.4843540000000 1.0
C      1  0.5934900000000  0.4681080000000  0.5172930000000 1.0
C      1  0.4935300000000  0.4492770000000  0.4952930000000 1.0
C      1  0.5031780000000  0.5513380000000  0.5449500000000 1.0
C      1  0.4925640000000  0.5329910000000  0.4528100000000 1.0
C      1  0.4991520000000  0.4422700000000  0.4434310000000 1.0
C      1  0.5126000000000  0.5463190000000  0.5122800000000 1.0
C      1  0.4744070000000  0.4635060000000  0.5331780000000 1.0
C      1  0.5679260000000  0.5324190000000  0.5090430000000 1.0
C      1  0.4344230000000  0.4556690000000  0.5334440000000 1.0
C      1  0.5106220000000  0.5010850000000  0.5362500000000 1.0
C      1  0.5139630000000  0.5126220000000  0.5744320000000 1.0
C      1  0.5272910000000  0.4935100000000  0.4579710000000 1.0
C      1  0.5001210000000  0.4831430000000  0.4173140000000 1.0
C      1  0.4888230000000  0.4788380000000  0.5512830000000 1.0
C      1  0.4461480000000  0.5634990000000  0.4791170000000 1.0
C      1  0.5289370000000  0.4499520000000  0.5370870000000 1.0
C      1  0.5023700000000  0.5025420000000  0.4765650000000 1.0
C      1  0.5428210000000  0.5366990000000  0.4548640000000 1.0
C      1  0.5316770000000  0.4671750000000  0.5726980000000 1.0
C      1  0.4449940000000  0.5355200000000  0.5550870000000 1.0
C      1  0.5489440000000  0.4513840000000  0.4944330000000 1.0
C      1  0.4501940000000  0.4353860000000  0.5186540000000 1.0
C      1  0.4553340000000  0.4913090000000  0.5689940000000 1.0
C      1  0.5664400000000  0.4879110000000  0.4522860000000 1.0
C      1  0.5134640000000  0.4258940000000  0.4696910000000 1.0
C      1  0.5288750000000  0.4312310000000  0.4922440000000 1.0
C      1  0.4834560000000  0.4633030000000  0.4288990000000 1.0
C      1  0.4876360000000  0.4954690000000  0.5133730000000 1.0
C      1  0.4753440000000  0.5043240000000  0.4612810000000 1.0
C      1  0.5740370000000  0.5372980000000  0.4795160000000 1.0
C      1  0.4344950000000  0.5302500000000  0.5306860000000 1.0
C      1  0.5433770000000  0.5985870000000  0.4938180000000 1.0
C      1  0.4632780000000  0.5179210000000  0.5054640000000 1.0
C      1  0.5587160000000  0.5633750000000  0.4694970000000 1.0
C      1  0.5320450000000  0.5488910000000  0.4848030000000 1.0
C      1  0.5674080000000  0.5144500000000  0.4599780000000 1.0
C      1  0.4374240000000  0.5011820000000  0.5204820000000 1.0
C      1  0.5131300000000  0.4727310000000  0.5204520000000 1.0
C      1  0.5089110000000  0.4845350000000  0.5729840000000 1.0
C      1  0.4438070000000  0.4683670000000  0.5583300000000 1.0
C      1  0.4364920000000  0.4286250000000  0.4664490000000 1.0
C      1  0.5040060000000  0.5769330000000  0.5223230000000 1.0
C      1  0.5355400000000  0.5449410000000  0.5456670000000 1.0
C      1  0.4658580000000  0.5147620000000  0.4298960000000 1.0
C      1  0.4812160000000  0.4249680000000  0.4666420000000 1.0
C      1  0.6188260000000  0.4650630000000  0.5175400000000 1.0
C      1  0.4651850000000  0.5185650000000  0.5659750000000 1.0
C      1  0.5599350000000  0.5036270000000  0.5541310000000 1.0
C      1  0.4440060000000  0.5295710000000  0.4801170000000 1.0
C      1  0.4208090000000  0.4751570000000  0.5172130000000 1.0
C      1  0.4056300000000  0.4936090000000  0.4740100000000 1.0
C      1  0.5311810000000  0.4496960000000  0.4431780000000 1.0
C      1  0.5355880000000  0.5789420000000  0.5114440000000 1.0
C      1  0.5509910000000  0.4745330000000  0.5474610000000 1.0
C      1  0.5403230000000  0.5209400000000  0.5658250000000 1.0
C      1  0.4453410000000  0.4947200000000  0.4370790000000 1.0
C      1  0.5531140000000  0.5023670000000  0.5072460000000 1.0
C      1  0.4335510000000  0.5045330000000  0.4656810000000 1.0
C      1  0.4666130000000  0.4351700000000  0.4918920000000 1.0
C      1  0.4804570000000  0.4339650000000  0.5293940000000 1.0
C      1  0.4593560000000  0.4787470000000  0.5071850000000 1.0
C      1  0.4921200000000  0.5290270000000  0.5644470000000 1.0
C      1  0.5430030000000  0.4821390000000  0.4841820000000 1.0
C      1  0.5773560000000  0.5154640000000  0.5361010000000 1.0
C      1  0.4552650000000  0.4808690000000  0.4755660000000 1.0
C      1  0.5107920000000  0.4321680000000  0.5185640000000 1.0
C      1  0.5207670000000  0.4987180000000  0.4289870000000 1.0
C      1  0.5104670000000  0.4743920000000  0.4883400000000 1.0
END
