TITL C-2778435-5768-1077 0.00448046246909743 125000 -974.990031403563 0 0 169 (C1) n - 1
REM
REM in /home/nfs/bkarasulu/CARBON/AIRSS/Generating-Clusters/REBO/Only-C1/SD-CG/HFTN-CG
REM
REM
REM
REM
REM
REM ./C.cell (11c1c37f851c82e70ff6c80c92926a4b)
REM
REM compiler GCC version 9.2.1 20190827 (Red Hat 9.2.1-1)
REM options -cpp -mtune=generic -march=x86-64 -g -O0 -fpre-include=/usr/include/finclude/math-vector-fortran.h
REM seed 2054689030 -1395960250 -127634346 -578070807 -1470675000 -77466693 -812094902 1719583025 -1384287443 1184778797 1840109139 24116716 -1243824239 1259913316 724004825 -116077592 -1349188138 543481023 -1540868292 -2123893559 1045988450 961764541 568071410 -1476778754 319358078 -944082464 -570545546 -191677769 -818038836 1363497010 1008138615 -2068119976 -1194957218
REM
CELL 1.54180   50.00000   50.00000   50.00000   90.00000   90.00000   90.00000
LATT -1
SFAC C  
C      1  0.4624070000000  0.5862710000000  0.5104660000000 1.0
C      1  0.5170180000000  0.5186220000000  0.3915870000000 1.0
C      1  0.4614940000000  0.5585180000000  0.5482010000000 1.0
C      1  0.3951420000000  0.4729140000000  0.4823990000000 1.0
C      1  0.4699950000000  0.3940470000000  0.5037060000000 1.0
C      1  0.4604930000000  0.5723930000000  0.4323730000000 1.0
C      1  0.5761790000000  0.5253560000000  0.5393450000000 1.0
C      1  0.5937030000000  0.5410650000000  0.4905240000000 1.0
C      1  0.4983720000000  0.5495940000000  0.4890090000000 1.0
C      1  0.4901420000000  0.5831580000000  0.4454190000000 1.0
C      1  0.4318940000000  0.5780910000000  0.5214130000000 1.0
C      1  0.4987960000000  0.5404730000000  0.4046710000000 1.0
C      1  0.5990870000000  0.5007600000000  0.5328630000000 1.0
C      1  0.5874260000000  0.4951280000000  0.5622030000000 1.0
C      1  0.5365780000000  0.5656620000000  0.5553160000000 1.0
C      1  0.5466890000000  0.4602790000000  0.4834970000000 1.0
C      1  0.4670160000000  0.4758560000000  0.4217850000000 1.0
C      1  0.5412890000000  0.4388670000000  0.5093600000000 1.0
C      1  0.4615570000000  0.5409070000000  0.4760440000000 1.0
C      1  0.5945930000000  0.4678450000000  0.5339960000000 1.0
C      1  0.4123380000000  0.4464970000000  0.5192290000000 1.0
C      1  0.4660020000000  0.5050050000000  0.4042750000000 1.0
C      1  0.5664950000000  0.5522940000000  0.5551330000000 1.0
C      1  0.4560540000000  0.5135620000000  0.4477780000000 1.0
C      1  0.4460140000000  0.5826480000000  0.5627580000000 1.0
C      1  0.4267810000000  0.5563380000000  0.5667970000000 1.0
C      1  0.5100660000000  0.4909470000000  0.5763450000000 1.0
C      1  0.4256560000000  0.4729760000000  0.4345210000000 1.0
C      1  0.5427110000000  0.5346850000000  0.4597220000000 1.0
C      1  0.5585440000000  0.5051210000000  0.5097810000000 1.0
C      1  0.4522930000000  0.5490790000000  0.4190040000000 1.0
C      1  0.5050550000000  0.5541940000000  0.4351790000000 1.0
C      1  0.5512990000000  0.4832020000000  0.4245750000000 1.0
C      1  0.4552740000000  0.5107790000000  0.4810050000000 1.0
C      1  0.5144940000000  0.5044110000000  0.4282770000000 1.0
C      1  0.5897820000000  0.5122500000000  0.5041490000000 1.0
C      1  0.4603460000000  0.4448210000000  0.5464340000000 1.0
C      1  0.4448160000000  0.4740630000000  0.3947930000000 1.0
C      1  0.5499670000000  0.5166440000000  0.5960840000000 1.0
C      1  0.4990910000000  0.4663360000000  0.3920860000000 1.0
C      1  0.5351050000000  0.4774740000000  0.4492920000000 1.0
C      1  0.4134930000000  0.5404570000000  0.4524510000000 1.0
C      1  0.4296350000000  0.5056530000000  0.4983590000000 1.0
C      1  0.4154380000000  0.5515220000000  0.5350440000000 1.0
C      1  0.5331880000000  0.5703870000000  0.5058710000000 1.0
C      1  0.5914770000000  0.5405230000000  0.4616890000000 1.0
C      1  0.4317170000000  0.4437990000000  0.5423530000000 1.0
C      1  0.4588070000000  0.5552860000000  0.5033360000000 1.0
C      1  0.5821600000000  0.4296220000000  0.4677980000000 1.0
C      1  0.4788010000000  0.4772240000000  0.4488630000000 1.0
C      1  0.5095610000000  0.4663350000000  0.4472210000000 1.0
C      1  0.5114310000000  0.5034270000000  0.5344260000000 1.0
C      1  0.4323410000000  0.5581820000000  0.4738190000000 1.0
C      1  0.4781680000000  0.5005360000000  0.4976590000000 1.0
C      1  0.5136940000000  0.4242160000000  0.4983070000000 1.0
C      1  0.5280220000000  0.4372560000000  0.4718340000000 1.0
C      1  0.4962990000000  0.4946990000000  0.4022400000000 1.0
C      1  0.4712500000000  0.5501450000000  0.5966750000000 1.0
C      1  0.4534810000000  0.5424560000000  0.5274320000000 1.0
C      1  0.5374470000000  0.5937160000000  0.5379760000000 1.0
C      1  0.4618140000000  0.4614410000000  0.4701150000000 1.0
C      1  0.4956830000000  0.4334460000000  0.4641320000000 1.0
C      1  0.4122060000000  0.5527770000000  0.5010640000000 1.0
C      1  0.4810910000000  0.5115680000000  0.5940090000000 1.0
C      1  0.4889290000000  0.4787950000000  0.5563820000000 1.0
C      1  0.4766990000000  0.5919830000000  0.5624440000000 1.0
C      1  0.5538080000000  0.5398750000000  0.4906570000000 1.0
C      1  0.5467850000000  0.4198530000000  0.4519830000000 1.0
C      1  0.5011930000000  0.4775370000000  0.4971180000000 1.0
C      1  0.5339470000000  0.4911110000000  0.3895410000000 1.0
C      1  0.4041910000000  0.4803230000000  0.5602040000000 1.0
C      1  0.4858150000000  0.4510680000000  0.4891410000000 1.0
C      1  0.5109280000000  0.5063100000000  0.6077710000000 1.0
C      1  0.4140180000000  0.4771080000000  0.5291200000000 1.0
C      1  0.5454680000000  0.4892960000000  0.5943780000000 1.0
C      1  0.4867490000000  0.5854560000000  0.5328440000000 1.0
C      1  0.4561130000000  0.4464950000000  0.4081230000000 1.0
C      1  0.5504900000000  0.5410810000000  0.5831460000000 1.0
C      1  0.3989840000000  0.4939770000000  0.5055090000000 1.0
C      1  0.4500260000000  0.4488340000000  0.5061610000000 1.0
C      1  0.4128550000000  0.4789320000000  0.4586140000000 1.0
C      1  0.5739110000000  0.4511310000000  0.5535760000000 1.0
C      1  0.4883600000000  0.5525130000000  0.5606310000000 1.0
C      1  0.4919120000000  0.5744810000000  0.5851830000000 1.0
C      1  0.5470810000000  0.4347450000000  0.5429620000000 1.0
C      1  0.3974460000000  0.5396380000000  0.4777590000000 1.0
C      1  0.5399530000000  0.5208860000000  0.4313810000000 1.0
C      1  0.4317200000000  0.4398790000000  0.4849180000000 1.0
C      1  0.5037120000000  0.5302030000000  0.5767010000000 1.0
C      1  0.4449820000000  0.5091120000000  0.5775610000000 1.0
C      1  0.5548710000000  0.4732380000000  0.5681360000000 1.0
C      1  0.4982800000000  0.3994300000000  0.4890390000000 1.0
C      1  0.4966430000000  0.5536390000000  0.5298860000000 1.0
C      1  0.5265570000000  0.5532850000000  0.5274950000000 1.0
C      1  0.4405650000000  0.4484220000000  0.4338940000000 1.0
C      1  0.5145890000000  0.5004750000000  0.4792410000000 1.0
C      1  0.5091350000000  0.4304940000000  0.5314160000000 1.0
C      1  0.4825700000000  0.5748190000000  0.4780070000000 1.0
C      1  0.5836970000000  0.4574870000000  0.4975820000000 1.0
C      1  0.5408060000000  0.4666610000000  0.5377200000000 1.0
C      1  0.5650500000000  0.5753930000000  0.5294170000000 1.0
C      1  0.4945090000000  0.3971770000000  0.5540150000000 1.0
C      1  0.4208410000000  0.5071310000000  0.5546290000000 1.0
C      1  0.5306720000000  0.4041040000000  0.5270050000000 1.0
C      1  0.4432740000000  0.4843070000000  0.5309380000000 1.0
C      1  0.5087930000000  0.4160250000000  0.5683890000000 1.0
C      1  0.5171570000000  0.4735020000000  0.6047550000000 1.0
C      1  0.6001810000000  0.4970830000000  0.4784990000000 1.0
C      1  0.5180740000000  0.4103920000000  0.4408310000000 1.0
C      1  0.4644520000000  0.4465700000000  0.5741720000000 1.0
C      1  0.4876910000000  0.5278130000000  0.5129180000000 1.0
C      1  0.4446160000000  0.3845760000000  0.4871370000000 1.0
C      1  0.5667240000000  0.4541860000000  0.4564720000000 1.0
C      1  0.4795230000000  0.5053040000000  0.5372090000000 1.0
C      1  0.4166800000000  0.4546370000000  0.5652930000000 1.0
C      1  0.5812930000000  0.4373250000000  0.5230850000000 1.0
C      1  0.4977160000000  0.5037880000000  0.4542100000000 1.0
C      1  0.5214350000000  0.5586780000000  0.5819590000000 1.0
C      1  0.5221810000000  0.5275490000000  0.4928980000000 1.0
C      1  0.5530460000000  0.4435890000000  0.4281560000000 1.0
C      1  0.4931850000000  0.3998790000000  0.4580540000000 1.0
C      1  0.4632280000000  0.4056850000000  0.4708990000000 1.0
C      1  0.5755990000000  0.5617690000000  0.4514170000000 1.0
C      1  0.4902430000000  0.4596410000000  0.5910230000000 1.0
C      1  0.5012950000000  0.4438860000000  0.4023580000000 1.0
C      1  0.5655430000000  0.4875300000000  0.4614110000000 1.0
C      1  0.4709850000000  0.5347540000000  0.4036590000000 1.0
C      1  0.5204350000000  0.5562300000000  0.4651720000000 1.0
C      1  0.4853560000000  0.4531130000000  0.5243690000000 1.0
C      1  0.5448750000000  0.4632710000000  0.4023070000000 1.0
C      1  0.5374790000000  0.5522160000000  0.4242660000000 1.0
C      1  0.4985740000000  0.3931390000000  0.5223920000000 1.0
C      1  0.5126400000000  0.6019980000000  0.5211150000000 1.0
C      1  0.5274020000000  0.5126550000000  0.5606070000000 1.0
C      1  0.5611540000000  0.5653780000000  0.4273400000000 1.0
C      1  0.5723830000000  0.5461600000000  0.5161720000000 1.0
C      1  0.5606020000000  0.4123420000000  0.5127330000000 1.0
C      1  0.4889890000000  0.6013860000000  0.4964500000000 1.0
C      1  0.4639140000000  0.4759250000000  0.5114540000000 1.0
C      1  0.5057270000000  0.6048400000000  0.4667860000000 1.0
C      1  0.4671670000000  0.4847920000000  0.5892080000000 1.0
C      1  0.4121800000000  0.5194050000000  0.5243100000000 1.0
C      1  0.4494920000000  0.5153460000000  0.5374150000000 1.0
C      1  0.4490270000000  0.4312510000000  0.4602040000000 1.0
C      1  0.4021230000000  0.4462350000000  0.4915630000000 1.0
C      1  0.4474670000000  0.5394920000000  0.5832790000000 1.0
C      1  0.4552080000000  0.4824040000000  0.5590430000000 1.0
C      1  0.4544770000000  0.5771470000000  0.4618010000000 1.0
C      1  0.5322840000000  0.5849470000000  0.4687620000000 1.0
C      1  0.4837320000000  0.5330180000000  0.4514630000000 1.0
C      1  0.5637740000000  0.4096300000000  0.4799910000000 1.0
C      1  0.5056050000000  0.4386030000000  0.4315230000000 1.0
C      1  0.5443930000000  0.4915070000000  0.4855040000000 1.0
C      1  0.4347130000000  0.4984960000000  0.4164620000000 1.0
C      1  0.5564740000000  0.5053570000000  0.5583960000000 1.0
C      1  0.5588400000000  0.5684810000000  0.4752890000000 1.0
C      1  0.4316410000000  0.5279310000000  0.4318900000000 1.0
C      1  0.5364280000000  0.4154360000000  0.5648180000000 1.0
C      1  0.5565160000000  0.5906990000000  0.5000250000000 1.0
C      1  0.5642940000000  0.4752560000000  0.5194150000000 1.0
C      1  0.4349050000000  0.4767790000000  0.4815810000000 1.0
C      1  0.5279860000000  0.6078310000000  0.4928100000000 1.0
C      1  0.5137700000000  0.4737640000000  0.5259390000000 1.0
C      1  0.5995640000000  0.4699970000000  0.4801780000000 1.0
C      1  0.5684040000000  0.5072840000000  0.4268530000000 1.0
C      1  0.4929600000000  0.5344690000000  0.6149750000000 1.0
C      1  0.5347630000000  0.5226640000000  0.5226020000000 1.0
C      1  0.5015010000000  0.4473310000000  0.5604610000000 1.0
C      1  0.5877520000000  0.5111460000000  0.4519770000000 1.0
END
