TITL C-2778435-5768-848 0.00428622438977724 125000 -517.875730212335 0 0 91 (C1) n - 1
REM
REM in /home/nfs/bkarasulu/CARBON/AIRSS/Generating-Clusters/REBO/Only-C1/SD-CG/HFTN-CG
REM
REM
REM
REM
REM
REM ./C.cell (11c1c37f851c82e70ff6c80c92926a4b)
REM
REM compiler GCC version 9.2.1 20190827 (Red Hat 9.2.1-1)
REM options -cpp -mtune=generic -march=x86-64 -g -O0 -fpre-include=/usr/include/finclude/math-vector-fortran.h
REM seed -595994298 30145473 -1607186325 108272671 -1433925496 -2009876066 -953220873 833724439 -2082682131 1575153788 1762199564 277562546 1302187883 -372848586 -1509860089 -698595069 1895218810 -148849492 1521256396 -624376321 -1438355094 1904011252 -1762595075 -1389460847 -1976535674 -923631332 834456615 1592390943 -411111002 1454039739 242736207 852794462 -289884154
REM
CELL 1.54180   50.00000   50.00000   50.00000   90.00000   90.00000   90.00000
LATT -1
SFAC C  
C      1  0.5130000000000  0.4428740000000  0.5615410000000 1.0
C      1  0.5036430000000  0.5587390000000  0.5646570000000 1.0
C      1  0.5259230000000  0.4333000000000  0.5168500000000 1.0
C      1  0.5129300000000  0.4694750000000  0.4245740000000 1.0
C      1  0.5822440000000  0.5040050000000  0.5216830000000 1.0
C      1  0.5404550000000  0.5303740000000  0.5130360000000 1.0
C      1  0.4844500000000  0.4373810000000  0.5639060000000 1.0
C      1  0.4824190000000  0.5038600000000  0.4045670000000 1.0
C      1  0.5399950000000  0.4396360000000  0.4595480000000 1.0
C      1  0.5490460000000  0.5415190000000  0.5503440000000 1.0
C      1  0.5240920000000  0.4697880000000  0.5629050000000 1.0
C      1  0.4962960000000  0.4962530000000  0.4301430000000 1.0
C      1  0.4731470000000  0.4488600000000  0.5877520000000 1.0
C      1  0.5256580000000  0.4256670000000  0.5428900000000 1.0
C      1  0.4304850000000  0.5605500000000  0.5432660000000 1.0
C      1  0.5572580000000  0.5478990000000  0.4684320000000 1.0
C      1  0.4563320000000  0.4911220000000  0.5321820000000 1.0
C      1  0.5227260000000  0.5104220000000  0.4978390000000 1.0
C      1  0.4486800000000  0.5339130000000  0.4953020000000 1.0
C      1  0.5400200000000  0.4602890000000  0.5116970000000 1.0
C      1  0.5679230000000  0.4583760000000  0.4933290000000 1.0
C      1  0.4592360000000  0.5300460000000  0.4468990000000 1.0
C      1  0.5422890000000  0.5216590000000  0.4529890000000 1.0
C      1  0.4677790000000  0.5557110000000  0.4679350000000 1.0
C      1  0.4354500000000  0.4571310000000  0.4708280000000 1.0
C      1  0.5720210000000  0.4673240000000  0.5480850000000 1.0
C      1  0.4898520000000  0.4526860000000  0.4525420000000 1.0
C      1  0.4559510000000  0.4831160000000  0.4932580000000 1.0
C      1  0.4864650000000  0.4816620000000  0.5566360000000 1.0
C      1  0.5241290000000  0.5550250000000  0.4652690000000 1.0
C      1  0.5078710000000  0.4751100000000  0.4676240000000 1.0
C      1  0.5327580000000  0.5801610000000  0.4955850000000 1.0
C      1  0.4274500000000  0.4857690000000  0.4974800000000 1.0
C      1  0.5192170000000  0.4960280000000  0.5761080000000 1.0
C      1  0.4641080000000  0.5005650000000  0.4398540000000 1.0
C      1  0.4109470000000  0.5275420000000  0.5108090000000 1.0
C      1  0.5683140000000  0.5098270000000  0.4668520000000 1.0
C      1  0.5741640000000  0.5290610000000  0.4916390000000 1.0
C      1  0.4698470000000  0.4432990000000  0.5398250000000 1.0
C      1  0.4557900000000  0.5665710000000  0.4980120000000 1.0
C      1  0.5459870000000  0.4744880000000  0.5388800000000 1.0
C      1  0.4695800000000  0.4671920000000  0.4361300000000 1.0
C      1  0.5678890000000  0.4884230000000  0.4251710000000 1.0
C      1  0.4349660000000  0.5261360000000  0.4674440000000 1.0
C      1  0.5694590000000  0.4866410000000  0.5061340000000 1.0
C      1  0.4154630000000  0.5134820000000  0.5364070000000 1.0
C      1  0.4795170000000  0.4349740000000  0.4761390000000 1.0
C      1  0.5359740000000  0.5159000000000  0.5628790000000 1.0
C      1  0.5249240000000  0.5180460000000  0.4101710000000 1.0
C      1  0.4557760000000  0.5731190000000  0.5314100000000 1.0
C      1  0.5040210000000  0.4203610000000  0.4942730000000 1.0
C      1  0.5028980000000  0.5598150000000  0.5253970000000 1.0
C      1  0.5290820000000  0.5612510000000  0.5470770000000 1.0
C      1  0.4266550000000  0.5547580000000  0.5114830000000 1.0
C      1  0.4900980000000  0.5478070000000  0.4897380000000 1.0
C      1  0.4349790000000  0.5320390000000  0.5556940000000 1.0
C      1  0.5021770000000  0.3927560000000  0.4951890000000 1.0
C      1  0.5760370000000  0.4860810000000  0.4517430000000 1.0
C      1  0.4953740000000  0.5290870000000  0.5632150000000 1.0
C      1  0.5064550000000  0.5755740000000  0.4993390000000 1.0
C      1  0.4610830000000  0.5190130000000  0.5393660000000 1.0
C      1  0.5046150000000  0.5351370000000  0.4157330000000 1.0
C      1  0.5152730000000  0.4417430000000  0.4370810000000 1.0
C      1  0.5363650000000  0.4151690000000  0.4385350000000 1.0
C      1  0.5135280000000  0.5134640000000  0.4481350000000 1.0
C      1  0.4752430000000  0.4673510000000  0.5162800000000 1.0
C      1  0.5431580000000  0.5053810000000  0.5352210000000 1.0
C      1  0.4978110000000  0.5009670000000  0.5138030000000 1.0
C      1  0.5033900000000  0.4714060000000  0.5001760000000 1.0
C      1  0.4529600000000  0.4384790000000  0.4814950000000 1.0
C      1  0.4168860000000  0.5110770000000  0.4876130000000 1.0
C      1  0.4701130000000  0.5106040000000  0.5001510000000 1.0
C      1  0.4979400000000  0.5645410000000  0.4543660000000 1.0
C      1  0.4888640000000  0.5065900000000  0.5876460000000 1.0
C      1  0.5396760000000  0.4861820000000  0.4891470000000 1.0
C      1  0.4450900000000  0.4606300000000  0.5414530000000 1.0
C      1  0.5172410000000  0.4466730000000  0.4809500000000 1.0
C      1  0.5362920000000  0.4922660000000  0.4230800000000 1.0
C      1  0.4634070000000  0.5241340000000  0.5728390000000 1.0
C      1  0.5366160000000  0.4816580000000  0.4554780000000 1.0
C      1  0.4783270000000  0.5669620000000  0.5461170000000 1.0
C      1  0.4766660000000  0.4765870000000  0.5851580000000 1.0
C      1  0.5480530000000  0.5577110000000  0.4971270000000 1.0
C      1  0.4233050000000  0.4833240000000  0.5294710000000 1.0
C      1  0.4973740000000  0.5030940000000  0.5435070000000 1.0
C      1  0.4858470000000  0.5458910000000  0.4338730000000 1.0
C      1  0.4434970000000  0.4760470000000  0.4516360000000 1.0
C      1  0.4799190000000  0.5361570000000  0.5201340000000 1.0
C      1  0.5103490000000  0.5273480000000  0.4763760000000 1.0
C      1  0.5624930000000  0.4601120000000  0.4640770000000 1.0
C      1  0.5709460000000  0.5337820000000  0.5253910000000 1.0
END
