TITL C-2778424-3986-1423 -0.000826879921050498 125000 -154.4304436058 0 0 29 (C1) n - 1
REM
REM in /home/nfs/bkarasulu/CARBON/AIRSS/Generating-Clusters/REBO/Only-C1/SD-CG/HFTN-CG
REM
REM
REM
REM
REM
REM ./C.cell (11c1c37f851c82e70ff6c80c92926a4b)
REM
REM compiler GCC version 9.2.1 20190827 (Red Hat 9.2.1-1)
REM options -cpp -mtune=generic -march=x86-64 -g -O0 -fpre-include=/usr/include/finclude/math-vector-fortran.h
REM seed 1974188610 70801859 312699491 -806291357 -873158884 1935149985 1095338161 1652723701 -512240172 88749302 -1474570881 1025942406 1454671102 915011013 1238132979 -1674320845 543081178 -1319501344 -424323392 999606300 483670437 1528721862 1238108062 830071066 1713734356 -1063886805 576227209 -425605962 -1023256258 1551597015 -1766834532 -188865048 -350741279
REM
CELL 1.54180   50.00000   50.00000   50.00000   90.00000   90.00000   90.00000
LATT -1
SFAC C  
C      1  0.5147710000000  0.5454200000000  0.4872770000000 1.0
C      1  0.4704390000000  0.5131690000000  0.4570800000000 1.0
C      1  0.4653660000000  0.4624820000000  0.4608070000000 1.0
C      1  0.4783760000000  0.5108390000000  0.5184750000000 1.0
C      1  0.5307910000000  0.4757700000000  0.5094130000000 1.0
C      1  0.5290180000000  0.5523700000000  0.5117030000000 1.0
C      1  0.5076750000000  0.4636100000000  0.5518530000000 1.0
C      1  0.4760580000000  0.4629580000000  0.5496110000000 1.0
C      1  0.4940110000000  0.5299850000000  0.4610500000000 1.0
C      1  0.4460410000000  0.5199940000000  0.4752370000000 1.0
C      1  0.5148780000000  0.4546080000000  0.5221000000000 1.0
C      1  0.4835360000000  0.4862820000000  0.5001250000000 1.0
C      1  0.4882730000000  0.4535410000000  0.4549880000000 1.0
C      1  0.5380950000000  0.5434830000000  0.5335530000000 1.0
C      1  0.4603050000000  0.5486850000000  0.4936930000000 1.0
C      1  0.4297860000000  0.5450220000000  0.4825330000000 1.0
C      1  0.5410230000000  0.4922200000000  0.5297070000000 1.0
C      1  0.5136880000000  0.4865690000000  0.4856100000000 1.0
C      1  0.5436630000000  0.4478800000000  0.4588250000000 1.0
C      1  0.4849590000000  0.5558600000000  0.4785100000000 1.0
C      1  0.5390710000000  0.4700100000000  0.4387680000000 1.0
C      1  0.5186950000000  0.5148850000000  0.4759640000000 1.0
C      1  0.5265070000000  0.4860700000000  0.5584820000000 1.0
C      1  0.4846930000000  0.4616350000000  0.5193820000000 1.0
C      1  0.4674610000000  0.5333940000000  0.5185050000000 1.0
C      1  0.5329500000000  0.5106370000000  0.5795320000000 1.0
C      1  0.4638680000000  0.4879200000000  0.4761740000000 1.0
C      1  0.5409060000000  0.5185120000000  0.5482450000000 1.0
C      1  0.5151000000000  0.4661890000000  0.4628020000000 1.0
END
