TITL C-2778431-5191-864 0.00113993528607418 125000 -574.904144694338 0 0 98 (C1) n - 1
REM
REM in /home/nfs/bkarasulu/CARBON/AIRSS/Generating-Clusters/REBO/Only-C1/SD-CG/HFTN-CG
REM
REM
REM
REM
REM
REM ./C.cell (11c1c37f851c82e70ff6c80c92926a4b)
REM
REM compiler GCC version 9.2.1 20190827 (Red Hat 9.2.1-1)
REM options -cpp -mtune=generic -march=x86-64 -g -O0 -fpre-include=/usr/include/finclude/math-vector-fortran.h
REM seed -2063397648 -818735462 -987019948 1039077825 797842757 1863395123 762595600 -82707697 253453493 -795971134 -592335445 -205848683 1575200064 1882964801 -429440127 -300806495 -1896212690 -302255329 1330489822 700601305 1628572118 2020192210 -516031101 -441192799 452460172 -2014429658 -548124252 1605655954 -1406441989 2100662531 -1248713430 -1669866989 1595624891
REM
CELL 1.54180   50.00000   50.00000   50.00000   90.00000   90.00000   90.00000
LATT -1
SFAC C  
C      1  0.5266200000000  0.4314520000000  0.4623150000000 1.0
C      1  0.5072730000000  0.4566780000000  0.4732080000000 1.0
C      1  0.4933960000000  0.5255570000000  0.4773510000000 1.0
C      1  0.5346820000000  0.4949900000000  0.4517010000000 1.0
C      1  0.5748250000000  0.5276680000000  0.4494960000000 1.0
C      1  0.4478500000000  0.4359760000000  0.5335530000000 1.0
C      1  0.5694650000000  0.5030710000000  0.5269320000000 1.0
C      1  0.5276540000000  0.5185470000000  0.4311250000000 1.0
C      1  0.4360440000000  0.5048350000000  0.4197000000000 1.0
C      1  0.5008930000000  0.5810830000000  0.5005620000000 1.0
C      1  0.4308220000000  0.4893630000000  0.5727970000000 1.0
C      1  0.5380320000000  0.5531370000000  0.5690620000000 1.0
C      1  0.4963100000000  0.5105740000000  0.5963350000000 1.0
C      1  0.5025560000000  0.4728520000000  0.4431880000000 1.0
C      1  0.5085290000000  0.5739090000000  0.4375790000000 1.0
C      1  0.5305230000000  0.4728260000000  0.5209040000000 1.0
C      1  0.5464850000000  0.5408600000000  0.4388410000000 1.0
C      1  0.4461880000000  0.5423070000000  0.4614740000000 1.0
C      1  0.5311320000000  0.5668520000000  0.4510310000000 1.0
C      1  0.5180710000000  0.5318490000000  0.5443680000000 1.0
C      1  0.4831710000000  0.4858180000000  0.5125560000000 1.0
C      1  0.4781050000000  0.5307090000000  0.5772980000000 1.0
C      1  0.5080270000000  0.4917240000000  0.4223410000000 1.0
C      1  0.5194310000000  0.5669560000000  0.5251990000000 1.0
C      1  0.4847490000000  0.5065360000000  0.4077950000000 1.0
C      1  0.5061910000000  0.5588500000000  0.5620600000000 1.0
C      1  0.4682170000000  0.4264370000000  0.4760450000000 1.0
C      1  0.4918760000000  0.4090550000000  0.4937610000000 1.0
C      1  0.4146660000000  0.4750300000000  0.5158520000000 1.0
C      1  0.5782070000000  0.4551690000000  0.4991000000000 1.0
C      1  0.5381250000000  0.4800990000000  0.4824400000000 1.0
C      1  0.4805480000000  0.5670900000000  0.4877390000000 1.0
C      1  0.4744410000000  0.5690550000000  0.5553860000000 1.0
C      1  0.4549150000000  0.4718600000000  0.5739360000000 1.0
C      1  0.4097920000000  0.4765250000000  0.4681170000000 1.0
C      1  0.5611260000000  0.4791090000000  0.4410730000000 1.0
C      1  0.5555460000000  0.5263720000000  0.4975840000000 1.0
C      1  0.4576550000000  0.5035120000000  0.4024210000000 1.0
C      1  0.4994320000000  0.4535920000000  0.5625380000000 1.0
C      1  0.5573210000000  0.5453970000000  0.4712750000000 1.0
C      1  0.5486630000000  0.5715800000000  0.5082450000000 1.0
C      1  0.4653920000000  0.5009930000000  0.5884220000000 1.0
C      1  0.4487650000000  0.5117930000000  0.5297080000000 1.0
C      1  0.5414480000000  0.4977540000000  0.5216130000000 1.0
C      1  0.4736080000000  0.5028890000000  0.4893690000000 1.0
C      1  0.5040320000000  0.4327950000000  0.4295010000000 1.0
C      1  0.4209190000000  0.5180040000000  0.4913100000000 1.0
C      1  0.5605300000000  0.4507710000000  0.4435710000000 1.0
C      1  0.4820470000000  0.5613800000000  0.5860530000000 1.0
C      1  0.4298410000000  0.4893030000000  0.4482240000000 1.0
C      1  0.5049070000000  0.4652320000000  0.5044210000000 1.0
C      1  0.4894280000000  0.5531750000000  0.4350640000000 1.0
C      1  0.4581460000000  0.4832300000000  0.5355810000000 1.0
C      1  0.5745140000000  0.5001560000000  0.4580690000000 1.0
C      1  0.4845960000000  0.4482680000000  0.5259410000000 1.0
C      1  0.4985710000000  0.5302130000000  0.4211370000000 1.0
C      1  0.5640440000000  0.4987780000000  0.4876050000000 1.0
C      1  0.4588430000000  0.5568750000000  0.5089230000000 1.0
C      1  0.4537040000000  0.4705670000000  0.4561170000000 1.0
C      1  0.5493170000000  0.5558650000000  0.5384580000000 1.0
C      1  0.4685950000000  0.4507840000000  0.5562300000000 1.0
C      1  0.4873840000000  0.4968020000000  0.5430150000000 1.0
C      1  0.4762530000000  0.5474930000000  0.4614960000000 1.0
C      1  0.4548080000000  0.5563990000000  0.5403430000000 1.0
C      1  0.4397420000000  0.5189470000000  0.5744140000000 1.0
C      1  0.6012270000000  0.5626490000000  0.4984980000000 1.0
C      1  0.4451660000000  0.4447850000000  0.4661270000000 1.0
C      1  0.4083730000000  0.4913150000000  0.4927130000000 1.0
C      1  0.5040970000000  0.4215420000000  0.5231370000000 1.0
C      1  0.4347240000000  0.5479200000000  0.4881340000000 1.0
C      1  0.4168460000000  0.4482270000000  0.4706240000000 1.0
C      1  0.4666910000000  0.4251280000000  0.5094490000000 1.0
C      1  0.5096230000000  0.4965770000000  0.4738200000000 1.0
C      1  0.5196510000000  0.4066970000000  0.4771900000000 1.0
C      1  0.4792230000000  0.4834450000000  0.4640270000000 1.0
C      1  0.4365630000000  0.4636930000000  0.5300010000000 1.0
C      1  0.4898380000000  0.5496060000000  0.5224280000000 1.0
C      1  0.4354360000000  0.5225300000000  0.4459760000000 1.0
C      1  0.5308660000000  0.5613420000000  0.4833910000000 1.0
C      1  0.5389550000000  0.4519070000000  0.5381750000000 1.0
C      1  0.4450580000000  0.5312600000000  0.5493520000000 1.0
C      1  0.5380790000000  0.5190840000000  0.5688910000000 1.0
C      1  0.5276200000000  0.5253010000000  0.5165500000000 1.0
C      1  0.5058450000000  0.4814440000000  0.5618280000000 1.0
C      1  0.5175260000000  0.4990720000000  0.5809570000000 1.0
C      1  0.5275160000000  0.4252910000000  0.5015190000000 1.0
C      1  0.4864140000000  0.5271850000000  0.5478250000000 1.0
C      1  0.5687210000000  0.4426820000000  0.4699850000000 1.0
C      1  0.5354730000000  0.4360490000000  0.4330400000000 1.0
C      1  0.5453360000000  0.4485960000000  0.4930380000000 1.0
C      1  0.5637100000000  0.5082940000000  0.5661650000000 1.0
C      1  0.5167520000000  0.4368480000000  0.5480190000000 1.0
C      1  0.5749660000000  0.5522740000000  0.5081220000000 1.0
C      1  0.5722570000000  0.5311120000000  0.5334710000000 1.0
C      1  0.4490290000000  0.5141210000000  0.5020620000000 1.0
C      1  0.5829630000000  0.4821570000000  0.5077260000000 1.0
C      1  0.4884910000000  0.4371070000000  0.4526520000000 1.0
C      1  0.5099780000000  0.5414330000000  0.4962390000000 1.0
END
