TITL C-2778423-5760-973 0.00248105223550779 125000 -955.316301607921 0 0 159 (C1) n - 1
REM
REM in /home/nfs/bkarasulu/CARBON/AIRSS/Generating-Clusters/REBO/Only-C1/SD-CG/HFTN-CG
REM
REM
REM
REM
REM
REM ./C.cell (11c1c37f851c82e70ff6c80c92926a4b)
REM
REM compiler GCC version 9.2.1 20190827 (Red Hat 9.2.1-1)
REM options -cpp -mtune=generic -march=x86-64 -g -O0 -fpre-include=/usr/include/finclude/math-vector-fortran.h
REM seed -1779074017 -169959325 653889211 701030296 -2087052896 -819084794 1005561194 857345896 -1966946520 523507304 1969528160 -811866316 -160359006 -292066738 388452032 -1174977732 2040573931 -1641577887 549906077 48745412 421533883 2121804147 -1649459632 -1795466114 2137705092 -882022587 249887031 -1534818964 -1871945299 490737405 -1483097759 846369445 -1283967691
REM
CELL 1.54180   50.00000   50.00000   50.00000   90.00000   90.00000   90.00000
LATT -1
SFAC C  
C      1  0.4641720000000  0.5211370000000  0.4901770000000 1.0
C      1  0.5358800000000  0.4355810000000  0.4257340000000 1.0
C      1  0.5393370000000  0.6030680000000  0.5077700000000 1.0
C      1  0.5403920000000  0.4965470000000  0.5968520000000 1.0
C      1  0.5909080000000  0.5301850000000  0.5008030000000 1.0
C      1  0.5564190000000  0.5110810000000  0.4860150000000 1.0
C      1  0.4390030000000  0.5337580000000  0.4995960000000 1.0
C      1  0.4644020000000  0.5523840000000  0.5383820000000 1.0
C      1  0.4907740000000  0.4363570000000  0.5275600000000 1.0
C      1  0.4069460000000  0.5029980000000  0.4762850000000 1.0
C      1  0.5156950000000  0.4786610000000  0.5995750000000 1.0
C      1  0.5041870000000  0.5268490000000  0.5258690000000 1.0
C      1  0.4583050000000  0.5927750000000  0.5075990000000 1.0
C      1  0.5382400000000  0.5796420000000  0.4657410000000 1.0
C      1  0.5312470000000  0.3923000000000  0.4999370000000 1.0
C      1  0.5705530000000  0.5440510000000  0.5761760000000 1.0
C      1  0.4018930000000  0.4825250000000  0.5320720000000 1.0
C      1  0.5280660000000  0.4672500000000  0.4523670000000 1.0
C      1  0.4826690000000  0.4344970000000  0.4265760000000 1.0
C      1  0.5052350000000  0.5778030000000  0.5363860000000 1.0
C      1  0.5618180000000  0.4555710000000  0.4700370000000 1.0
C      1  0.5017170000000  0.4953150000000  0.3949060000000 1.0
C      1  0.4989500000000  0.4371600000000  0.4687780000000 1.0
C      1  0.4964930000000  0.4671010000000  0.4783690000000 1.0
C      1  0.4633790000000  0.4060640000000  0.4660530000000 1.0
C      1  0.5839680000000  0.4739050000000  0.5072200000000 1.0
C      1  0.3895670000000  0.4900860000000  0.5002040000000 1.0
C      1  0.4926060000000  0.5670620000000  0.4236000000000 1.0
C      1  0.4334790000000  0.5808750000000  0.5025840000000 1.0
C      1  0.5106990000000  0.5914580000000  0.4731100000000 1.0
C      1  0.4469540000000  0.4292990000000  0.5366300000000 1.0
C      1  0.5070900000000  0.4868340000000  0.5313620000000 1.0
C      1  0.4327370000000  0.5528620000000  0.4419750000000 1.0
C      1  0.5517160000000  0.5157160000000  0.5378090000000 1.0
C      1  0.5225670000000  0.5641420000000  0.4181020000000 1.0
C      1  0.4864930000000  0.4565380000000  0.5717050000000 1.0
C      1  0.5301610000000  0.5383580000000  0.5370650000000 1.0
C      1  0.4591930000000  0.5748090000000  0.5565990000000 1.0
C      1  0.5280150000000  0.4079530000000  0.5440760000000 1.0
C      1  0.3919410000000  0.5297230000000  0.5045470000000 1.0
C      1  0.4775040000000  0.5694400000000  0.5789340000000 1.0
C      1  0.4788730000000  0.4174240000000  0.5687070000000 1.0
C      1  0.4637760000000  0.5052620000000  0.4619800000000 1.0
C      1  0.5310600000000  0.5280170000000  0.6028310000000 1.0
C      1  0.5701920000000  0.4921330000000  0.5810480000000 1.0
C      1  0.4695670000000  0.4930030000000  0.4342870000000 1.0
C      1  0.4740260000000  0.5369690000000  0.4551610000000 1.0
C      1  0.5626290000000  0.4307580000000  0.4392890000000 1.0
C      1  0.4648200000000  0.4754350000000  0.4733910000000 1.0
C      1  0.5471180000000  0.4592200000000  0.5433860000000 1.0
C      1  0.4163930000000  0.4519830000000  0.4526350000000 1.0
C      1  0.4310010000000  0.5304880000000  0.5693050000000 1.0
C      1  0.4903890000000  0.4586710000000  0.4057020000000 1.0
C      1  0.5792210000000  0.4389430000000  0.5558470000000 1.0
C      1  0.4803940000000  0.4707770000000  0.5450030000000 1.0
C      1  0.4612310000000  0.4963930000000  0.5929050000000 1.0
C      1  0.5316280000000  0.4408990000000  0.5660260000000 1.0
C      1  0.5475460000000  0.5400130000000  0.4989720000000 1.0
C      1  0.4550350000000  0.5212540000000  0.4100290000000 1.0
C      1  0.4221780000000  0.4757990000000  0.4392310000000 1.0
C      1  0.5468750000000  0.5111470000000  0.4053140000000 1.0
C      1  0.4199940000000  0.5737880000000  0.5272750000000 1.0
C      1  0.5315870000000  0.5699770000000  0.5288110000000 1.0
C      1  0.5434060000000  0.5750740000000  0.4344510000000 1.0
C      1  0.4877620000000  0.5849250000000  0.4509350000000 1.0
C      1  0.5341930000000  0.4594190000000  0.4084970000000 1.0
C      1  0.4750370000000  0.5440600000000  0.5932270000000 1.0
C      1  0.4388910000000  0.4277530000000  0.4591340000000 1.0
C      1  0.4706440000000  0.4545620000000  0.5171210000000 1.0
C      1  0.5762510000000  0.5380750000000  0.4356470000000 1.0
C      1  0.4100820000000  0.4400450000000  0.5033070000000 1.0
C      1  0.5585740000000  0.4907260000000  0.5076180000000 1.0
C      1  0.5069290000000  0.4179100000000  0.5678010000000 1.0
C      1  0.4114270000000  0.5406150000000  0.4889320000000 1.0
C      1  0.5364830000000  0.4862670000000  0.5301690000000 1.0
C      1  0.5402150000000  0.4469740000000  0.5123930000000 1.0
C      1  0.4603780000000  0.5718270000000  0.4355500000000 1.0
C      1  0.5036800000000  0.5746510000000  0.5668630000000 1.0
C      1  0.4400790000000  0.4453650000000  0.5088400000000 1.0
C      1  0.4346170000000  0.5273340000000  0.5297330000000 1.0
C      1  0.4534940000000  0.5244740000000  0.5870640000000 1.0
C      1  0.5614390000000  0.5604490000000  0.5215420000000 1.0
C      1  0.4924240000000  0.5087190000000  0.4216220000000 1.0
C      1  0.5388530000000  0.5118790000000  0.5671150000000 1.0
C      1  0.4160750000000  0.5078980000000  0.5591350000000 1.0
C      1  0.5441440000000  0.5468350000000  0.5857850000000 1.0
C      1  0.5586110000000  0.5795580000000  0.4930900000000 1.0
C      1  0.4841550000000  0.4085840000000  0.4452280000000 1.0
C      1  0.5158920000000  0.4212050000000  0.4439220000000 1.0
C      1  0.4030530000000  0.5149650000000  0.5295830000000 1.0
C      1  0.4597270000000  0.5629190000000  0.4685770000000 1.0
C      1  0.5814690000000  0.5570860000000  0.4876780000000 1.0
C      1  0.4883550000000  0.5681500000000  0.4809130000000 1.0
C      1  0.4958050000000  0.5441420000000  0.4983280000000 1.0
C      1  0.5421490000000  0.5248720000000  0.4512910000000 1.0
C      1  0.5610360000000  0.4237650000000  0.4710710000000 1.0
C      1  0.5778470000000  0.4898160000000  0.4386830000000 1.0
C      1  0.6008190000000  0.5126990000000  0.4801690000000 1.0
C      1  0.5594290000000  0.4649800000000  0.4389570000000 1.0
C      1  0.4494400000000  0.4578810000000  0.5506930000000 1.0
C      1  0.4285560000000  0.4955130000000  0.4964210000000 1.0
C      1  0.4856200000000  0.5620500000000  0.5224060000000 1.0
C      1  0.4972610000000  0.5165450000000  0.4804700000000 1.0
C      1  0.3929210000000  0.4598980000000  0.5096010000000 1.0
C      1  0.5062600000000  0.5392160000000  0.4600350000000 1.0
C      1  0.5308370000000  0.5374780000000  0.4054020000000 1.0
C      1  0.5748210000000  0.4723130000000  0.5568070000000 1.0
C      1  0.5707720000000  0.5354390000000  0.4668250000000 1.0
C      1  0.5049690000000  0.4587000000000  0.4356290000000 1.0
C      1  0.4443840000000  0.4740810000000  0.4948920000000 1.0
C      1  0.4526080000000  0.4436420000000  0.4323120000000 1.0
C      1  0.4728510000000  0.4015800000000  0.4928100000000 1.0
C      1  0.5144620000000  0.4921820000000  0.4805100000000 1.0
C      1  0.4176350000000  0.5030070000000  0.4480410000000 1.0
C      1  0.4473430000000  0.4721980000000  0.4226620000000 1.0
C      1  0.5691950000000  0.5644830000000  0.4274300000000 1.0
C      1  0.5339030000000  0.5496470000000  0.4729530000000 1.0
C      1  0.4636140000000  0.5203270000000  0.5406340000000 1.0
C      1  0.4282340000000  0.5628840000000  0.4744090000000 1.0
C      1  0.4465900000000  0.4705800000000  0.5820590000000 1.0
C      1  0.5887380000000  0.4868140000000  0.5333000000000 1.0
C      1  0.4869200000000  0.4788660000000  0.5065260000000 1.0
C      1  0.5354330000000  0.4654120000000  0.4863780000000 1.0
C      1  0.5003170000000  0.5318440000000  0.5995830000000 1.0
C      1  0.5566680000000  0.4224210000000  0.5554600000000 1.0
C      1  0.4230560000000  0.4767620000000  0.5581050000000 1.0
C      1  0.5115890000000  0.3882450000000  0.5230690000000 1.0
C      1  0.5122390000000  0.4567940000000  0.5828010000000 1.0
C      1  0.5822480000000  0.5176840000000  0.5286480000000 1.0
C      1  0.5406160000000  0.4963730000000  0.4620240000000 1.0
C      1  0.4678620000000  0.4745450000000  0.3989680000000 1.0
C      1  0.4687000000000  0.5030390000000  0.3902090000000 1.0
C      1  0.5124810000000  0.6051580000000  0.5003260000000 1.0
C      1  0.4780690000000  0.5078990000000  0.5140940000000 1.0
C      1  0.4891710000000  0.4937580000000  0.5987350000000 1.0
C      1  0.5701890000000  0.5124360000000  0.4231690000000 1.0
C      1  0.5933670000000  0.4907350000000  0.4635640000000 1.0
C      1  0.5078120000000  0.5099250000000  0.5760360000000 1.0
C      1  0.4661610000000  0.4093880000000  0.5435970000000 1.0
C      1  0.5870260000000  0.4679480000000  0.4799300000000 1.0
C      1  0.4660910000000  0.5979590000000  0.5388290000000 1.0
C      1  0.5776900000000  0.5534720000000  0.5458520000000 1.0
C      1  0.4924470000000  0.5084120000000  0.5511130000000 1.0
C      1  0.5211160000000  0.4041190000000  0.4713410000000 1.0
C      1  0.4324700000000  0.5251010000000  0.4318250000000 1.0
C      1  0.5987130000000  0.5290770000000  0.5532050000000 1.0
C      1  0.5859650000000  0.5165460000000  0.5797410000000 1.0
C      1  0.5297060000000  0.4871550000000  0.3990840000000 1.0
C      1  0.5010210000000  0.4174660000000  0.4939010000000 1.0
C      1  0.5158160000000  0.5271860000000  0.4318330000000 1.0
C      1  0.4677740000000  0.4454970000000  0.4618780000000 1.0
C      1  0.4784620000000  0.5386310000000  0.4234710000000 1.0
C      1  0.4254160000000  0.5535500000000  0.5468700000000 1.0
C      1  0.4634800000000  0.4409080000000  0.5838860000000 1.0
C      1  0.5487240000000  0.4178910000000  0.4966500000000 1.0
C      1  0.5264820000000  0.5556460000000  0.5655610000000 1.0
C      1  0.5172680000000  0.4273260000000  0.5194620000000 1.0
C      1  0.4877010000000  0.6057300000000  0.5138060000000 1.0
C      1  0.4823920000000  0.3959850000000  0.5219200000000 1.0
END
