TITL C-2778427-5640-758 0.00785330033086949 125000 -306.723240546238 0 0 54 (C1) n - 1
REM
REM in /home/nfs/bkarasulu/CARBON/AIRSS/Generating-Clusters/REBO/Only-C1/SD-CG/HFTN-CG
REM
REM
REM
REM
REM
REM ./C.cell (11c1c37f851c82e70ff6c80c92926a4b)
REM
REM compiler GCC version 9.2.1 20190827 (Red Hat 9.2.1-1)
REM options -cpp -mtune=generic -march=x86-64 -g -O0 -fpre-include=/usr/include/finclude/math-vector-fortran.h
REM seed -1682413421 481263876 -1901918404 1169559467 577822701 1939502546 90383302 240074877 1476430444 1662125583 636852408 -464057301 -234256550 1456243422 -466141749 -623870526 1127784807 1163434077 1960553823 -352351083 -2013262418 1797634498 -1863483180 -1140004863 1406183488 -2086419271 490733919 -169768374 -334142398 -1925284671 -264249439 -1992061330 814642566
REM
CELL 1.54180   50.00000   50.00000   50.00000   90.00000   90.00000   90.00000
LATT -1
SFAC C  
C      1  0.5539940000000  0.5668550000000  0.4752560000000 1.0
C      1  0.4639470000000  0.5330180000000  0.4522630000000 1.0
C      1  0.4690860000000  0.4758710000000  0.4865720000000 1.0
C      1  0.4846400000000  0.4534310000000  0.5524470000000 1.0
C      1  0.5382050000000  0.4857270000000  0.5152870000000 1.0
C      1  0.4916900000000  0.4637100000000  0.4379580000000 1.0
C      1  0.5260430000000  0.5719110000000  0.4702930000000 1.0
C      1  0.5170500000000  0.4471640000000  0.4542020000000 1.0
C      1  0.4427720000000  0.4493780000000  0.5211840000000 1.0
C      1  0.5684130000000  0.5232000000000  0.5011780000000 1.0
C      1  0.5473980000000  0.4605550000000  0.5448610000000 1.0
C      1  0.5587490000000  0.4853340000000  0.5507240000000 1.0
C      1  0.5101270000000  0.4875570000000  0.5204390000000 1.0
C      1  0.4296370000000  0.4990380000000  0.5047900000000 1.0
C      1  0.4321330000000  0.4788900000000  0.5301340000000 1.0
C      1  0.5150930000000  0.5092500000000  0.4872340000000 1.0
C      1  0.4485150000000  0.5554620000000  0.4950090000000 1.0
C      1  0.4534570000000  0.4968590000000  0.5501750000000 1.0
C      1  0.4392700000000  0.5177790000000  0.5273360000000 1.0
C      1  0.4474320000000  0.5111460000000  0.4592270000000 1.0
C      1  0.4830090000000  0.5036320000000  0.5583190000000 1.0
C      1  0.4884950000000  0.4956480000000  0.4992300000000 1.0
C      1  0.4795200000000  0.5267100000000  0.5016860000000 1.0
C      1  0.4941320000000  0.5291000000000  0.5531920000000 1.0
C      1  0.5021730000000  0.4208090000000  0.5121400000000 1.0
C      1  0.4491740000000  0.5433950000000  0.5210530000000 1.0
C      1  0.4703960000000  0.5410690000000  0.4267230000000 1.0
C      1  0.4281890000000  0.5707160000000  0.4843100000000 1.0
C      1  0.4741240000000  0.4625140000000  0.4172450000000 1.0
C      1  0.5430790000000  0.4661300000000  0.4491390000000 1.0
C      1  0.4565560000000  0.4627730000000  0.5483200000000 1.0
C      1  0.5473960000000  0.5367100000000  0.5416920000000 1.0
C      1  0.5742100000000  0.5054210000000  0.4802360000000 1.0
C      1  0.4742930000000  0.5473410000000  0.4767250000000 1.0
C      1  0.4762680000000  0.4263060000000  0.4946950000000 1.0
C      1  0.5057620000000  0.4307530000000  0.4798210000000 1.0
C      1  0.5007400000000  0.4815170000000  0.5491060000000 1.0
C      1  0.5060620000000  0.5551430000000  0.4810800000000 1.0
C      1  0.5160280000000  0.4839780000000  0.4395210000000 1.0
C      1  0.4849380000000  0.4554710000000  0.4687740000000 1.0
C      1  0.5601150000000  0.5509130000000  0.4989230000000 1.0
C      1  0.5499470000000  0.4570410000000  0.5146440000000 1.0
C      1  0.5733880000000  0.5743270000000  0.4576980000000 1.0
C      1  0.5567700000000  0.4896500000000  0.4653970000000 1.0
C      1  0.5193990000000  0.4545060000000  0.5541190000000 1.0
C      1  0.5036400000000  0.4292150000000  0.5384560000000 1.0
C      1  0.4784540000000  0.5452460000000  0.5302750000000 1.0
C      1  0.4445710000000  0.4937270000000  0.4812260000000 1.0
C      1  0.5271410000000  0.4994040000000  0.4637650000000 1.0
C      1  0.5106370000000  0.5379690000000  0.5260560000000 1.0
C      1  0.4592840000000  0.4477010000000  0.4984400000000 1.0
C      1  0.5183530000000  0.5352490000000  0.4988000000000 1.0
C      1  0.5568200000000  0.5092840000000  0.5280570000000 1.0
C      1  0.5492870000000  0.5584980000000  0.5245680000000 1.0
END
