TITL C-2778424-3986-351 -0.112090206489343 125000 -735.471737703034 0 0 127 (C1) n - 1
REM
REM in /home/nfs/bkarasulu/CARBON/AIRSS/Generating-Clusters/REBO/Only-C1/SD-CG/HFTN-CG
REM
REM
REM
REM
REM
REM ./C.cell (11c1c37f851c82e70ff6c80c92926a4b)
REM
REM compiler GCC version 9.2.1 20190827 (Red Hat 9.2.1-1)
REM options -cpp -mtune=generic -march=x86-64 -g -O0 -fpre-include=/usr/include/finclude/math-vector-fortran.h
REM seed -1670344422 -481352636 -2129112859 -1169688901 1319852405 6842872 446644333 497425966 1152451837 189897699 -1137465368 1657578046 -241923267 1458457225 415982995 2140941696 -1898395085 -1998383463 -975739337 2005894745 -1309730369 -1206768209 2112216856 1547720641 -630744464 -1428770177 -628798032 -446054877 550568142 241578677 -45888834 997139994 1869280545
REM
CELL 1.54180   50.00000   50.00000   50.00000   90.00000   90.00000   90.00000
LATT -1
SFAC C  
C      1  0.4892380000000  0.5800250000000  0.5233760000000 1.0
C      1  0.4965290000000  0.5405930000000  0.5703700000000 1.0
C      1  0.4612480000000  0.4685570000000  0.5653020000000 1.0
C      1  0.4101350000000  0.5401270000000  0.4923410000000 1.0
C      1  0.5251790000000  0.4728800000000  0.4130690000000 1.0
C      1  0.4419910000000  0.4277520000000  0.4686600000000 1.0
C      1  0.5396590000000  0.5905400000000  0.5223670000000 1.0
C      1  0.4271970000000  0.4638860000000  0.5591020000000 1.0
C      1  0.5457970000000  0.5284590000000  0.5670060000000 1.0
C      1  0.5578150000000  0.5605980000000  0.4396720000000 1.0
C      1  0.4888280000000  0.4503990000000  0.5661140000000 1.0
C      1  0.4794650000000  0.6030950000000  0.4780370000000 1.0
C      1  0.5207610000000  0.5243230000000  0.5781370000000 1.0
C      1  0.5536070000000  0.4113470000000  0.4706250000000 1.0
C      1  0.4870180000000  0.5386360000000  0.4171500000000 1.0
C      1  0.4008710000000  0.4903550000000  0.4966270000000 1.0
C      1  0.4596850000000  0.5820380000000  0.4917660000000 1.0
C      1  0.4756870000000  0.5078800000000  0.4698260000000 1.0
C      1  0.5072120000000  0.5881010000000  0.5706270000000 1.0
C      1  0.5148290000000  0.4338270000000  0.4862310000000 1.0
C      1  0.4914180000000  0.5677570000000  0.4916240000000 1.0
C      1  0.4445360000000  0.5713800000000  0.5122100000000 1.0
C      1  0.5629150000000  0.4983890000000  0.4680620000000 1.0
C      1  0.5525560000000  0.4680780000000  0.4722420000000 1.0
C      1  0.4739900000000  0.4041730000000  0.4891530000000 1.0
C      1  0.4685060000000  0.4845640000000  0.4036730000000 1.0
C      1  0.5168450000000  0.5358510000000  0.3767120000000 1.0
C      1  0.4523050000000  0.4829610000000  0.4307150000000 1.0
C      1  0.5172470000000  0.5844740000000  0.4450640000000 1.0
C      1  0.4559800000000  0.4956220000000  0.5826160000000 1.0
C      1  0.5275270000000  0.6038900000000  0.4995460000000 1.0
C      1  0.4985070000000  0.4083690000000  0.5347230000000 1.0
C      1  0.5733550000000  0.4512650000000  0.4507210000000 1.0
C      1  0.4401410000000  0.4728370000000  0.5224800000000 1.0
C      1  0.5842950000000  0.5348760000000  0.4701330000000 1.0
C      1  0.5745240000000  0.4905390000000  0.5186770000000 1.0
C      1  0.5172180000000  0.5832780000000  0.4758100000000 1.0
C      1  0.4373000000000  0.5168940000000  0.4445630000000 1.0
C      1  0.4920140000000  0.5430630000000  0.4505290000000 1.0
C      1  0.3999820000000  0.4653230000000  0.4521730000000 1.0
C      1  0.5130360000000  0.4920600000000  0.5442780000000 1.0
C      1  0.4347870000000  0.4491210000000  0.5014540000000 1.0
C      1  0.4480340000000  0.4744000000000  0.4837570000000 1.0
C      1  0.5196070000000  0.5216530000000  0.4947360000000 1.0
C      1  0.5681680000000  0.4828930000000  0.4388770000000 1.0
C      1  0.5010850000000  0.4080380000000  0.5036190000000 1.0
C      1  0.5372710000000  0.4763820000000  0.5715620000000 1.0
C      1  0.5289610000000  0.5048340000000  0.4158090000000 1.0
C      1  0.5963900000000  0.4650150000000  0.5240920000000 1.0
C      1  0.3938880000000  0.4574890000000  0.4749830000000 1.0
C      1  0.5709850000000  0.5325500000000  0.4387760000000 1.0
C      1  0.5700930000000  0.4323900000000  0.4760380000000 1.0
C      1  0.4186180000000  0.5632640000000  0.5061740000000 1.0
C      1  0.4871550000000  0.4246900000000  0.4706380000000 1.0
C      1  0.4642120000000  0.4780200000000  0.5356840000000 1.0
C      1  0.5430530000000  0.4854620000000  0.5188480000000 1.0
C      1  0.3777990000000  0.5277180000000  0.5519740000000 1.0
C      1  0.5985370000000  0.4735640000000  0.4915880000000 1.0
C      1  0.5208400000000  0.5474290000000  0.5101750000000 1.0
C      1  0.4267670000000  0.5311250000000  0.4706590000000 1.0
C      1  0.5899650000000  0.5008940000000  0.4834890000000 1.0
C      1  0.5154880000000  0.5007010000000  0.5146930000000 1.0
C      1  0.4705850000000  0.4245050000000  0.5232510000000 1.0
C      1  0.5201480000000  0.4286100000000  0.4347420000000 1.0
C      1  0.5116170000000  0.5220270000000  0.4621120000000 1.0
C      1  0.5303200000000  0.4456250000000  0.4620280000000 1.0
C      1  0.5082970000000  0.4253730000000  0.5622230000000 1.0
C      1  0.5343710000000  0.4074180000000  0.4511290000000 1.0
C      1  0.5568810000000  0.5026400000000  0.5709600000000 1.0
C      1  0.4749070000000  0.5268640000000  0.5283510000000 1.0
C      1  0.4468300000000  0.4196800000000  0.5014350000000 1.0
C      1  0.4641200000000  0.5590610000000  0.5326510000000 1.0
C      1  0.4253120000000  0.5177200000000  0.5517970000000 1.0
C      1  0.4512560000000  0.5337400000000  0.5514620000000 1.0
C      1  0.5196020000000  0.4980220000000  0.5890110000000 1.0
C      1  0.5017760000000  0.5070760000000  0.4361460000000 1.0
C      1  0.4683950000000  0.5136160000000  0.4310900000000 1.0
C      1  0.4218520000000  0.4868260000000  0.4407520000000 1.0
C      1  0.5620200000000  0.5669840000000  0.5173250000000 1.0
C      1  0.4779050000000  0.4735380000000  0.4984850000000 1.0
C      1  0.4998150000000  0.4948310000000  0.6085990000000 1.0
C      1  0.5319330000000  0.5545630000000  0.5401990000000 1.0
C      1  0.5138470000000  0.4458020000000  0.4131280000000 1.0
C      1  0.5879610000000  0.5175390000000  0.5107300000000 1.0
C      1  0.4702990000000  0.5259180000000  0.5767050000000 1.0
C      1  0.5005880000000  0.5434390000000  0.5375750000000 1.0
C      1  0.5150790000000  0.5825450000000  0.5417980000000 1.0
C      1  0.5272410000000  0.3996530000000  0.5506840000000 1.0
C      1  0.5157030000000  0.4621340000000  0.5488860000000 1.0
C      1  0.5841630000000  0.4709140000000  0.5519970000000 1.0
C      1  0.4975020000000  0.5687570000000  0.5835980000000 1.0
C      1  0.4824410000000  0.4987890000000  0.5197890000000 1.0
C      1  0.3982860000000  0.5199240000000  0.5085720000000 1.0
C      1  0.4969910000000  0.6056460000000  0.5020780000000 1.0
C      1  0.4004440000000  0.5225270000000  0.5375580000000 1.0
C      1  0.4214470000000  0.4914160000000  0.4733930000000 1.0
C      1  0.4478030000000  0.5091270000000  0.4821740000000 1.0
C      1  0.5423130000000  0.4265080000000  0.5644980000000 1.0
C      1  0.4662790000000  0.4383090000000  0.4566810000000 1.0
C      1  0.5412620000000  0.4606770000000  0.4985280000000 1.0
C      1  0.5576820000000  0.5103010000000  0.4279380000000 1.0
C      1  0.4190400000000  0.4897580000000  0.5241720000000 1.0
C      1  0.5397570000000  0.5653950000000  0.4913700000000 1.0
C      1  0.4921970000000  0.4929080000000  0.4065600000000 1.0
C      1  0.4758930000000  0.5070090000000  0.6045570000000 1.0
C      1  0.4840810000000  0.4810570000000  0.4680420000000 1.0
C      1  0.5841960000000  0.5230130000000  0.5397710000000 1.0
C      1  0.5839730000000  0.5549990000000  0.4953420000000 1.0
C      1  0.4095050000000  0.4543780000000  0.5401680000000 1.0
C      1  0.5109270000000  0.5275640000000  0.4010970000000 1.0
C      1  0.4027830000000  0.4577020000000  0.5069890000000 1.0
C      1  0.5624570000000  0.5461750000000  0.5442540000000 1.0
C      1  0.4675420000000  0.4306840000000  0.5543370000000 1.0
C      1  0.5535800000000  0.5492760000000  0.4702580000000 1.0
C      1  0.4817190000000  0.5741890000000  0.4600150000000 1.0
C      1  0.5808330000000  0.4991220000000  0.5571120000000 1.0
C      1  0.5171280000000  0.4480130000000  0.5178780000000 1.0
C      1  0.4866460000000  0.4479190000000  0.5102980000000 1.0
C      1  0.5447740000000  0.4599110000000  0.4341400000000 1.0
C      1  0.4299630000000  0.4932560000000  0.5657170000000 1.0
C      1  0.5788420000000  0.4472500000000  0.5007950000000 1.0
C      1  0.4693780000000  0.4653450000000  0.4495930000000 1.0
C      1  0.5559860000000  0.4526550000000  0.5579850000000 1.0
C      1  0.5578520000000  0.4552800000000  0.5265850000000 1.0
C      1  0.4924770000000  0.5699620000000  0.4292240000000 1.0
C      1  0.5415930000000  0.5819430000000  0.4328360000000 1.0
C      1  0.5429570000000  0.5198920000000  0.4711170000000 1.0
END
