TITL C-2778437-8639-621 -0.126149444658396 125000 -711.817007093611 0 0 123 (C1) n - 1
REM
REM in /home/nfs/bkarasulu/CARBON/AIRSS/Generating-Clusters/REBO/Only-C1/SD-CG/HFTN-CG
REM
REM
REM
REM
REM
REM ./C.cell (11c1c37f851c82e70ff6c80c92926a4b)
REM
REM compiler GCC version 9.2.1 20190827 (Red Hat 9.2.1-1)
REM options -cpp -mtune=generic -march=x86-64 -g -O0 -fpre-include=/usr/include/finclude/math-vector-fortran.h
REM seed 408285020 1249622927 -2107914329 1095008797 63132418 -601021729 1681705186 1135433331 469325013 -1710271074 1037671582 -736378056 -1742726866 1437155372 698279219 1489662149 -904931613 1491615267 -672091983 -978943555 -1584647417 -1653714558 689614962 1624103666 -1586048092 -858487675 1134107419 1576668152 1895182489 933488752 458921943 -740112499 851168330
REM
CELL 1.54180   50.00000   50.00000   50.00000   90.00000   90.00000   90.00000
LATT -1
SFAC C  
C      1  0.5723760000000  0.4349070000000  0.4847180000000 1.0
C      1  0.5128410000000  0.4204690000000  0.4402100000000 1.0
C      1  0.5190880000000  0.4375350000000  0.5513050000000 1.0
C      1  0.5562930000000  0.5491560000000  0.4545100000000 1.0
C      1  0.4401210000000  0.4274830000000  0.5320940000000 1.0
C      1  0.4026320000000  0.5143410000000  0.4874650000000 1.0
C      1  0.5736300000000  0.4318260000000  0.5672830000000 1.0
C      1  0.5540620000000  0.4289080000000  0.4597000000000 1.0
C      1  0.5369590000000  0.5430760000000  0.4086600000000 1.0
C      1  0.5414860000000  0.4964760000000  0.5822380000000 1.0
C      1  0.5067240000000  0.5373280000000  0.5948120000000 1.0
C      1  0.5527140000000  0.4775240000000  0.5577930000000 1.0
C      1  0.4174060000000  0.4830210000000  0.5245570000000 1.0
C      1  0.4076570000000  0.4829890000000  0.4937650000000 1.0
C      1  0.4916790000000  0.4906570000000  0.4145300000000 1.0
C      1  0.4342260000000  0.4980540000000  0.4532890000000 1.0
C      1  0.4756240000000  0.5661670000000  0.5304340000000 1.0
C      1  0.5359300000000  0.5292220000000  0.5896410000000 1.0
C      1  0.4441200000000  0.5376180000000  0.5016450000000 1.0
C      1  0.5875210000000  0.5387930000000  0.5085550000000 1.0
C      1  0.4735190000000  0.4676560000000  0.5441840000000 1.0
C      1  0.5060880000000  0.5046600000000  0.4767500000000 1.0
C      1  0.5433800000000  0.5742620000000  0.4552650000000 1.0
C      1  0.4796460000000  0.4399340000000  0.5008990000000 1.0
C      1  0.5173450000000  0.4771680000000  0.5947600000000 1.0
C      1  0.5469520000000  0.6004550000000  0.4956090000000 1.0
C      1  0.5401570000000  0.4348950000000  0.5272590000000 1.0
C      1  0.4661290000000  0.4452650000000  0.4536770000000 1.0
C      1  0.5119440000000  0.5243830000000  0.4427740000000 1.0
C      1  0.5549610000000  0.5443950000000  0.5138930000000 1.0
C      1  0.4970410000000  0.5714220000000  0.4295880000000 1.0
C      1  0.5044520000000  0.4726460000000  0.5390880000000 1.0
C      1  0.5078200000000  0.5520320000000  0.4124200000000 1.0
C      1  0.4513050000000  0.4693600000000  0.5086880000000 1.0
C      1  0.4488990000000  0.5188470000000  0.4310840000000 1.0
C      1  0.4228920000000  0.5092860000000  0.5454970000000 1.0
C      1  0.5556980000000  0.4985600000000  0.4281800000000 1.0
C      1  0.5336730000000  0.5184420000000  0.4662220000000 1.0
C      1  0.5961140000000  0.5212720000000  0.5399570000000 1.0
C      1  0.4665330000000  0.4598540000000  0.5740370000000 1.0
C      1  0.4803100000000  0.4872930000000  0.4654220000000 1.0
C      1  0.5289490000000  0.5635700000000  0.5235620000000 1.0
C      1  0.5237890000000  0.5862890000000  0.5043880000000 1.0
C      1  0.5760030000000  0.4807430000000  0.5121320000000 1.0
C      1  0.4576800000000  0.5070900000000  0.5825610000000 1.0
C      1  0.5356650000000  0.4489690000000  0.4777840000000 1.0
C      1  0.4524220000000  0.4801090000000  0.5877320000000 1.0
C      1  0.4688140000000  0.4922620000000  0.4343280000000 1.0
C      1  0.5557020000000  0.5953930000000  0.4698240000000 1.0
C      1  0.4916990000000  0.4239120000000  0.5489340000000 1.0
C      1  0.5383040000000  0.5115190000000  0.4027660000000 1.0
C      1  0.5033850000000  0.5853440000000  0.4843580000000 1.0
C      1  0.4636630000000  0.4962830000000  0.5105210000000 1.0
C      1  0.5169360000000  0.4555170000000  0.5124330000000 1.0
C      1  0.4750230000000  0.5846030000000  0.4851500000000 1.0
C      1  0.5672740000000  0.4696570000000  0.4294520000000 1.0
C      1  0.5568060000000  0.5348830000000  0.4834240000000 1.0
C      1  0.4567640000000  0.4038240000000  0.5217920000000 1.0
C      1  0.5638420000000  0.5039840000000  0.4709660000000 1.0
C      1  0.4553850000000  0.4519280000000  0.4820970000000 1.0
C      1  0.4952630000000  0.4952660000000  0.5075880000000 1.0
C      1  0.5613510000000  0.4244990000000  0.5075720000000 1.0
C      1  0.4627190000000  0.5896510000000  0.4599230000000 1.0
C      1  0.4543460000000  0.5645440000000  0.5549750000000 1.0
C      1  0.4695380000000  0.5715400000000  0.4388170000000 1.0
C      1  0.6069590000000  0.5336520000000  0.4880030000000 1.0
C      1  0.4673550000000  0.5105400000000  0.4835760000000 1.0
C      1  0.5227190000000  0.4195720000000  0.4720150000000 1.0
C      1  0.4601600000000  0.5153430000000  0.5344410000000 1.0
C      1  0.4701990000000  0.4406270000000  0.5296940000000 1.0
C      1  0.4554100000000  0.5376010000000  0.5734310000000 1.0
C      1  0.6113520000000  0.5044290000000  0.4825800000000 1.0
C      1  0.4307340000000  0.5412120000000  0.5498080000000 1.0
C      1  0.5418950000000  0.5209980000000  0.5585380000000 1.0
C      1  0.5059230000000  0.4466960000000  0.5956180000000 1.0
C      1  0.4299900000000  0.4737970000000  0.4751670000000 1.0
C      1  0.5837440000000  0.4603010000000  0.4859630000000 1.0
C      1  0.5126580000000  0.4678460000000  0.4188290000000 1.0
C      1  0.4986740000000  0.4493560000000  0.4513430000000 1.0
C      1  0.4420260000000  0.5268430000000  0.4695570000000 1.0
C      1  0.4101100000000  0.5391450000000  0.4681050000000 1.0
C      1  0.4860290000000  0.5121770000000  0.5717890000000 1.0
C      1  0.5226400000000  0.5342140000000  0.5397330000000 1.0
C      1  0.5289250000000  0.4861860000000  0.4888540000000 1.0
C      1  0.4332750000000  0.4559510000000  0.5285580000000 1.0
C      1  0.5131100000000  0.5729450000000  0.4576230000000 1.0
C      1  0.4069260000000  0.5519830000000  0.4994810000000 1.0
C      1  0.4946660000000  0.5442460000000  0.4586230000000 1.0
C      1  0.5062820000000  0.5177830000000  0.4107030000000 1.0
C      1  0.5967690000000  0.5034510000000  0.5120950000000 1.0
C      1  0.5247840000000  0.4935120000000  0.4364790000000 1.0
C      1  0.4861140000000  0.4390640000000  0.5780520000000 1.0
C      1  0.5539140000000  0.4459260000000  0.4333890000000 1.0
C      1  0.5547980000000  0.5324210000000  0.4320830000000 1.0
C      1  0.4625030000000  0.5429510000000  0.4475830000000 1.0
C      1  0.3820500000000  0.4665180000000  0.4902940000000 1.0
C      1  0.4833330000000  0.5818460000000  0.5591650000000 1.0
C      1  0.5045990000000  0.5055790000000  0.5945360000000 1.0
C      1  0.5196810000000  0.4714320000000  0.4593970000000 1.0
C      1  0.4939780000000  0.4668260000000  0.4894220000000 1.0
C      1  0.5485240000000  0.4657080000000  0.5037980000000 1.0
C      1  0.4863680000000  0.5519890000000  0.5753820000000 1.0
C      1  0.4498220000000  0.4884490000000  0.5471580000000 1.0
C      1  0.5269640000000  0.4439820000000  0.4236420000000 1.0
C      1  0.5573980000000  0.4468210000000  0.5528860000000 1.0
C      1  0.4137920000000  0.5519930000000  0.5233610000000 1.0
C      1  0.5091650000000  0.5619790000000  0.5515110000000 1.0
C      1  0.5255650000000  0.4931610000000  0.5216250000000 1.0
C      1  0.4659390000000  0.5608420000000  0.5021210000000 1.0
C      1  0.4232770000000  0.5148010000000  0.5122540000000 1.0
C      1  0.5229610000000  0.4657090000000  0.5648720000000 1.0
C      1  0.5537570000000  0.4932410000000  0.5323370000000 1.0
C      1  0.4489980000000  0.4691940000000  0.4468340000000 1.0
C      1  0.3607250000000  0.4528010000000  0.4874030000000 1.0
C      1  0.5643810000000  0.5230460000000  0.5368980000000 1.0
C      1  0.4847690000000  0.5363230000000  0.4882170000000 1.0
C      1  0.5866720000000  0.4885600000000  0.4744320000000 1.0
C      1  0.4863610000000  0.4054110000000  0.5209060000000 1.0
C      1  0.5002330000000  0.4146810000000  0.4938720000000 1.0
C      1  0.4805790000000  0.4218580000000  0.4375210000000 1.0
C      1  0.4198970000000  0.5314370000000  0.4366480000000 1.0
C      1  0.4844440000000  0.5246210000000  0.5462860000000 1.0
C      1  0.4958540000000  0.5414080000000  0.5199700000000 1.0
END
