TITL C-2778426-5645-942 0.00124856995315755 125000 -416.89960630582 0 0 73 (C1) n - 1
REM
REM in /home/nfs/bkarasulu/CARBON/AIRSS/Generating-Clusters/REBO/Only-C1/SD-CG/HFTN-CG
REM
REM
REM
REM
REM
REM ./C.cell (11c1c37f851c82e70ff6c80c92926a4b)
REM
REM compiler GCC version 9.2.1 20190827 (Red Hat 9.2.1-1)
REM options -cpp -mtune=generic -march=x86-64 -g -O0 -fpre-include=/usr/include/finclude/math-vector-fortran.h
REM seed 1286320213 -1343378661 -1422320513 -2093374025 -1636509563 -1752790791 213112777 -634526461 -1677475465 1022375835 -42280103 -414503630 1859631220 1816835620 -692688469 1412194222 -1729436359 1672339157 1369408085 2086780450 766394782 -2128798977 2125243411 1849622734 -2091536497 1745186457 -2138101402 -457661327 -1165788576 -1825162615 -1234158731 748694303 606754165
REM
CELL 1.54180   50.00000   50.00000   50.00000   90.00000   90.00000   90.00000
LATT -1
SFAC C  
C      1  0.4315670000000  0.4894560000000  0.4873980000000 1.0
C      1  0.5282770000000  0.4604090000000  0.4762110000000 1.0
C      1  0.4812210000000  0.5511670000000  0.4463770000000 1.0
C      1  0.4865620000000  0.5127090000000  0.4792590000000 1.0
C      1  0.5757030000000  0.5327730000000  0.4979170000000 1.0
C      1  0.5279880000000  0.4286610000000  0.4836890000000 1.0
C      1  0.4703460000000  0.5417340000000  0.5151360000000 1.0
C      1  0.4201970000000  0.5067240000000  0.5063490000000 1.0
C      1  0.4410490000000  0.5005830000000  0.4630040000000 1.0
C      1  0.5219940000000  0.4646730000000  0.5667350000000 1.0
C      1  0.5398750000000  0.5183340000000  0.4506740000000 1.0
C      1  0.5258360000000  0.4725030000000  0.4377500000000 1.0
C      1  0.4785920000000  0.5603080000000  0.5625830000000 1.0
C      1  0.5147620000000  0.5079120000000  0.4923830000000 1.0
C      1  0.5004740000000  0.5424700000000  0.5685460000000 1.0
C      1  0.4341000000000  0.5745980000000  0.5070610000000 1.0
C      1  0.4798240000000  0.4378570000000  0.5095140000000 1.0
C      1  0.5542970000000  0.4656630000000  0.4551800000000 1.0
C      1  0.5324880000000  0.4929170000000  0.4739010000000 1.0
C      1  0.4958550000000  0.5858150000000  0.4668990000000 1.0
C      1  0.4893240000000  0.5120200000000  0.4466430000000 1.0
C      1  0.4486700000000  0.4150330000000  0.4790050000000 1.0
C      1  0.4997100000000  0.4179260000000  0.4791590000000 1.0
C      1  0.4558820000000  0.4504680000000  0.4400910000000 1.0
C      1  0.4769750000000  0.4765600000000  0.5327140000000 1.0
C      1  0.4210160000000  0.5287760000000  0.5215300000000 1.0
C      1  0.4651230000000  0.4107790000000  0.4977600000000 1.0
C      1  0.4707760000000  0.5847610000000  0.4652480000000 1.0
C      1  0.5669510000000  0.4800000000000  0.5296450000000 1.0
C      1  0.5065290000000  0.5393890000000  0.4572530000000 1.0
C      1  0.5788590000000  0.5023210000000  0.4856480000000 1.0
C      1  0.5151440000000  0.5323800000000  0.5431650000000 1.0
C      1  0.4418820000000  0.5514640000000  0.5265110000000 1.0
C      1  0.5061490000000  0.4079670000000  0.5098680000000 1.0
C      1  0.4801020000000  0.4496830000000  0.4283960000000 1.0
C      1  0.5390570000000  0.5472910000000  0.4619060000000 1.0
C      1  0.4777830000000  0.4963070000000  0.5532110000000 1.0
C      1  0.4547420000000  0.4562590000000  0.5217940000000 1.0
C      1  0.5066910000000  0.4541770000000  0.4290540000000 1.0
C      1  0.4563580000000  0.5449910000000  0.5533540000000 1.0
C      1  0.5122780000000  0.5410230000000  0.4908990000000 1.0
C      1  0.4403920000000  0.4636520000000  0.4941320000000 1.0
C      1  0.5300320000000  0.5150710000000  0.5177960000000 1.0
C      1  0.4844170000000  0.4130640000000  0.5323500000000 1.0
C      1  0.5001760000000  0.4559980000000  0.4914060000000 1.0
C      1  0.4586920000000  0.5168510000000  0.5577200000000 1.0
C      1  0.5048010000000  0.5782320000000  0.5273940000000 1.0
C      1  0.5356630000000  0.4202840000000  0.5119500000000 1.0
C      1  0.5003660000000  0.5474800000000  0.5187320000000 1.0
C      1  0.5726900000000  0.4690080000000  0.4837920000000 1.0
C      1  0.5301860000000  0.5037750000000  0.5665630000000 1.0
C      1  0.5228790000000  0.4601510000000  0.5398700000000 1.0
C      1  0.4880690000000  0.5837450000000  0.5483860000000 1.0
C      1  0.5201510000000  0.5711680000000  0.4771110000000 1.0
C      1  0.5481930000000  0.5281190000000  0.5506410000000 1.0
C      1  0.5630580000000  0.4981570000000  0.4589330000000 1.0
C      1  0.4578690000000  0.5190490000000  0.4521330000000 1.0
C      1  0.5173070000000  0.5003100000000  0.4378970000000 1.0
C      1  0.5462900000000  0.5447580000000  0.5216280000000 1.0
C      1  0.5022430000000  0.4683320000000  0.5219970000000 1.0
C      1  0.5713400000000  0.4597660000000  0.5100420000000 1.0
C      1  0.5538420000000  0.5544520000000  0.4899860000000 1.0
C      1  0.4473770000000  0.4455260000000  0.4704880000000 1.0
C      1  0.4548380000000  0.5500720000000  0.4658610000000 1.0
C      1  0.5411870000000  0.4405500000000  0.5306140000000 1.0
C      1  0.4673210000000  0.5306520000000  0.4890490000000 1.0
C      1  0.4797590000000  0.4388450000000  0.4699430000000 1.0
C      1  0.5575750000000  0.4956030000000  0.5525610000000 1.0
C      1  0.4580730000000  0.4280680000000  0.5409030000000 1.0
C      1  0.4392620000000  0.5735230000000  0.4812240000000 1.0
C      1  0.5306980000000  0.5715410000000  0.5089850000000 1.0
C      1  0.5612630000000  0.5075730000000  0.5145990000000 1.0
C      1  0.5029800000000  0.4997830000000  0.5658940000000 1.0
END
