TITL C-2778427-5640-929 -0.000616909174075942 125000 -732.564351661563 0 0 124 (C1) n - 1
REM
REM in /home/nfs/bkarasulu/CARBON/AIRSS/Generating-Clusters/REBO/Only-C1/SD-CG/HFTN-CG
REM
REM
REM
REM
REM
REM ./C.cell (11c1c37f851c82e70ff6c80c92926a4b)
REM
REM compiler GCC version 9.2.1 20190827 (Red Hat 9.2.1-1)
REM options -cpp -mtune=generic -march=x86-64 -g -O0 -fpre-include=/usr/include/finclude/math-vector-fortran.h
REM seed 963185997 2128841017 -247246369 1835319403 1516524499 264035950 1401666978 -2120425473 681292871 -460761623 1158939323 -617935568 -1610862531 -1378943460 -1956793028 26699289 53881344 -1545217462 268649590 -1265320989 1270515801 565944619 -1863129097 917809646 -1752778248 466606252 1795754051 -124689297 -1470109219 1750268001 -833992602 -1493341052 1649455080
REM
CELL 1.54180   50.00000   50.00000   50.00000   90.00000   90.00000   90.00000
LATT -1
SFAC C  
C      1  0.4893930000000  0.5897330000000  0.4568470000000 1.0
C      1  0.5792990000000  0.4738290000000  0.5212680000000 1.0
C      1  0.4373670000000  0.4748710000000  0.4310410000000 1.0
C      1  0.5430740000000  0.4841210000000  0.5341350000000 1.0
C      1  0.4369510000000  0.4940970000000  0.5845030000000 1.0
C      1  0.4817490000000  0.5294820000000  0.4479980000000 1.0
C      1  0.4825410000000  0.5014210000000  0.5671250000000 1.0
C      1  0.4437190000000  0.5747800000000  0.5075790000000 1.0
C      1  0.5628840000000  0.5307060000000  0.5302440000000 1.0
C      1  0.5805930000000  0.4963810000000  0.5404610000000 1.0
C      1  0.4377680000000  0.5272630000000  0.5177530000000 1.0
C      1  0.5081070000000  0.4237330000000  0.5491110000000 1.0
C      1  0.5321220000000  0.5553260000000  0.5714110000000 1.0
C      1  0.4812190000000  0.4510950000000  0.4162080000000 1.0
C      1  0.5732190000000  0.4363200000000  0.4673720000000 1.0
C      1  0.5213400000000  0.4456030000000  0.5185270000000 1.0
C      1  0.4115380000000  0.4748020000000  0.5202140000000 1.0
C      1  0.4799970000000  0.5517460000000  0.5284430000000 1.0
C      1  0.5307870000000  0.4327510000000  0.4514260000000 1.0
C      1  0.4359670000000  0.5246860000000  0.4361500000000 1.0
C      1  0.4431640000000  0.4457450000000  0.4568050000000 1.0
C      1  0.4574930000000  0.5494640000000  0.4394910000000 1.0
C      1  0.4270090000000  0.5313890000000  0.5560470000000 1.0
C      1  0.4980780000000  0.5351840000000  0.4731310000000 1.0
C      1  0.4984560000000  0.5713050000000  0.5388360000000 1.0
C      1  0.5537330000000  0.5954170000000  0.5383090000000 1.0
C      1  0.4831370000000  0.4705440000000  0.4759540000000 1.0
C      1  0.5858700000000  0.4823710000000  0.4939360000000 1.0
C      1  0.4862970000000  0.4378330000000  0.5685060000000 1.0
C      1  0.5727040000000  0.5665150000000  0.4618470000000 1.0
C      1  0.4716310000000  0.4578220000000  0.5104190000000 1.0
C      1  0.5298050000000  0.5231250000000  0.4775130000000 1.0
C      1  0.4971720000000  0.4573080000000  0.5855740000000 1.0
C      1  0.5351090000000  0.5105870000000  0.4097180000000 1.0
C      1  0.5462630000000  0.4175780000000  0.4763780000000 1.0
C      1  0.4830910000000  0.5145370000000  0.5424810000000 1.0
C      1  0.4043600000000  0.4965590000000  0.4988480000000 1.0
C      1  0.5561940000000  0.4564360000000  0.5488110000000 1.0
C      1  0.5041100000000  0.4359350000000  0.4048400000000 1.0
C      1  0.4325990000000  0.4699880000000  0.4867630000000 1.0
C      1  0.4960990000000  0.5055150000000  0.6090920000000 1.0
C      1  0.5839620000000  0.5511910000000  0.4423620000000 1.0
C      1  0.5611380000000  0.5036380000000  0.4279140000000 1.0
C      1  0.5301250000000  0.4982880000000  0.5559860000000 1.0
C      1  0.4482940000000  0.4310600000000  0.5288350000000 1.0
C      1  0.5125440000000  0.4969660000000  0.4792360000000 1.0
C      1  0.5677960000000  0.5090250000000  0.5634270000000 1.0
C      1  0.4803770000000  0.5461920000000  0.4976930000000 1.0
C      1  0.5052730000000  0.5534020000000  0.4189280000000 1.0
C      1  0.4627500000000  0.5057080000000  0.5219000000000 1.0
C      1  0.5008820000000  0.5944870000000  0.5228520000000 1.0
C      1  0.5798270000000  0.5424020000000  0.5041200000000 1.0
C      1  0.4078030000000  0.4966660000000  0.4705350000000 1.0
C      1  0.5207010000000  0.4227210000000  0.4240500000000 1.0
C      1  0.4191600000000  0.5210790000000  0.4596280000000 1.0
C      1  0.4559110000000  0.4497110000000  0.4283580000000 1.0
C      1  0.4325330000000  0.4497960000000  0.5113870000000 1.0
C      1  0.5738430000000  0.5004390000000  0.4586030000000 1.0
C      1  0.4276020000000  0.5031360000000  0.5598970000000 1.0
C      1  0.5309520000000  0.5868910000000  0.4980930000000 1.0
C      1  0.5946690000000  0.5195710000000  0.5242050000000 1.0
C      1  0.4926650000000  0.4055510000000  0.5289890000000 1.0
C      1  0.5052550000000  0.4834140000000  0.5679170000000 1.0
C      1  0.5213390000000  0.4810140000000  0.4057080000000 1.0
C      1  0.5486400000000  0.4938120000000  0.5820370000000 1.0
C      1  0.4726050000000  0.5759200000000  0.4900670000000 1.0
C      1  0.4821970000000  0.4979670000000  0.4949600000000 1.0
C      1  0.4874360000000  0.5280090000000  0.5965850000000 1.0
C      1  0.5331950000000  0.5261590000000  0.5171760000000 1.0
C      1  0.4617860000000  0.4679440000000  0.5350420000000 1.0
C      1  0.4083570000000  0.5218540000000  0.5115210000000 1.0
C      1  0.5410290000000  0.5572910000000  0.5100650000000 1.0
C      1  0.5301780000000  0.4161550000000  0.5036030000000 1.0
C      1  0.4431290000000  0.4949290000000  0.4892040000000 1.0
C      1  0.5432210000000  0.6062190000000  0.5146570000000 1.0
C      1  0.4406320000000  0.5553620000000  0.5272840000000 1.0
C      1  0.5642040000000  0.5618210000000  0.4866270000000 1.0
C      1  0.4911190000000  0.4072330000000  0.4742560000000 1.0
C      1  0.5190890000000  0.4549400000000  0.3882120000000 1.0
C      1  0.5081520000000  0.4286680000000  0.4728170000000 1.0
C      1  0.4670750000000  0.4122230000000  0.5169140000000 1.0
C      1  0.4582010000000  0.5760200000000  0.4591170000000 1.0
C      1  0.5051280000000  0.5609640000000  0.5652350000000 1.0
C      1  0.4612800000000  0.5231080000000  0.4861450000000 1.0
C      1  0.4677210000000  0.4147380000000  0.4884130000000 1.0
C      1  0.3899040000000  0.4665680000000  0.5360350000000 1.0
C      1  0.5514010000000  0.4474870000000  0.4910150000000 1.0
C      1  0.4949950000000  0.4783710000000  0.4206950000000 1.0
C      1  0.5012240000000  0.4496290000000  0.4952650000000 1.0
C      1  0.4581660000000  0.5449340000000  0.5537800000000 1.0
C      1  0.4861980000000  0.5661090000000  0.4329550000000 1.0
C      1  0.5447790000000  0.4605690000000  0.4533230000000 1.0
C      1  0.5441430000000  0.4767840000000  0.4276020000000 1.0
C      1  0.4637570000000  0.4967150000000  0.5873940000000 1.0
C      1  0.5836810000000  0.5249730000000  0.4375520000000 1.0
C      1  0.4621230000000  0.4441990000000  0.4803400000000 1.0
C      1  0.4053050000000  0.5382930000000  0.5379100000000 1.0
C      1  0.4369550000000  0.4877390000000  0.5351620000000 1.0
C      1  0.4979400000000  0.4783760000000  0.6068860000000 1.0
C      1  0.5001630000000  0.5928460000000  0.4891080000000 1.0
C      1  0.5425470000000  0.4968430000000  0.5055960000000 1.0
C      1  0.5746800000000  0.4694890000000  0.4671790000000 1.0
C      1  0.5165060000000  0.4568630000000  0.5506120000000 1.0
C      1  0.4356330000000  0.5654790000000  0.4799700000000 1.0
C      1  0.5612820000000  0.4462080000000  0.5187730000000 1.0
C      1  0.5591570000000  0.5417160000000  0.5599470000000 1.0
C      1  0.4181010000000  0.4687070000000  0.4574340000000 1.0
C      1  0.5248200000000  0.5538320000000  0.4668860000000 1.0
C      1  0.5070900000000  0.5228340000000  0.5328030000000 1.0
C      1  0.5205630000000  0.5789950000000  0.4576930000000 1.0
C      1  0.5127690000000  0.3962290000000  0.5108620000000 1.0
C      1  0.4613960000000  0.4443540000000  0.5550390000000 1.0
C      1  0.4827090000000  0.5455060000000  0.5751890000000 1.0
C      1  0.4780740000000  0.5029650000000  0.4335670000000 1.0
C      1  0.5522100000000  0.5678600000000  0.5392400000000 1.0
C      1  0.5924470000000  0.5134420000000  0.4914750000000 1.0
C      1  0.5595190000000  0.5149430000000  0.4830170000000 1.0
C      1  0.5410900000000  0.4276400000000  0.5399380000000 1.0
C      1  0.5397730000000  0.4647210000000  0.5747940000000 1.0
C      1  0.5217530000000  0.5338150000000  0.4106380000000 1.0
C      1  0.5360140000000  0.4740650000000  0.4832880000000 1.0
C      1  0.4973660000000  0.4846920000000  0.4523240000000 1.0
C      1  0.4334830000000  0.5370710000000  0.4789880000000 1.0
C      1  0.4485000000000  0.5005480000000  0.4280540000000 1.0
END
