TITL C-2778429-3646-426 -0.00126671506425035 125000 -214.31760861624 0 0 38 (C1) n - 1
REM
REM in /home/nfs/bkarasulu/CARBON/AIRSS/Generating-Clusters/REBO/Only-C1/SD-CG/HFTN-CG
REM
REM
REM
REM
REM
REM ./C.cell (11c1c37f851c82e70ff6c80c92926a4b)
REM
REM compiler GCC version 9.2.1 20190827 (Red Hat 9.2.1-1)
REM options -cpp -mtune=generic -march=x86-64 -g -O0 -fpre-include=/usr/include/finclude/math-vector-fortran.h
REM seed -464647096 1425979064 886275791 -214139950 -640186389 102702343 743931477 -994522946 -1960867031 -356434969 192112543 -30820191 565171181 1267830985 -897124495 -1187463986 -1669394493 -1678100527 969682590 -2065129438 -899914004 54330818 -983835906 -1744443847 577342033 -1594594051 522613442 -1497559090 -938373582 2138644464 -578502073 2061565437 -1808516324
REM
CELL 1.54180   50.00000   50.00000   50.00000   90.00000   90.00000   90.00000
LATT -1
SFAC C  
C      1  0.4818680000000  0.4788090000000  0.5493860000000 1.0
C      1  0.4594190000000  0.4987130000000  0.4727190000000 1.0
C      1  0.4324300000000  0.5312380000000  0.5075660000000 1.0
C      1  0.5536610000000  0.5394480000000  0.5301890000000 1.0
C      1  0.4906960000000  0.5420610000000  0.4791720000000 1.0
C      1  0.5271020000000  0.5189640000000  0.4475720000000 1.0
C      1  0.5155860000000  0.4653710000000  0.5184950000000 1.0
C      1  0.4534270000000  0.5191040000000  0.5308350000000 1.0
C      1  0.4924630000000  0.5158920000000  0.5788330000000 1.0
C      1  0.4998140000000  0.4981740000000  0.5596050000000 1.0
C      1  0.4735840000000  0.5517810000000  0.5004750000000 1.0
C      1  0.5193130000000  0.4547630000000  0.4692880000000 1.0
C      1  0.4793830000000  0.5351060000000  0.5239240000000 1.0
C      1  0.4472000000000  0.5010590000000  0.5022410000000 1.0
C      1  0.5186010000000  0.5430810000000  0.4839500000000 1.0
C      1  0.5412350000000  0.4948900000000  0.4563280000000 1.0
C      1  0.4450040000000  0.5533380000000  0.4960860000000 1.0
C      1  0.4713160000000  0.4722430000000  0.4862770000000 1.0
C      1  0.4986810000000  0.5120550000000  0.4428220000000 1.0
C      1  0.5447320000000  0.5240910000000  0.4830310000000 1.0
C      1  0.4735980000000  0.4413490000000  0.5231430000000 1.0
C      1  0.5594980000000  0.4626580000000  0.4931460000000 1.0
C      1  0.5507240000000  0.4935720000000  0.4882050000000 1.0
C      1  0.5239720000000  0.4986720000000  0.5467000000000 1.0
C      1  0.4401670000000  0.4941150000000  0.4526470000000 1.0
C      1  0.5007590000000  0.4839490000000  0.4343650000000 1.0
C      1  0.5427250000000  0.4439270000000  0.4815890000000 1.0
C      1  0.5504220000000  0.5128420000000  0.5384220000000 1.0
C      1  0.4580020000000  0.4625040000000  0.5099380000000 1.0
C      1  0.5407510000000  0.4862600000000  0.5194200000000 1.0
C      1  0.4568330000000  0.4865290000000  0.5319230000000 1.0
C      1  0.5439430000000  0.5471330000000  0.5048700000000 1.0
C      1  0.5020760000000  0.4694920000000  0.4891470000000 1.0
C      1  0.5243670000000  0.4721580000000  0.4472700000000 1.0
C      1  0.4809600000000  0.5197800000000  0.4637730000000 1.0
C      1  0.4951750000000  0.4560860000000  0.5366380000000 1.0
C      1  0.5021520000000  0.5187060000000  0.5193360000000 1.0
C      1  0.5083590000000  0.5000860000000  0.5006740000000 1.0
END
