TITL C-2778431-5191-248 -0.000170100659204545 125000 -875.445030506888 0 0 153 (C1) n - 1
REM
REM in /home/nfs/bkarasulu/CARBON/AIRSS/Generating-Clusters/REBO/Only-C1/SD-CG/HFTN-CG
REM
REM
REM
REM
REM
REM ./C.cell (11c1c37f851c82e70ff6c80c92926a4b)
REM
REM compiler GCC version 9.2.1 20190827 (Red Hat 9.2.1-1)
REM options -cpp -mtune=generic -march=x86-64 -g -O0 -fpre-include=/usr/include/finclude/math-vector-fortran.h
REM seed -1831792559 511582372 1240783619 -1853844843 1978141056 785262537 -177117612 -100762018 359983077 -1019645196 -1542268945 1208437496 526602349 -1219896523 1127452275 1226367393 808743204 -1913512245 -1221380871 1549585061 -857910720 463176901 -2044040157 -893964180 1941624821 -698916959 -740587443 -1033203366 2005581781 -1273039854 744892264 -2124400813 -1379356259
REM
CELL 1.54180   50.00000   50.00000   50.00000   90.00000   90.00000   90.00000
LATT -1
SFAC C  
C      1  0.4840390000000  0.4998050000000  0.4021320000000 1.0
C      1  0.4733160000000  0.4850190000000  0.6056240000000 1.0
C      1  0.4693190000000  0.4903560000000  0.4816550000000 1.0
C      1  0.5078810000000  0.4634100000000  0.4791220000000 1.0
C      1  0.5197860000000  0.4270960000000  0.5749460000000 1.0
C      1  0.5448050000000  0.5496940000000  0.4895620000000 1.0
C      1  0.5044300000000  0.4060590000000  0.4653930000000 1.0
C      1  0.4759460000000  0.5091210000000  0.4342500000000 1.0
C      1  0.4966690000000  0.4693710000000  0.3933430000000 1.0
C      1  0.4468850000000  0.5314680000000  0.5455220000000 1.0
C      1  0.5693230000000  0.5810410000000  0.4928850000000 1.0
C      1  0.4148200000000  0.5413790000000  0.4582270000000 1.0
C      1  0.5423450000000  0.5750230000000  0.5127160000000 1.0
C      1  0.4193910000000  0.4705330000000  0.5006420000000 1.0
C      1  0.4333340000000  0.5684030000000  0.5404830000000 1.0
C      1  0.5991720000000  0.5021220000000  0.5310280000000 1.0
C      1  0.4946850000000  0.4957090000000  0.4595880000000 1.0
C      1  0.4590250000000  0.5311230000000  0.5765530000000 1.0
C      1  0.4492420000000  0.5427130000000  0.4856900000000 1.0
C      1  0.5738440000000  0.4449070000000  0.4608370000000 1.0
C      1  0.4926140000000  0.4290060000000  0.5948290000000 1.0
C      1  0.6027510000000  0.4922060000000  0.4778170000000 1.0
C      1  0.4525010000000  0.5380050000000  0.4196990000000 1.0
C      1  0.4497120000000  0.4460620000000  0.4917010000000 1.0
C      1  0.5826710000000  0.5224890000000  0.5478640000000 1.0
C      1  0.5134290000000  0.4977120000000  0.3910280000000 1.0
C      1  0.5724970000000  0.5611020000000  0.5204460000000 1.0
C      1  0.5760930000000  0.4346050000000  0.4893980000000 1.0
C      1  0.5898330000000  0.4719930000000  0.4532000000000 1.0
C      1  0.4982880000000  0.5672000000000  0.5804550000000 1.0
C      1  0.4349660000000  0.4711110000000  0.4405800000000 1.0
C      1  0.6021010000000  0.5110690000000  0.5039170000000 1.0
C      1  0.5281770000000  0.5610050000000  0.4415090000000 1.0
C      1  0.4534200000000  0.4296310000000  0.5671180000000 1.0
C      1  0.4763340000000  0.5213810000000  0.5211190000000 1.0
C      1  0.4844190000000  0.4473730000000  0.4160240000000 1.0
C      1  0.5553080000000  0.5553510000000  0.5689240000000 1.0
C      1  0.4030940000000  0.5444060000000  0.5318360000000 1.0
C      1  0.5289180000000  0.4425420000000  0.5058170000000 1.0
C      1  0.5706770000000  0.5411120000000  0.4735990000000 1.0
C      1  0.5374920000000  0.5321110000000  0.5828190000000 1.0
C      1  0.4912020000000  0.5821710000000  0.5512250000000 1.0
C      1  0.5515850000000  0.4254760000000  0.5338720000000 1.0
C      1  0.4013420000000  0.5293320000000  0.4786040000000 1.0
C      1  0.5042600000000  0.4790530000000  0.6044690000000 1.0
C      1  0.4569490000000  0.4796260000000  0.5698210000000 1.0
C      1  0.5510540000000  0.4827110000000  0.5879620000000 1.0
C      1  0.5226530000000  0.4751530000000  0.5859550000000 1.0
C      1  0.4561890000000  0.4529340000000  0.5823740000000 1.0
C      1  0.5208680000000  0.4495100000000  0.4003270000000 1.0
C      1  0.5405740000000  0.4423420000000  0.5581750000000 1.0
C      1  0.4135650000000  0.4964170000000  0.5510160000000 1.0
C      1  0.5186320000000  0.4957630000000  0.4819220000000 1.0
C      1  0.4397950000000  0.4960930000000  0.4976850000000 1.0
C      1  0.4202760000000  0.5445510000000  0.5611840000000 1.0
C      1  0.4988440000000  0.4055780000000  0.4991520000000 1.0
C      1  0.5152460000000  0.5508680000000  0.5553450000000 1.0
C      1  0.4306310000000  0.4179530000000  0.4958580000000 1.0
C      1  0.4753540000000  0.5688560000000  0.4284940000000 1.0
C      1  0.5505670000000  0.5028700000000  0.4755040000000 1.0
C      1  0.4888920000000  0.4731640000000  0.5035790000000 1.0
C      1  0.5265490000000  0.4776800000000  0.4435500000000 1.0
C      1  0.4905590000000  0.4121740000000  0.5647480000000 1.0
C      1  0.5741770000000  0.5133200000000  0.4287270000000 1.0
C      1  0.4992740000000  0.4420160000000  0.5521840000000 1.0
C      1  0.4912100000000  0.5152700000000  0.5940960000000 1.0
C      1  0.5935160000000  0.5476660000000  0.4521990000000 1.0
C      1  0.5200890000000  0.5333640000000  0.4264910000000 1.0
C      1  0.5466670000000  0.4650720000000  0.4639160000000 1.0
C      1  0.5442260000000  0.4695970000000  0.4975880000000 1.0
C      1  0.4843540000000  0.5393640000000  0.5558580000000 1.0
C      1  0.5018960000000  0.4390330000000  0.5197330000000 1.0
C      1  0.4463180000000  0.5665610000000  0.4350900000000 1.0
C      1  0.4921260000000  0.4336460000000  0.4805740000000 1.0
C      1  0.4688880000000  0.5522510000000  0.5296800000000 1.0
C      1  0.4965650000000  0.4291630000000  0.4413620000000 1.0
C      1  0.4298710000000  0.5476970000000  0.5133270000000 1.0
C      1  0.4396670000000  0.5753460000000  0.4864390000000 1.0
C      1  0.5278840000000  0.4730140000000  0.5536990000000 1.0
C      1  0.5333800000000  0.6064790000000  0.4196810000000 1.0
C      1  0.5542950000000  0.5087760000000  0.5956690000000 1.0
C      1  0.4973650000000  0.5127940000000  0.5433980000000 1.0
C      1  0.4391720000000  0.5866560000000  0.5123940000000 1.0
C      1  0.5807790000000  0.4567450000000  0.5070970000000 1.0
C      1  0.5330730000000  0.5082780000000  0.4073220000000 1.0
C      1  0.4746130000000  0.5208480000000  0.4917060000000 1.0
C      1  0.5175790000000  0.5876520000000  0.4320360000000 1.0
C      1  0.5726150000000  0.5502340000000  0.5485080000000 1.0
C      1  0.4486850000000  0.4769820000000  0.5408030000000 1.0
C      1  0.4904260000000  0.5900500000000  0.4390810000000 1.0
C      1  0.4288380000000  0.5215810000000  0.4381930000000 1.0
C      1  0.5644220000000  0.4647050000000  0.5675170000000 1.0
C      1  0.5788950000000  0.4829690000000  0.5442940000000 1.0
C      1  0.4599180000000  0.5894560000000  0.5399060000000 1.0
C      1  0.4151140000000  0.4946800000000  0.4409320000000 1.0
C      1  0.4671200000000  0.4352730000000  0.4577010000000 1.0
C      1  0.4947940000000  0.4739190000000  0.4347680000000 1.0
C      1  0.4720110000000  0.5528990000000  0.5924830000000 1.0
C      1  0.4557130000000  0.4184680000000  0.5414700000000 1.0
C      1  0.4168400000000  0.5197430000000  0.5035380000000 1.0
C      1  0.5831910000000  0.5364000000000  0.5003120000000 1.0
C      1  0.5595860000000  0.4154980000000  0.5024730000000 1.0
C      1  0.5730930000000  0.4510400000000  0.5369710000000 1.0
C      1  0.4300920000000  0.5655050000000  0.4587700000000 1.0
C      1  0.4770900000000  0.4624560000000  0.5400620000000 1.0
C      1  0.5367880000000  0.5250750000000  0.5505010000000 1.0
C      1  0.4780890000000  0.5787280000000  0.5140310000000 1.0
C      1  0.4545240000000  0.4659970000000  0.4645270000000 1.0
C      1  0.5080640000000  0.5548110000000  0.5029840000000 1.0
C      1  0.5159490000000  0.5718390000000  0.5302530000000 1.0
C      1  0.5324760000000  0.5371630000000  0.5191170000000 1.0
C      1  0.4352560000000  0.4281420000000  0.5242270000000 1.0
C      1  0.5660080000000  0.4673980000000  0.4290060000000 1.0
C      1  0.4854480000000  0.5405930000000  0.4688970000000 1.0
C      1  0.5177530000000  0.5513550000000  0.4700110000000 1.0
C      1  0.4228100000000  0.5130840000000  0.5713200000000 1.0
C      1  0.4827480000000  0.6064590000000  0.4947190000000 1.0
C      1  0.5527890000000  0.4368360000000  0.4364380000000 1.0
C      1  0.5740330000000  0.4849120000000  0.4928290000000 1.0
C      1  0.5114780000000  0.5040310000000  0.5137130000000 1.0
C      1  0.5282860000000  0.4095070000000  0.5145540000000 1.0
C      1  0.4487960000000  0.5042220000000  0.5274830000000 1.0
C      1  0.5789310000000  0.5028100000000  0.4576080000000 1.0
C      1  0.5486530000000  0.4950140000000  0.5459920000000 1.0
C      1  0.4870010000000  0.5388560000000  0.4217970000000 1.0
C      1  0.5064220000000  0.4761650000000  0.5326950000000 1.0
C      1  0.5697940000000  0.5803870000000  0.4661400000000 1.0
C      1  0.5629960000000  0.5222750000000  0.5206120000000 1.0
C      1  0.4860770000000  0.4109560000000  0.5307260000000 1.0
C      1  0.4702990000000  0.4484280000000  0.5106230000000 1.0
C      1  0.5089130000000  0.5373080000000  0.5923380000000 1.0
C      1  0.4848000000000  0.5961650000000  0.4660990000000 1.0
C      1  0.4303140000000  0.4563460000000  0.5264570000000 1.0
C      1  0.4843140000000  0.4998250000000  0.5701300000000 1.0
C      1  0.4624180000000  0.4783510000000  0.4273290000000 1.0
C      1  0.5591170000000  0.5666900000000  0.4453330000000 1.0
C      1  0.5231740000000  0.4465540000000  0.4292230000000 1.0
C      1  0.4845520000000  0.5687330000000  0.4834510000000 1.0
C      1  0.5376270000000  0.4369990000000  0.4757100000000 1.0
C      1  0.4103580000000  0.4937600000000  0.5240920000000 1.0
C      1  0.5572180000000  0.4933560000000  0.4162920000000 1.0
C      1  0.5322880000000  0.4170470000000  0.4545900000000 1.0
C      1  0.5568280000000  0.5335700000000  0.4450750000000 1.0
C      1  0.4762500000000  0.4509190000000  0.6029860000000 1.0
C      1  0.4131120000000  0.4580910000000  0.4738670000000 1.0
C      1  0.4528780000000  0.4484570000000  0.4133790000000 1.0
C      1  0.3991170000000  0.4757570000000  0.4572790000000 1.0
C      1  0.4251630000000  0.4432860000000  0.4238720000000 1.0
C      1  0.4567370000000  0.5264620000000  0.4567110000000 1.0
C      1  0.5423690000000  0.4967470000000  0.5140870000000 1.0
C      1  0.5328020000000  0.5094050000000  0.4471210000000 1.0
C      1  0.4336420000000  0.4322510000000  0.4650980000000 1.0
C      1  0.4499710000000  0.5043140000000  0.5899100000000 1.0
END
