TITL C-2778435-5768-1181 0.0456622895175074 125000 -190.467936131676 0 0 33 (C1) n - 1
REM
REM in /home/nfs/bkarasulu/CARBON/AIRSS/Generating-Clusters/REBO/Only-C1/SD-CG/HFTN-CG
REM
REM
REM
REM
REM
REM ./C.cell (11c1c37f851c82e70ff6c80c92926a4b)
REM
REM compiler GCC version 9.2.1 20190827 (Red Hat 9.2.1-1)
REM options -cpp -mtune=generic -march=x86-64 -g -O0 -fpre-include=/usr/include/finclude/math-vector-fortran.h
REM seed 957422893 803562879 785415425 -1392698873 1909935856 -1222014395 -802607402 -377164401 75934221 -160500438 -1139763500 -884561774 -1278524654 -227702845 1470767139 -2093957006 -2082965095 1880456862 -1300028436 -1594477265 1064926241 1135881869 -606398592 -1000451442 1043581937 1514169319 2037978840 -1151150530 891360015 395179002 1662689656 -658195652 -1565813157
REM
CELL 1.54180   50.00000   50.00000   50.00000   90.00000   90.00000   90.00000
LATT -1
SFAC C  
C      1  0.5586670000000  0.4685100000000  0.4968210000000 1.0
C      1  0.5060090000000  0.5344980000000  0.4841850000000 1.0
C      1  0.3930650000000  0.5765810000000  0.4486530000000 1.0
C      1  0.4651270000000  0.5217600000000  0.5342550000000 1.0
C      1  0.5717630000000  0.4720960000000  0.4724800000000 1.0
C      1  0.4587740000000  0.5285290000000  0.5081070000000 1.0
C      1  0.4379530000000  0.5457510000000  0.5014220000000 1.0
C      1  0.4202600000000  0.5588330000000  0.4858470000000 1.0
C      1  0.4827910000000  0.4637180000000  0.4747130000000 1.0
C      1  0.5927230000000  0.4245100000000  0.5256430000000 1.0
C      1  0.4763940000000  0.5179270000000  0.4859000000000 1.0
C      1  0.4614700000000  0.5052410000000  0.4627800000000 1.0
C      1  0.5687910000000  0.4197090000000  0.5131400000000 1.0
C      1  0.5268760000000  0.4584140000000  0.4967570000000 1.0
C      1  0.5051730000000  0.4725730000000  0.4890420000000 1.0
C      1  0.4966670000000  0.5059800000000  0.5732410000000 1.0
C      1  0.3748990000000  0.5928960000000  0.4391320000000 1.0
C      1  0.5459570000000  0.4896970000000  0.5706300000000 1.0
C      1  0.5214400000000  0.4971740000000  0.5784610000000 1.0
C      1  0.5494360000000  0.4376940000000  0.5050380000000 1.0
C      1  0.4476420000000  0.4640590000000  0.4413550000000 1.0
C      1  0.5662580000000  0.4876370000000  0.5187120000000 1.0
C      1  0.6023910000000  0.4482570000000  0.5353350000000 1.0
C      1  0.4260510000000  0.5402740000000  0.4429790000000 1.0
C      1  0.5543010000000  0.5148780000000  0.5108070000000 1.0
C      1  0.5902110000000  0.4730140000000  0.5374550000000 1.0
C      1  0.5313510000000  0.5215040000000  0.4994070000000 1.0
C      1  0.4445720000000  0.5211220000000  0.4473460000000 1.0
C      1  0.4633190000000  0.4772730000000  0.4592580000000 1.0
C      1  0.5049500000000  0.5015710000000  0.4932440000000 1.0
C      1  0.5651190000000  0.4846060000000  0.5522080000000 1.0
C      1  0.4772540000000  0.5144510000000  0.5568860000000 1.0
C      1  0.4123480000000  0.5592630000000  0.4587620000000 1.0
END
