TITL C-2778427-5640-1347 0.007255964828829 125000 -1054.63769840979 0 0 184 (C1) n - 1
REM
REM in /home/nfs/bkarasulu/CARBON/AIRSS/Generating-Clusters/REBO/Only-C1/SD-CG/HFTN-CG
REM
REM
REM
REM
REM
REM ./C.cell (11c1c37f851c82e70ff6c80c92926a4b)
REM
REM compiler GCC version 9.2.1 20190827 (Red Hat 9.2.1-1)
REM options -cpp -mtune=generic -march=x86-64 -g -O0 -fpre-include=/usr/include/finclude/math-vector-fortran.h
REM seed -527547011 -1345720166 614051506 1795691607 -174765150 1561123203 1441199186 640161431 1509311331 993397135 1160469752 -2001775871 -1686217490 1917024156 -783062203 2084593828 185825614 -990715174 1211217747 2006958453 -1730691479 483994410 -401700308 1839079707 -1086044991 1033212635 -847141298 -1755182736 -261450076 -276511580 549696884 719422895 -281663867
REM
CELL 1.54180   50.00000   50.00000   50.00000   90.00000   90.00000   90.00000
LATT -1
SFAC C  
C      1  0.4679340000000  0.4241270000000  0.4279970000000 1.0
C      1  0.5290960000000  0.5404750000000  0.5477100000000 1.0
C      1  0.4737300000000  0.4271050000000  0.5548520000000 1.0
C      1  0.5004260000000  0.4003240000000  0.5419930000000 1.0
C      1  0.5660200000000  0.4420190000000  0.4540920000000 1.0
C      1  0.5248140000000  0.4369240000000  0.5084790000000 1.0
C      1  0.4822500000000  0.4432100000000  0.4704430000000 1.0
C      1  0.4885140000000  0.5336700000000  0.5993900000000 1.0
C      1  0.4367650000000  0.5795440000000  0.5507330000000 1.0
C      1  0.5986680000000  0.4598240000000  0.5225130000000 1.0
C      1  0.5015820000000  0.4763130000000  0.5600490000000 1.0
C      1  0.4561830000000  0.5881100000000  0.4686930000000 1.0
C      1  0.5687110000000  0.4192740000000  0.5299250000000 1.0
C      1  0.4970950000000  0.3981130000000  0.4833320000000 1.0
C      1  0.4497840000000  0.5218010000000  0.4763920000000 1.0
C      1  0.4330490000000  0.4419850000000  0.5220980000000 1.0
C      1  0.4793480000000  0.4814030000000  0.5389020000000 1.0
C      1  0.4762920000000  0.5849710000000  0.5525900000000 1.0
C      1  0.5476940000000  0.5927550000000  0.5382140000000 1.0
C      1  0.4892810000000  0.5557030000000  0.4234550000000 1.0
C      1  0.4523070000000  0.5289280000000  0.5622650000000 1.0
C      1  0.4588630000000  0.5160100000000  0.3854960000000 1.0
C      1  0.4263340000000  0.4530300000000  0.5710950000000 1.0
C      1  0.4275990000000  0.4503670000000  0.4321900000000 1.0
C      1  0.5924450000000  0.4844830000000  0.5657060000000 1.0
C      1  0.4577870000000  0.5562140000000  0.4161650000000 1.0
C      1  0.4534560000000  0.5420500000000  0.5305750000000 1.0
C      1  0.6129240000000  0.5132410000000  0.4541950000000 1.0
C      1  0.5169420000000  0.4520040000000  0.5475050000000 1.0
C      1  0.5513940000000  0.4283530000000  0.5584080000000 1.0
C      1  0.5731610000000  0.4886280000000  0.4936520000000 1.0
C      1  0.4371910000000  0.5613030000000  0.4336100000000 1.0
C      1  0.4990670000000  0.4166160000000  0.4204390000000 1.0
C      1  0.4356590000000  0.5687710000000  0.4605440000000 1.0
C      1  0.4497590000000  0.4446990000000  0.4647880000000 1.0
C      1  0.4915840000000  0.4351330000000  0.5017700000000 1.0
C      1  0.4829690000000  0.5641240000000  0.5856850000000 1.0
C      1  0.5375730000000  0.4589990000000  0.4148290000000 1.0
C      1  0.5616520000000  0.6017080000000  0.5075510000000 1.0
C      1  0.5004150000000  0.6096730000000  0.5325750000000 1.0
C      1  0.4367080000000  0.4739470000000  0.4749190000000 1.0
C      1  0.5124930000000  0.5416550000000  0.5764790000000 1.0
C      1  0.4623140000000  0.6010210000000  0.5258710000000 1.0
C      1  0.5597730000000  0.5932840000000  0.4745810000000 1.0
C      1  0.5859760000000  0.5204720000000  0.4732560000000 1.0
C      1  0.4766310000000  0.4461980000000  0.5750140000000 1.0
C      1  0.5464470000000  0.5304040000000  0.4615140000000 1.0
C      1  0.4763550000000  0.5205450000000  0.5314930000000 1.0
C      1  0.5071540000000  0.4958870000000  0.5256870000000 1.0
C      1  0.5168860000000  0.5871300000000  0.5302580000000 1.0
C      1  0.6135870000000  0.4814630000000  0.5808980000000 1.0
C      1  0.5672400000000  0.5454680000000  0.4430180000000 1.0
C      1  0.5681040000000  0.4410730000000  0.5056520000000 1.0
C      1  0.5265680000000  0.5862130000000  0.4695410000000 1.0
C      1  0.5759270000000  0.5329370000000  0.5282880000000 1.0
C      1  0.5201600000000  0.5416990000000  0.4782820000000 1.0
C      1  0.5305150000000  0.4881690000000  0.6026820000000 1.0
C      1  0.5224880000000  0.5089950000000  0.5508730000000 1.0
C      1  0.4544350000000  0.4070230000000  0.4526900000000 1.0
C      1  0.4560260000000  0.5110360000000  0.5056610000000 1.0
C      1  0.5326140000000  0.5848680000000  0.5020830000000 1.0
C      1  0.6047750000000  0.5374190000000  0.5115470000000 1.0
C      1  0.5003490000000  0.4870160000000  0.4874100000000 1.0
C      1  0.5849490000000  0.5723040000000  0.4663390000000 1.0
C      1  0.4447230000000  0.4825560000000  0.5046480000000 1.0
C      1  0.5621870000000  0.4706040000000  0.4264430000000 1.0
C      1  0.5637250000000  0.5029030000000  0.5863020000000 1.0
C      1  0.5129280000000  0.4220530000000  0.5647510000000 1.0
C      1  0.4993020000000  0.4522910000000  0.5918710000000 1.0
C      1  0.5579230000000  0.5765590000000  0.4449480000000 1.0
C      1  0.6169910000000  0.5112890000000  0.5070780000000 1.0
C      1  0.4968870000000  0.3829110000000  0.4241400000000 1.0
C      1  0.5149270000000  0.5287360000000  0.4495570000000 1.0
C      1  0.4943400000000  0.5201380000000  0.5051990000000 1.0
C      1  0.4860930000000  0.3968790000000  0.4525120000000 1.0
C      1  0.4324210000000  0.5028570000000  0.5850320000000 1.0
C      1  0.5891930000000  0.4507340000000  0.4323520000000 1.0
C      1  0.4748560000000  0.5455440000000  0.4923740000000 1.0
C      1  0.4580210000000  0.4377650000000  0.5014130000000 1.0
C      1  0.4543120000000  0.4952780000000  0.5526370000000 1.0
C      1  0.4025800000000  0.5401830000000  0.5382500000000 1.0
C      1  0.5062510000000  0.5984450000000  0.4377630000000 1.0
C      1  0.4872950000000  0.5254080000000  0.5603300000000 1.0
C      1  0.5981060000000  0.5439580000000  0.4529190000000 1.0
C      1  0.5301750000000  0.4734090000000  0.5785210000000 1.0
C      1  0.5616040000000  0.3929830000000  0.5163510000000 1.0
C      1  0.5963530000000  0.4474910000000  0.4657690000000 1.0
C      1  0.6025690000000  0.4876220000000  0.5206870000000 1.0
C      1  0.5623500000000  0.5446180000000  0.5537170000000 1.0
C      1  0.4234750000000  0.5513150000000  0.4816240000000 1.0
C      1  0.4260530000000  0.4250190000000  0.4528960000000 1.0
C      1  0.5266970000000  0.5091110000000  0.4887500000000 1.0
C      1  0.5844070000000  0.5598490000000  0.4959320000000 1.0
C      1  0.5291330000000  0.4289940000000  0.4265910000000 1.0
C      1  0.5738930000000  0.5022610000000  0.5238230000000 1.0
C      1  0.5628530000000  0.4309750000000  0.4226780000000 1.0
C      1  0.4661580000000  0.5676500000000  0.5261350000000 1.0
C      1  0.4752860000000  0.3986170000000  0.5017420000000 1.0
C      1  0.5544060000000  0.5627840000000  0.5105950000000 1.0
C      1  0.4603080000000  0.4878790000000  0.5990300000000 1.0
C      1  0.4722380000000  0.4680030000000  0.4917770000000 1.0
C      1  0.6044230000000  0.4941280000000  0.4812710000000 1.0
C      1  0.4490030000000  0.4099000000000  0.4840230000000 1.0
C      1  0.5225480000000  0.4710580000000  0.5082450000000 1.0
C      1  0.4499780000000  0.4148140000000  0.5460680000000 1.0
C      1  0.5526150000000  0.4987970000000  0.4717830000000 1.0
C      1  0.5964830000000  0.4458530000000  0.4941830000000 1.0
C      1  0.5270420000000  0.4772490000000  0.4499900000000 1.0
C      1  0.3900490000000  0.4787430000000  0.4915970000000 1.0
C      1  0.5174990000000  0.5549270000000  0.5235480000000 1.0
C      1  0.4510510000000  0.3985070000000  0.5220710000000 1.0
C      1  0.4841410000000  0.6132710000000  0.5052800000000 1.0
C      1  0.5424220000000  0.4570040000000  0.4659990000000 1.0
C      1  0.4846290000000  0.5405080000000  0.4601280000000 1.0
C      1  0.5127380000000  0.4756420000000  0.4020310000000 1.0
C      1  0.5221300000000  0.5555260000000  0.4152740000000 1.0
C      1  0.5329270000000  0.5812650000000  0.4282430000000 1.0
C      1  0.4933470000000  0.4327390000000  0.5322210000000 1.0
C      1  0.4566090000000  0.4779730000000  0.4473350000000 1.0
C      1  0.4644970000000  0.5171180000000  0.4463620000000 1.0
C      1  0.5613450000000  0.4953870000000  0.4404020000000 1.0
C      1  0.4178550000000  0.5239040000000  0.5625500000000 1.0
C      1  0.5503580000000  0.4642330000000  0.4943270000000 1.0
C      1  0.4261110000000  0.4322580000000  0.5523650000000 1.0
C      1  0.4332790000000  0.5029270000000  0.4475840000000 1.0
C      1  0.5771610000000  0.5805950000000  0.5293080000000 1.0
C      1  0.4187510000000  0.4815850000000  0.5628770000000 1.0
C      1  0.4324210000000  0.5868530000000  0.5176030000000 1.0
C      1  0.5752580000000  0.4485180000000  0.5439510000000 1.0
C      1  0.5318830000000  0.5237990000000  0.4137850000000 1.0
C      1  0.4878670000000  0.4826620000000  0.4573930000000 1.0
C      1  0.5707950000000  0.4875450000000  0.5500600000000 1.0
C      1  0.3925090000000  0.5474120000000  0.4895180000000 1.0
C      1  0.5331580000000  0.5779310000000  0.5653470000000 1.0
C      1  0.4576930000000  0.4533360000000  0.4238300000000 1.0
C      1  0.5400610000000  0.5318580000000  0.5107840000000 1.0
C      1  0.5039700000000  0.5577740000000  0.4957590000000 1.0
C      1  0.4164810000000  0.5196270000000  0.4715360000000 1.0
C      1  0.5295750000000  0.4166350000000  0.5347880000000 1.0
C      1  0.4546980000000  0.4686720000000  0.5740670000000 1.0
C      1  0.5593870000000  0.5201200000000  0.4253280000000 1.0
C      1  0.4217760000000  0.4797670000000  0.5291280000000 1.0
C      1  0.5440480000000  0.5172570000000  0.5761280000000 1.0
C      1  0.4138690000000  0.4262910000000  0.5020760000000 1.0
C      1  0.3912450000000  0.5078380000000  0.4879490000000 1.0
C      1  0.5473800000000  0.4670460000000  0.5509460000000 1.0
C      1  0.4073450000000  0.4355750000000  0.4764070000000 1.0
C      1  0.4604450000000  0.5202550000000  0.5944420000000 1.0
C      1  0.5101410000000  0.5068370000000  0.3944200000000 1.0
C      1  0.4835190000000  0.4996670000000  0.4275160000000 1.0
C      1  0.5138120000000  0.5029820000000  0.4339490000000 1.0
C      1  0.4557330000000  0.5624970000000  0.5687460000000 1.0
C      1  0.5030290000000  0.5029480000000  0.5777850000000 1.0
C      1  0.4911730000000  0.5850160000000  0.4875940000000 1.0
C      1  0.4126160000000  0.5659360000000  0.5354360000000 1.0
C      1  0.4819460000000  0.5990140000000  0.4576960000000 1.0
C      1  0.5459870000000  0.3917180000000  0.4968080000000 1.0
C      1  0.4782180000000  0.4947860000000  0.3961260000000 1.0
C      1  0.5310040000000  0.4411660000000  0.5830670000000 1.0
C      1  0.4249930000000  0.3983900000000  0.5044620000000 1.0
C      1  0.3767900000000  0.5326520000000  0.4686530000000 1.0
C      1  0.5045230000000  0.5669740000000  0.4518560000000 1.0
C      1  0.5858160000000  0.5641730000000  0.5510020000000 1.0
C      1  0.5245750000000  0.4117150000000  0.4864910000000 1.0
C      1  0.5291620000000  0.4285440000000  0.4606200000000 1.0
C      1  0.4590910000000  0.4601140000000  0.5342300000000 1.0
C      1  0.5448620000000  0.5508220000000  0.5822970000000 1.0
C      1  0.4906690000000  0.4774410000000  0.6059470000000 1.0
C      1  0.4293110000000  0.5107200000000  0.5350910000000 1.0
C      1  0.5023380000000  0.4648350000000  0.4326110000000 1.0
C      1  0.4683050000000  0.5409940000000  0.3928730000000 1.0
C      1  0.5094500000000  0.6129280000000  0.4822580000000 1.0
C      1  0.5001120000000  0.5389220000000  0.3953770000000 1.0
C      1  0.3915530000000  0.5294940000000  0.5147510000000 1.0
C      1  0.5053320000000  0.5074560000000  0.6103210000000 1.0
C      1  0.3952820000000  0.4704710000000  0.5170000000000 1.0
C      1  0.5048070000000  0.5800200000000  0.5682450000000 1.0
C      1  0.4160070000000  0.4745230000000  0.4475040000000 1.0
C      1  0.4309500000000  0.5334050000000  0.5095560000000 1.0
C      1  0.3987440000000  0.4620890000000  0.4712370000000 1.0
C      1  0.4989460000000  0.4275670000000  0.4526280000000 1.0
C      1  0.4542940000000  0.5725640000000  0.4957200000000 1.0
C      1  0.5693280000000  0.5295750000000  0.4950140000000 1.0
C      1  0.4809180000000  0.4644790000000  0.4071510000000 1.0
END
