TITL C-2778434-4341-1496 -0.000155557399499115 125000 -350.777510884762 0 0 62 (C1) n - 1
REM
REM in /home/nfs/bkarasulu/CARBON/AIRSS/Generating-Clusters/REBO/Only-C1/SD-CG/HFTN-CG
REM
REM
REM
REM
REM
REM ./C.cell (11c1c37f851c82e70ff6c80c92926a4b)
REM
REM compiler GCC version 9.2.1 20190827 (Red Hat 9.2.1-1)
REM options -cpp -mtune=generic -march=x86-64 -g -O0 -fpre-include=/usr/include/finclude/math-vector-fortran.h
REM seed -167566511 -368888787 -419535901 -571037493 1826750982 -200835826 -298090807 -1402733867 -1807118551 -1462170371 -714262200 -1992296503 1037774186 775374980 2040571558 -28337975 -271828449 843771438 859860150 960723669 -1383576608 -1620014298 -417166146 -1199352525 2146831959 617458730 -1200391105 1212454235 -1883467694 -1191123816 1013503827 1654010806 -1482247130
REM
CELL 1.54180   50.00000   50.00000   50.00000   90.00000   90.00000   90.00000
LATT -1
SFAC C  
C      1  0.5308080000000  0.5211270000000  0.5530350000000 1.0
C      1  0.5697960000000  0.5682330000000  0.4641060000000 1.0
C      1  0.5456230000000  0.4572620000000  0.4932740000000 1.0
C      1  0.4883450000000  0.4835670000000  0.4192250000000 1.0
C      1  0.4399870000000  0.4447530000000  0.4679390000000 1.0
C      1  0.4298310000000  0.5078540000000  0.5076180000000 1.0
C      1  0.4992880000000  0.4907920000000  0.4953750000000 1.0
C      1  0.4703380000000  0.5098250000000  0.4624360000000 1.0
C      1  0.4864090000000  0.5592080000000  0.4587380000000 1.0
C      1  0.4606160000000  0.5429910000000  0.5549040000000 1.0
C      1  0.5492160000000  0.4667590000000  0.5723320000000 1.0
C      1  0.4523920000000  0.5132490000000  0.4832430000000 1.0
C      1  0.4268840000000  0.4616640000000  0.4863570000000 1.0
C      1  0.5505530000000  0.4766190000000  0.5169370000000 1.0
C      1  0.4385970000000  0.5278840000000  0.5657370000000 1.0
C      1  0.5209170000000  0.4998860000000  0.4511490000000 1.0
C      1  0.5118690000000  0.4771220000000  0.5628140000000 1.0
C      1  0.4109870000000  0.4803540000000  0.5062270000000 1.0
C      1  0.5094340000000  0.5531210000000  0.5240460000000 1.0
C      1  0.5249980000000  0.5140190000000  0.4242080000000 1.0
C      1  0.5684540000000  0.5112330000000  0.4655750000000 1.0
C      1  0.5184500000000  0.5498520000000  0.4988450000000 1.0
C      1  0.4495150000000  0.4731370000000  0.5050030000000 1.0
C      1  0.5644700000000  0.5340220000000  0.4981910000000 1.0
C      1  0.4893950000000  0.5156220000000  0.5861710000000 1.0
C      1  0.5366300000000  0.5262940000000  0.4948210000000 1.0
C      1  0.4868980000000  0.5364440000000  0.5656710000000 1.0
C      1  0.4649650000000  0.5047370000000  0.5961910000000 1.0
C      1  0.4452580000000  0.5018420000000  0.5758030000000 1.0
C      1  0.5025480000000  0.5115120000000  0.4077210000000 1.0
C      1  0.5499560000000  0.5019550000000  0.5359660000000 1.0
C      1  0.5577720000000  0.4491070000000  0.5909860000000 1.0
C      1  0.4486290000000  0.5346520000000  0.5068120000000 1.0
C      1  0.4820380000000  0.5342890000000  0.4105780000000 1.0
C      1  0.4664660000000  0.5083970000000  0.4239350000000 1.0
C      1  0.5349450000000  0.4653710000000  0.5418520000000 1.0
C      1  0.4340400000000  0.4843810000000  0.5315480000000 1.0
C      1  0.4578970000000  0.5501880000000  0.5275620000000 1.0
C      1  0.4887080000000  0.4602140000000  0.4670810000000 1.0
C      1  0.5099470000000  0.5394590000000  0.5488660000000 1.0
C      1  0.4746160000000  0.4312360000000  0.5002020000000 1.0
C      1  0.5022100000000  0.4573590000000  0.5367430000000 1.0
C      1  0.4676660000000  0.4416690000000  0.4737660000000 1.0
C      1  0.4975770000000  0.4432920000000  0.5104890000000 1.0
C      1  0.5471270000000  0.4854770000000  0.4620110000000 1.0
C      1  0.5369510000000  0.4556500000000  0.4607680000000 1.0
C      1  0.4761120000000  0.4789910000000  0.5011760000000 1.0
C      1  0.5410750000000  0.5812420000000  0.4617590000000 1.0
C      1  0.4738000000000  0.5358570000000  0.4435050000000 1.0
C      1  0.4897680000000  0.4871640000000  0.4526270000000 1.0
C      1  0.5563150000000  0.4955500000000  0.4924310000000 1.0
C      1  0.5245020000000  0.4492760000000  0.4336050000000 1.0
C      1  0.5088170000000  0.4959920000000  0.5806680000000 1.0
C      1  0.5138990000000  0.4531290000000  0.4856690000000 1.0
C      1  0.4505630000000  0.4821790000000  0.5556050000000 1.0
C      1  0.5376210000000  0.5495770000000  0.4507530000000 1.0
C      1  0.5186910000000  0.5042510000000  0.4828150000000 1.0
C      1  0.5143220000000  0.5625420000000  0.4713830000000 1.0
C      1  0.5661260000000  0.5374740000000  0.4575370000000 1.0
C      1  0.5469890000000  0.4957870000000  0.5669010000000 1.0
C      1  0.5069940000000  0.4584510000000  0.4185460000000 1.0
C      1  0.4743920000000  0.4688580000000  0.5521610000000 1.0
END
