TITL C-2778430-5657-295 0.117084831042472 125000 -509.991371969548 0 0 88 (C1) n - 1
REM
REM in /home/nfs/bkarasulu/CARBON/AIRSS/Generating-Clusters/REBO/Only-C1/SD-CG/HFTN-CG
REM
REM
REM
REM
REM
REM ./C.cell (11c1c37f851c82e70ff6c80c92926a4b)
REM
REM compiler GCC version 9.2.1 20190827 (Red Hat 9.2.1-1)
REM options -cpp -mtune=generic -march=x86-64 -g -O0 -fpre-include=/usr/include/finclude/math-vector-fortran.h
REM seed -1831913181 201050533 1398446858 -962924409 1578400579 888126642 -787138524 -1122851365 13722912 95041971 -1068514120 9449625 1578036534 -1943291294 2116016969 1355373586 -889291961 181013294 -275908280 1864877914 -2055078944 -1977236504 1836178976 -504974808 1679173270 -1259079606 609920683 256703207 -1080401431 269730771 580029324 1954432742 926128704
REM
CELL 1.54180   50.00000   50.00000   50.00000   90.00000   90.00000   90.00000
LATT -1
SFAC C  
C      1  0.5168680000000  0.4208590000000  0.4754890000000 1.0
C      1  0.5809810000000  0.4767140000000  0.5363810000000 1.0
C      1  0.5722260000000  0.5526170000000  0.5103020000000 1.0
C      1  0.5587220000000  0.4746770000000  0.4371990000000 1.0
C      1  0.4502210000000  0.5280500000000  0.4805370000000 1.0
C      1  0.4897500000000  0.4951240000000  0.4286170000000 1.0
C      1  0.5439510000000  0.5181090000000  0.4197480000000 1.0
C      1  0.4118490000000  0.5089030000000  0.5181770000000 1.0
C      1  0.4456360000000  0.5607680000000  0.4584320000000 1.0
C      1  0.4595120000000  0.4600340000000  0.4284750000000 1.0
C      1  0.4882300000000  0.5454490000000  0.5758760000000 1.0
C      1  0.5749600000000  0.5387840000000  0.5352370000000 1.0
C      1  0.4970460000000  0.5168360000000  0.5815420000000 1.0
C      1  0.5206420000000  0.4845510000000  0.4660590000000 1.0
C      1  0.4710990000000  0.4454400000000  0.5727280000000 1.0
C      1  0.5312350000000  0.4335560000000  0.4261880000000 1.0
C      1  0.5705700000000  0.5180670000000  0.4587180000000 1.0
C      1  0.4825620000000  0.4425130000000  0.4335640000000 1.0
C      1  0.5830420000000  0.4655930000000  0.5095720000000 1.0
C      1  0.4999470000000  0.4363000000000  0.4984880000000 1.0
C      1  0.5283350000000  0.5333030000000  0.5074370000000 1.0
C      1  0.4516340000000  0.5592620000000  0.4892500000000 1.0
C      1  0.5044220000000  0.4800950000000  0.5154460000000 1.0
C      1  0.4347360000000  0.4581000000000  0.5143000000000 1.0
C      1  0.4597990000000  0.4737290000000  0.5634980000000 1.0
C      1  0.5068560000000  0.4482330000000  0.4179980000000 1.0
C      1  0.5505830000000  0.5436600000000  0.4642250000000 1.0
C      1  0.4284640000000  0.4809130000000  0.5609470000000 1.0
C      1  0.4859260000000  0.4921950000000  0.5523310000000 1.0
C      1  0.5209090000000  0.5820190000000  0.5643990000000 1.0
C      1  0.4923380000000  0.4264570000000  0.5227040000000 1.0
C      1  0.5422140000000  0.4883780000000  0.5662480000000 1.0
C      1  0.5135650000000  0.4594400000000  0.5322210000000 1.0
C      1  0.5027080000000  0.5599470000000  0.5529480000000 1.0
C      1  0.5295510000000  0.4905990000000  0.4336430000000 1.0
C      1  0.4153040000000  0.4661120000000  0.4875210000000 1.0
C      1  0.4277410000000  0.5151700000000  0.4885200000000 1.0
C      1  0.5786660000000  0.5058200000000  0.5366540000000 1.0
C      1  0.4977610000000  0.4622220000000  0.5596380000000 1.0
C      1  0.5935000000000  0.4841300000000  0.4904480000000 1.0
C      1  0.4206100000000  0.4828020000000  0.5317080000000 1.0
C      1  0.4616180000000  0.5508330000000  0.5800140000000 1.0
C      1  0.5668880000000  0.5041740000000  0.4336870000000 1.0
C      1  0.5402110000000  0.5428980000000  0.4315140000000 1.0
C      1  0.4372780000000  0.5520110000000  0.5346420000000 1.0
C      1  0.4456420000000  0.5123390000000  0.4331370000000 1.0
C      1  0.5092220000000  0.4766180000000  0.4147070000000 1.0
C      1  0.4848490000000  0.5276280000000  0.5000380000000 1.0
C      1  0.4942390000000  0.5531820000000  0.4615900000000 1.0
C      1  0.4413670000000  0.5332320000000  0.5620030000000 1.0
C      1  0.5365690000000  0.4143270000000  0.4507190000000 1.0
C      1  0.4162240000000  0.5294190000000  0.5392820000000 1.0
C      1  0.5198910000000  0.5382570000000  0.5382700000000 1.0
C      1  0.4064020000000  0.4922010000000  0.4890570000000 1.0
C      1  0.5491250000000  0.5478800000000  0.4944270000000 1.0
C      1  0.5563010000000  0.4665240000000  0.5496780000000 1.0
C      1  0.5403860000000  0.4534540000000  0.5294040000000 1.0
C      1  0.5030330000000  0.5104140000000  0.5311890000000 1.0
C      1  0.4904360000000  0.4361070000000  0.4601470000000 1.0
C      1  0.5537080000000  0.4485150000000  0.4443390000000 1.0
C      1  0.4855870000000  0.5757120000000  0.4743960000000 1.0
C      1  0.5457710000000  0.4859140000000  0.4863620000000 1.0
C      1  0.5253620000000  0.5078540000000  0.4981480000000 1.0
C      1  0.4881690000000  0.4314270000000  0.5493110000000 1.0
C      1  0.5200370000000  0.5534030000000  0.4521620000000 1.0
C      1  0.4661820000000  0.5127240000000  0.5693710000000 1.0
C      1  0.4980950000000  0.5038530000000  0.4543210000000 1.0
C      1  0.5173300000000  0.4969410000000  0.5780570000000 1.0
C      1  0.5724810000000  0.4995120000000  0.4794650000000 1.0
C      1  0.4496350000000  0.4299500000000  0.5023830000000 1.0
C      1  0.4791480000000  0.4753150000000  0.4997540000000 1.0
C      1  0.4821310000000  0.5247080000000  0.4685760000000 1.0
C      1  0.4364140000000  0.4469030000000  0.4762440000000 1.0
C      1  0.4841650000000  0.5716930000000  0.5316380000000 1.0
C      1  0.5580110000000  0.5115350000000  0.5587130000000 1.0
C      1  0.4536700000000  0.5655610000000  0.5178240000000 1.0
C      1  0.4894280000000  0.5522120000000  0.5063040000000 1.0
C      1  0.5474790000000  0.4359860000000  0.4753950000000 1.0
C      1  0.4725650000000  0.5036520000000  0.5165050000000 1.0
C      1  0.4543950000000  0.4806640000000  0.5306330000000 1.0
C      1  0.5064190000000  0.4590910000000  0.4756470000000 1.0
C      1  0.4614550000000  0.4891170000000  0.4273820000000 1.0
C      1  0.5117720000000  0.6082390000000  0.5049370000000 1.0
C      1  0.4660960000000  0.4547130000000  0.4877680000000 1.0
C      1  0.5473290000000  0.5385160000000  0.5525440000000 1.0
C      1  0.5528190000000  0.4557040000000  0.4990050000000 1.0
C      1  0.4432540000000  0.5380430000000  0.4424410000000 1.0
C      1  0.4967390000000  0.5855140000000  0.5034570000000 1.0
END
