TITL C-2778436-5916-376 0.00166773669021409 125000 -263.064866808529 0 0 47 (C1) n - 1
REM
REM in /home/nfs/bkarasulu/CARBON/AIRSS/Generating-Clusters/REBO/Only-C1/SD-CG/HFTN-CG
REM
REM
REM
REM
REM
REM ./C.cell (11c1c37f851c82e70ff6c80c92926a4b)
REM
REM compiler GCC version 9.2.1 20190827 (Red Hat 9.2.1-1)
REM options -cpp -mtune=generic -march=x86-64 -g -O0 -fpre-include=/usr/include/finclude/math-vector-fortran.h
REM seed -1765552549 697407186 284191611 2063520859 -1401159918 853758541 720423522 -1965870069 1892204337 -1245951578 -1857790311 -650070253 -796935913 -735324685 460778790 -1412130090 967474421 135591094 1528941674 1263276540 1210412257 -2051263365 -328206207 315394193 -378264339 1396951821 1224035157 1043160164 1914276950 -1495499353 1554528577 1164299990 2055332621
REM
CELL 1.54180   50.00000   50.00000   50.00000   90.00000   90.00000   90.00000
LATT -1
SFAC C  
C      1  0.5140700000000  0.5632760000000  0.5354400000000 1.0
C      1  0.5265620000000  0.4679630000000  0.4679570000000 1.0
C      1  0.4433040000000  0.5106960000000  0.4483380000000 1.0
C      1  0.4591630000000  0.5124630000000  0.5296140000000 1.0
C      1  0.4875020000000  0.5166730000000  0.5165650000000 1.0
C      1  0.5124640000000  0.5445970000000  0.5572570000000 1.0
C      1  0.5176300000000  0.5057100000000  0.5256340000000 1.0
C      1  0.4483130000000  0.4784660000000  0.4491820000000 1.0
C      1  0.4473650000000  0.4813020000000  0.5256310000000 1.0
C      1  0.4860300000000  0.4841520000000  0.5165250000000 1.0
C      1  0.5327050000000  0.4951040000000  0.4835030000000 1.0
C      1  0.5328820000000  0.4501650000000  0.5231080000000 1.0
C      1  0.5215360000000  0.5575840000000  0.4599450000000 1.0
C      1  0.4852460000000  0.5432070000000  0.5031430000000 1.0
C      1  0.4806970000000  0.5064630000000  0.4780870000000 1.0
C      1  0.5089030000000  0.5093210000000  0.4689740000000 1.0
C      1  0.5431020000000  0.5268780000000  0.4899810000000 1.0
C      1  0.4530530000000  0.4962930000000  0.4955430000000 1.0
C      1  0.5321250000000  0.4445840000000  0.4838440000000 1.0
C      1  0.5601470000000  0.5081960000000  0.5339530000000 1.0
C      1  0.4442030000000  0.5217380000000  0.4758300000000 1.0
C      1  0.5712760000000  0.4745350000000  0.4994730000000 1.0
C      1  0.5328260000000  0.4935610000000  0.4228230000000 1.0
C      1  0.4653940000000  0.4949240000000  0.4278800000000 1.0
C      1  0.4948920000000  0.4876460000000  0.5704450000000 1.0
C      1  0.5569900000000  0.4501710000000  0.5026460000000 1.0
C      1  0.4579630000000  0.4711680000000  0.4745750000000 1.0
C      1  0.4795750000000  0.4664920000000  0.4948330000000 1.0
C      1  0.4932130000000  0.4899260000000  0.4259400000000 1.0
C      1  0.5275200000000  0.5207030000000  0.5517870000000 1.0
C      1  0.5124740000000  0.5107120000000  0.4407540000000 1.0
C      1  0.4792440000000  0.4720800000000  0.5476150000000 1.0
C      1  0.4901260000000  0.5384120000000  0.5744870000000 1.0
C      1  0.4655360000000  0.5431640000000  0.4822730000000 1.0
C      1  0.4585630000000  0.4966090000000  0.5569970000000 1.0
C      1  0.5221950000000  0.4912580000000  0.5622710000000 1.0
C      1  0.4830680000000  0.4386020000000  0.5065540000000 1.0
C      1  0.5564620000000  0.5016260000000  0.5071100000000 1.0
C      1  0.5293300000000  0.5510800000000  0.4866880000000 1.0
C      1  0.4783230000000  0.5125710000000  0.5777470000000 1.0
C      1  0.5273600000000  0.4755680000000  0.5348900000000 1.0
C      1  0.4999650000000  0.5483460000000  0.4455600000000 1.0
C      1  0.4789510000000  0.5323560000000  0.4559570000000 1.0
C      1  0.4634370000000  0.4513660000000  0.5278850000000 1.0
C      1  0.5095360000000  0.5580550000000  0.5074710000000 1.0
C      1  0.5174240000000  0.4711420000000  0.4409650000000 1.0
C      1  0.5113540000000  0.4330930000000  0.5063210000000 1.0
END
