TITL C-2778424-3986-586 2.112798499058e-05 125000 -379.545882177142 0 0 66 (C1) n - 1
REM
REM in /home/nfs/bkarasulu/CARBON/AIRSS/Generating-Clusters/REBO/Only-C1/SD-CG/HFTN-CG
REM
REM
REM
REM
REM
REM ./C.cell (11c1c37f851c82e70ff6c80c92926a4b)
REM
REM compiler GCC version 9.2.1 20190827 (Red Hat 9.2.1-1)
REM options -cpp -mtune=generic -march=x86-64 -g -O0 -fpre-include=/usr/include/finclude/math-vector-fortran.h
REM seed 498107365 -58739075 -229718314 27163545 910983064 -240149128 -1184419034 1911685319 2105189672 289349418 -597664790 846365123 -648823307 -566163811 -574854446 -169676529 -263455423 1628330209 1272406421 -1069030752 -1119487802 -799478392 -616217206 -1335926545 -1156918240 -1872970202 1215159398 -751102406 1635491682 999464767 -960781605 2014896837 -1514648158
REM
CELL 1.54180   50.00000   50.00000   50.00000   90.00000   90.00000   90.00000
LATT -1
SFAC C  
C      1  0.4328880000000  0.4800440000000  0.4956350000000 1.0
C      1  0.3998560000000  0.4957920000000  0.5376510000000 1.0
C      1  0.4269420000000  0.4981390000000  0.5402510000000 1.0
C      1  0.5630250000000  0.4867110000000  0.5006820000000 1.0
C      1  0.4443870000000  0.4840620000000  0.5216830000000 1.0
C      1  0.4542230000000  0.4723870000000  0.4476850000000 1.0
C      1  0.4378380000000  0.5165600000000  0.5600750000000 1.0
C      1  0.4744580000000  0.4928380000000  0.5765380000000 1.0
C      1  0.5634670000000  0.4889580000000  0.4724660000000 1.0
C      1  0.5192240000000  0.4723720000000  0.4531850000000 1.0
C      1  0.4761700000000  0.4181650000000  0.4588260000000 1.0
C      1  0.4663940000000  0.5784060000000  0.4986420000000 1.0
C      1  0.5105960000000  0.5091720000000  0.4401260000000 1.0
C      1  0.4847540000000  0.5103940000000  0.5215540000000 1.0
C      1  0.5068180000000  0.5325410000000  0.5647350000000 1.0
C      1  0.5150730000000  0.4511480000000  0.5481670000000 1.0
C      1  0.4540480000000  0.5370770000000  0.5486160000000 1.0
C      1  0.4499900000000  0.5039370000000  0.5825390000000 1.0
C      1  0.5460510000000  0.4627240000000  0.5402050000000 1.0
C      1  0.4489900000000  0.5207950000000  0.4448450000000 1.0
C      1  0.5231530000000  0.4905700000000  0.5212490000000 1.0
C      1  0.5537410000000  0.4948440000000  0.5473070000000 1.0
C      1  0.4698350000000  0.4699640000000  0.5232590000000 1.0
C      1  0.4959530000000  0.4130680000000  0.5135550000000 1.0
C      1  0.4870260000000  0.4177070000000  0.4875060000000 1.0
C      1  0.4779930000000  0.5239850000000  0.4838160000000 1.0
C      1  0.4756060000000  0.4506580000000  0.4485430000000 1.0
C      1  0.4928030000000  0.4928310000000  0.3987970000000 1.0
C      1  0.4552000000000  0.5348900000000  0.4680830000000 1.0
C      1  0.4851630000000  0.5331220000000  0.5479480000000 1.0
C      1  0.5112280000000  0.5458860000000  0.4811780000000 1.0
C      1  0.5533170000000  0.5430250000000  0.4920830000000 1.0
C      1  0.4973330000000  0.4982940000000  0.4921290000000 1.0
C      1  0.5646290000000  0.5063380000000  0.5213080000000 1.0
C      1  0.5454880000000  0.4824490000000  0.4528120000000 1.0
C      1  0.5175040000000  0.5725360000000  0.4633010000000 1.0
C      1  0.5501760000000  0.4631540000000  0.5103940000000 1.0
C      1  0.5565900000000  0.5201450000000  0.4453720000000 1.0
C      1  0.5019070000000  0.4761010000000  0.5329270000000 1.0
C      1  0.5365960000000  0.5120870000000  0.4274850000000 1.0
C      1  0.4935850000000  0.5770260000000  0.5143000000000 1.0
C      1  0.4364810000000  0.4737790000000  0.4695340000000 1.0
C      1  0.5018540000000  0.4603870000000  0.4347710000000 1.0
C      1  0.4694140000000  0.4480640000000  0.5065440000000 1.0
C      1  0.5348540000000  0.5683580000000  0.4922640000000 1.0
C      1  0.5080180000000  0.4700330000000  0.4822050000000 1.0
C      1  0.5220960000000  0.5798880000000  0.5177100000000 1.0
C      1  0.5594230000000  0.5511730000000  0.5389330000000 1.0
C      1  0.5367000000000  0.5454370000000  0.5619780000000 1.0
C      1  0.5274950000000  0.4245560000000  0.4918210000000 1.0
C      1  0.4522310000000  0.5532300000000  0.4927670000000 1.0
C      1  0.5329460000000  0.5122730000000  0.5663870000000 1.0
C      1  0.4894300000000  0.5465000000000  0.5051140000000 1.0
C      1  0.4888620000000  0.4997720000000  0.4249480000000 1.0
C      1  0.5057480000000  0.4246770000000  0.5360320000000 1.0
C      1  0.4620340000000  0.4970910000000  0.4359960000000 1.0
C      1  0.5295970000000  0.4519540000000  0.4954150000000 1.0
C      1  0.5146940000000  0.5168970000000  0.4705860000000 1.0
C      1  0.5274850000000  0.4791900000000  0.5634960000000 1.0
C      1  0.4839110000000  0.4936720000000  0.5515820000000 1.0
C      1  0.5636230000000  0.5341730000000  0.5168500000000 1.0
C      1  0.5061410000000  0.4562500000000  0.4078770000000 1.0
C      1  0.4600350000000  0.5339310000000  0.5175220000000 1.0
C      1  0.4850500000000  0.4506290000000  0.4795250000000 1.0
C      1  0.5356680000000  0.5722070000000  0.5409940000000 1.0
C      1  0.5461890000000  0.5249800000000  0.4716890000000 1.0
END
