TITL C-2778422-5617-979 0.00480922788522095 125000 -764.083234584656 0 0 134 (C1) n - 1
REM
REM in /home/nfs/bkarasulu/CARBON/AIRSS/Generating-Clusters/REBO/Only-C1/SD-CG/HFTN-CG
REM
REM
REM
REM
REM
REM ./C.cell (11c1c37f851c82e70ff6c80c92926a4b)
REM
REM compiler GCC version 9.2.1 20190827 (Red Hat 9.2.1-1)
REM options -cpp -mtune=generic -march=x86-64 -g -O0 -fpre-include=/usr/include/finclude/math-vector-fortran.h
REM seed 8451030 1522520667 1696626908 -1159543639 -637559686 659370617 1324889360 -25242474 -1582455557 -1006212015 -2066297338 1387914340 -243270051 -665328804 1796417891 1348015923 461677873 -1526508565 2044151947 -2118360605 -1565478372 496884590 -672070815 1774755405 -879029206 1557808356 -1151604719 -793903888 -968270999 -1011038722 1331118501 -968000445 273033571
REM
CELL 1.54180   50.00000   50.00000   50.00000   90.00000   90.00000   90.00000
LATT -1
SFAC C  
C      1  0.5926990000000  0.4966150000000  0.4442270000000 1.0
C      1  0.5753660000000  0.5586240000000  0.5401260000000 1.0
C      1  0.4510020000000  0.5559070000000  0.4560870000000 1.0
C      1  0.4892420000000  0.5773820000000  0.5404840000000 1.0
C      1  0.4660910000000  0.4340730000000  0.5651740000000 1.0
C      1  0.4904110000000  0.5116080000000  0.5730720000000 1.0
C      1  0.5771040000000  0.5223460000000  0.4321290000000 1.0
C      1  0.4361630000000  0.5358710000000  0.4775250000000 1.0
C      1  0.5144490000000  0.4748630000000  0.4244880000000 1.0
C      1  0.4358220000000  0.4301080000000  0.5574080000000 1.0
C      1  0.4455720000000  0.5225560000000  0.5288640000000 1.0
C      1  0.5654210000000  0.5659220000000  0.4817380000000 1.0
C      1  0.4232280000000  0.4360010000000  0.5336580000000 1.0
C      1  0.5671090000000  0.5484140000000  0.4594650000000 1.0
C      1  0.4535260000000  0.5268160000000  0.5709460000000 1.0
C      1  0.5331660000000  0.5802930000000  0.4481300000000 1.0
C      1  0.4577740000000  0.4898090000000  0.4595780000000 1.0
C      1  0.5404980000000  0.5821370000000  0.4764890000000 1.0
C      1  0.4635650000000  0.4098830000000  0.4786610000000 1.0
C      1  0.5526820000000  0.4715980000000  0.5392490000000 1.0
C      1  0.4410130000000  0.4420830000000  0.4420580000000 1.0
C      1  0.5018380000000  0.4613970000000  0.5409930000000 1.0
C      1  0.5299840000000  0.5955410000000  0.5256260000000 1.0
C      1  0.5305580000000  0.4487330000000  0.5494940000000 1.0
C      1  0.5823790000000  0.4976670000000  0.5447490000000 1.0
C      1  0.5606940000000  0.4717010000000  0.4886870000000 1.0
C      1  0.4788490000000  0.4700300000000  0.4691040000000 1.0
C      1  0.5270480000000  0.4888310000000  0.5644460000000 1.0
C      1  0.5048130000000  0.5485450000000  0.5665850000000 1.0
C      1  0.4351740000000  0.4423540000000  0.5081430000000 1.0
C      1  0.5486390000000  0.5585270000000  0.4374890000000 1.0
C      1  0.6022580000000  0.4612610000000  0.5055330000000 1.0
C      1  0.4115900000000  0.5536120000000  0.4622930000000 1.0
C      1  0.4883780000000  0.4121940000000  0.5510870000000 1.0
C      1  0.5122270000000  0.5036150000000  0.5052940000000 1.0
C      1  0.5400910000000  0.4314250000000  0.4251910000000 1.0
C      1  0.5051690000000  0.5135110000000  0.6026450000000 1.0
C      1  0.4099300000000  0.5095870000000  0.4627940000000 1.0
C      1  0.5004000000000  0.5860780000000  0.4748060000000 1.0
C      1  0.5012630000000  0.5793190000000  0.4445570000000 1.0
C      1  0.5626580000000  0.4325100000000  0.4820800000000 1.0
C      1  0.4744280000000  0.5663530000000  0.4337260000000 1.0
C      1  0.4810950000000  0.4712610000000  0.4215810000000 1.0
C      1  0.4585360000000  0.5015350000000  0.5493370000000 1.0
C      1  0.4938410000000  0.5570970000000  0.4908920000000 1.0
C      1  0.4772190000000  0.5488420000000  0.5654000000000 1.0
C      1  0.5005350000000  0.5311740000000  0.5129180000000 1.0
C      1  0.5825400000000  0.4715300000000  0.5261430000000 1.0
C      1  0.4085510000000  0.4884540000000  0.5344940000000 1.0
C      1  0.5100210000000  0.5609350000000  0.5265860000000 1.0
C      1  0.5895930000000  0.4823590000000  0.4740850000000 1.0
C      1  0.5924260000000  0.4483190000000  0.4772890000000 1.0
C      1  0.5515320000000  0.5314250000000  0.5759660000000 1.0
C      1  0.5887540000000  0.5273420000000  0.5021970000000 1.0
C      1  0.5173530000000  0.4198670000000  0.5372200000000 1.0
C      1  0.5760070000000  0.5296720000000  0.5400150000000 1.0
C      1  0.5609990000000  0.4899960000000  0.4461480000000 1.0
C      1  0.4324210000000  0.4669130000000  0.4610530000000 1.0
C      1  0.5096660000000  0.5488000000000  0.4407260000000 1.0
C      1  0.5020460000000  0.4343660000000  0.4706960000000 1.0
C      1  0.4906240000000  0.4787010000000  0.4993700000000 1.0
C      1  0.5662770000000  0.5172530000000  0.4657850000000 1.0
C      1  0.5390530000000  0.4207170000000  0.4769670000000 1.0
C      1  0.5489680000000  0.4304530000000  0.5296490000000 1.0
C      1  0.4168510000000  0.5290950000000  0.5118510000000 1.0
C      1  0.4539110000000  0.5142120000000  0.4908250000000 1.0
C      1  0.4674390000000  0.5392400000000  0.4239500000000 1.0
C      1  0.4850980000000  0.4870170000000  0.5960480000000 1.0
C      1  0.5221980000000  0.5321720000000  0.5858880000000 1.0
C      1  0.4750040000000  0.5986290000000  0.5209680000000 1.0
C      1  0.4713710000000  0.4601230000000  0.5803940000000 1.0
C      1  0.5973920000000  0.5062960000000  0.4931050000000 1.0
C      1  0.5272120000000  0.5558110000000  0.4908960000000 1.0
C      1  0.5057570000000  0.5914810000000  0.5072180000000 1.0
C      1  0.4718920000000  0.4444960000000  0.4278820000000 1.0
C      1  0.4810330000000  0.4925870000000  0.5274070000000 1.0
C      1  0.5547380000000  0.4636580000000  0.4493310000000 1.0
C      1  0.4503240000000  0.5773870000000  0.5313660000000 1.0
C      1  0.5194950000000  0.4193780000000  0.5034810000000 1.0
C      1  0.4101390000000  0.5096420000000  0.5545620000000 1.0
C      1  0.4291930000000  0.5052430000000  0.5758780000000 1.0
C      1  0.5277000000000  0.5093030000000  0.5416320000000 1.0
C      1  0.4537510000000  0.4880840000000  0.5111410000000 1.0
C      1  0.5432650000000  0.5254010000000  0.4342190000000 1.0
C      1  0.4708330000000  0.5896860000000  0.4880850000000 1.0
C      1  0.5576050000000  0.5032460000000  0.4952020000000 1.0
C      1  0.4749000000000  0.3911190000000  0.5363660000000 1.0
C      1  0.4940120000000  0.4070710000000  0.4908410000000 1.0
C      1  0.4510170000000  0.5848740000000  0.4670510000000 1.0
C      1  0.4077130000000  0.5085690000000  0.4902270000000 1.0
C      1  0.4558850000000  0.4940520000000  0.4201180000000 1.0
C      1  0.5407030000000  0.5827500000000  0.5440230000000 1.0
C      1  0.4847190000000  0.5164220000000  0.4793150000000 1.0
C      1  0.4593070000000  0.5207780000000  0.4489060000000 1.0
C      1  0.4925490000000  0.5245790000000  0.4513400000000 1.0
C      1  0.5102530000000  0.5351340000000  0.4142390000000 1.0
C      1  0.4225330000000  0.4614610000000  0.4905200000000 1.0
C      1  0.5768420000000  0.4472480000000  0.4482410000000 1.0
C      1  0.5332000000000  0.4607450000000  0.4716750000000 1.0
C      1  0.4982070000000  0.5097870000000  0.5465370000000 1.0
C      1  0.4207860000000  0.5664340000000  0.5251520000000 1.0
C      1  0.4163640000000  0.5572960000000  0.4955290000000 1.0
C      1  0.5071450000000  0.4662400000000  0.4543550000000 1.0
C      1  0.5228600000000  0.4525980000000  0.4994970000000 1.0
C      1  0.4056250000000  0.4827650000000  0.5025180000000 1.0
C      1  0.4596660000000  0.4138590000000  0.4470810000000 1.0
C      1  0.4154940000000  0.5399120000000  0.5445810000000 1.0
C      1  0.5344530000000  0.4535480000000  0.4144080000000 1.0
C      1  0.4878280000000  0.5043140000000  0.4263050000000 1.0
C      1  0.5655880000000  0.4464060000000  0.5110320000000 1.0
C      1  0.4630830000000  0.4422980000000  0.4680240000000 1.0
C      1  0.5303980000000  0.5112670000000  0.4823270000000 1.0
C      1  0.5295790000000  0.5354010000000  0.4638900000000 1.0
C      1  0.5365970000000  0.5526770000000  0.5549760000000 1.0
C      1  0.4489420000000  0.4808650000000  0.5734830000000 1.0
C      1  0.5211760000000  0.5058880000000  0.4184750000000 1.0
C      1  0.4677390000000  0.4002290000000  0.5104970000000 1.0
C      1  0.4901360000000  0.4460450000000  0.4986290000000 1.0
C      1  0.5691160000000  0.5094740000000  0.5736520000000 1.0
C      1  0.5243380000000  0.4755750000000  0.5206380000000 1.0
C      1  0.4355110000000  0.4768130000000  0.5280910000000 1.0
C      1  0.5411580000000  0.5498870000000  0.5213280000000 1.0
C      1  0.4297340000000  0.4949090000000  0.4418890000000 1.0
C      1  0.5011820000000  0.4732470000000  0.5702770000000 1.0
C      1  0.5257950000000  0.4180030000000  0.4477780000000 1.0
C      1  0.4810000000000  0.4413750000000  0.5371340000000 1.0
C      1  0.5707630000000  0.5523920000000  0.5076180000000 1.0
C      1  0.4453630000000  0.5543180000000  0.5539070000000 1.0
C      1  0.4924050000000  0.4218850000000  0.4419140000000 1.0
C      1  0.4694120000000  0.5336920000000  0.5119690000000 1.0
C      1  0.5536840000000  0.5107060000000  0.5256510000000 1.0
C      1  0.4647180000000  0.5632510000000  0.5065130000000 1.0
C      1  0.4646190000000  0.4338390000000  0.5103980000000 1.0
C      1  0.5553760000000  0.4830990000000  0.5703610000000 1.0
END
