TITL C-2778435-5768-543 -0.00762877297770341 125000 -574.397948397744 0 0 98 (C1) n - 1
REM
REM in /home/nfs/bkarasulu/CARBON/AIRSS/Generating-Clusters/REBO/Only-C1/SD-CG/HFTN-CG
REM
REM
REM
REM
REM
REM ./C.cell (11c1c37f851c82e70ff6c80c92926a4b)
REM
REM compiler GCC version 9.2.1 20190827 (Red Hat 9.2.1-1)
REM options -cpp -mtune=generic -march=x86-64 -g -O0 -fpre-include=/usr/include/finclude/math-vector-fortran.h
REM seed 205995159 1892735907 1611175782 -1047614913 -1958539040 -364024358 -1418579526 -169238335 1920121505 -1039230998 -52153258 -878690566 -894825606 1749003441 -695333724 483446453 2070849062 -1125241119 -733569847 1250441579 -1207946606 -1300811122 905626641 1594277795 1781328141 -1291951315 1243921503 1681337095 438099426 769448764 -1819568837 1763450288 441662992
REM
CELL 1.54180   50.00000   50.00000   50.00000   90.00000   90.00000   90.00000
LATT -1
SFAC C  
C      1  0.5285220000000  0.5515350000000  0.4310730000000 1.0
C      1  0.4366720000000  0.4734450000000  0.5537180000000 1.0
C      1  0.4838620000000  0.5048830000000  0.4770730000000 1.0
C      1  0.5217700000000  0.5823320000000  0.5052130000000 1.0
C      1  0.5080260000000  0.4081730000000  0.5085080000000 1.0
C      1  0.4551730000000  0.5351710000000  0.4215350000000 1.0
C      1  0.4862610000000  0.5342710000000  0.4352850000000 1.0
C      1  0.5466310000000  0.5325120000000  0.5372340000000 1.0
C      1  0.5313640000000  0.4945420000000  0.4810610000000 1.0
C      1  0.5022860000000  0.5853110000000  0.4589090000000 1.0
C      1  0.5226130000000  0.4801940000000  0.5844890000000 1.0
C      1  0.4719280000000  0.5736210000000  0.4991800000000 1.0
C      1  0.4897530000000  0.5284960000000  0.4026800000000 1.0
C      1  0.5541010000000  0.4971780000000  0.5679060000000 1.0
C      1  0.4699200000000  0.4301730000000  0.5367450000000 1.0
C      1  0.4856860000000  0.4546180000000  0.4399280000000 1.0
C      1  0.5480360000000  0.4322480000000  0.5024060000000 1.0
C      1  0.4514090000000  0.5132620000000  0.4053460000000 1.0
C      1  0.4248470000000  0.4500160000000  0.5051370000000 1.0
C      1  0.5479700000000  0.5672470000000  0.5180260000000 1.0
C      1  0.4610080000000  0.4685560000000  0.4392620000000 1.0
C      1  0.5771120000000  0.4695460000000  0.5201720000000 1.0
C      1  0.5747840000000  0.4975240000000  0.5244790000000 1.0
C      1  0.4370810000000  0.4993760000000  0.4769100000000 1.0
C      1  0.4629640000000  0.4541810000000  0.4892440000000 1.0
C      1  0.4633440000000  0.5572340000000  0.4430380000000 1.0
C      1  0.4243830000000  0.4509970000000  0.4797200000000 1.0
C      1  0.4268580000000  0.5192200000000  0.5326090000000 1.0
C      1  0.4806450000000  0.4971440000000  0.3973190000000 1.0
C      1  0.5500910000000  0.4529040000000  0.4489380000000 1.0
C      1  0.4463230000000  0.5635660000000  0.5125830000000 1.0
C      1  0.5012850000000  0.5423180000000  0.5252490000000 1.0
C      1  0.5237610000000  0.5386030000000  0.5707390000000 1.0
C      1  0.5361510000000  0.4356330000000  0.5563980000000 1.0
C      1  0.4813160000000  0.5060320000000  0.5098830000000 1.0
C      1  0.4203990000000  0.5287250000000  0.4832260000000 1.0
C      1  0.5197480000000  0.5941350000000  0.4796270000000 1.0
C      1  0.4861540000000  0.4744890000000  0.4781290000000 1.0
C      1  0.5347980000000  0.4682120000000  0.5108910000000 1.0
C      1  0.4599900000000  0.4487260000000  0.5598460000000 1.0
C      1  0.4757610000000  0.5389750000000  0.4753750000000 1.0
C      1  0.4938680000000  0.4154740000000  0.5377870000000 1.0
C      1  0.5316650000000  0.5003310000000  0.4475680000000 1.0
C      1  0.5142370000000  0.4206270000000  0.5568430000000 1.0
C      1  0.4456300000000  0.4718130000000  0.4657430000000 1.0
C      1  0.5437730000000  0.5439400000000  0.4547590000000 1.0
C      1  0.5481200000000  0.4356450000000  0.4713970000000 1.0
C      1  0.5072290000000  0.4845380000000  0.4072630000000 1.0
C      1  0.5137280000000  0.5756610000000  0.4348140000000 1.0
C      1  0.4567170000000  0.4843730000000  0.4171400000000 1.0
C      1  0.4850170000000  0.5701450000000  0.5519660000000 1.0
C      1  0.4968070000000  0.5321120000000  0.5549440000000 1.0
C      1  0.4530270000000  0.5263250000000  0.4902600000000 1.0
C      1  0.5197760000000  0.4386120000000  0.5185510000000 1.0
C      1  0.4695160000000  0.5399180000000  0.5730660000000 1.0
C      1  0.5252430000000  0.5038310000000  0.4180040000000 1.0
C      1  0.5673420000000  0.5461430000000  0.4978380000000 1.0
C      1  0.4969460000000  0.5712600000000  0.5138490000000 1.0
C      1  0.5260520000000  0.5276670000000  0.4761150000000 1.0
C      1  0.5624400000000  0.5109260000000  0.5453740000000 1.0
C      1  0.4758490000000  0.5721050000000  0.4675820000000 1.0
C      1  0.4422410000000  0.4706460000000  0.5215180000000 1.0
C      1  0.4221910000000  0.4986390000000  0.5566150000000 1.0
C      1  0.5000420000000  0.5372620000000  0.4934010000000 1.0
C      1  0.5083590000000  0.3807760000000  0.5038720000000 1.0
C      1  0.5565400000000  0.4805690000000  0.4536890000000 1.0
C      1  0.4720420000000  0.4636040000000  0.5865680000000 1.0
C      1  0.4691010000000  0.4790200000000  0.5498770000000 1.0
C      1  0.5067110000000  0.4594070000000  0.4209120000000 1.0
C      1  0.5718330000000  0.4875180000000  0.4762500000000 1.0
C      1  0.5320870000000  0.4481400000000  0.4273800000000 1.0
C      1  0.4970460000000  0.4438690000000  0.4672640000000 1.0
C      1  0.5113320000000  0.5098300000000  0.5253700000000 1.0
C      1  0.4658820000000  0.5566880000000  0.5366680000000 1.0
C      1  0.5188530000000  0.5313870000000  0.4123670000000 1.0
C      1  0.4625650000000  0.4380600000000  0.5104340000000 1.0
C      1  0.5367130000000  0.4993100000000  0.5126550000000 1.0
C      1  0.4961140000000  0.4591920000000  0.5153940000000 1.0
C      1  0.5186870000000  0.4254930000000  0.4812070000000 1.0
C      1  0.4753640000000  0.4773070000000  0.5193430000000 1.0
C      1  0.5536180000000  0.4532920000000  0.5337870000000 1.0
C      1  0.5410280000000  0.5611090000000  0.5509280000000 1.0
C      1  0.5103030000000  0.5689520000000  0.5616740000000 1.0
C      1  0.5653530000000  0.5118730000000  0.4975400000000 1.0
C      1  0.5371480000000  0.5382820000000  0.5064610000000 1.0
C      1  0.5823290000000  0.4655580000000  0.4922540000000 1.0
C      1  0.4583200000000  0.5268110000000  0.5221790000000 1.0
C      1  0.5023210000000  0.5175620000000  0.4534350000000 1.0
C      1  0.4926500000000  0.4998600000000  0.5521490000000 1.0
C      1  0.4699620000000  0.5103210000000  0.5747070000000 1.0
C      1  0.5320570000000  0.5114780000000  0.5828370000000 1.0
C      1  0.5179340000000  0.4654380000000  0.4826920000000 1.0
C      1  0.5462860000000  0.4659630000000  0.5647210000000 1.0
C      1  0.4242610000000  0.5446110000000  0.5107980000000 1.0
C      1  0.4328610000000  0.4977180000000  0.5092640000000 1.0
C      1  0.5664520000000  0.5536750000000  0.4673110000000 1.0
C      1  0.4999980000000  0.4648250000000  0.5902750000000 1.0
C      1  0.4596490000000  0.4891820000000  0.5902530000000 1.0
END
