TITL C-2778431-5191-1240 -0.00417550752798304 125000 -1080.37810288517 0 0 186 (C1) n - 1
REM
REM in /home/nfs/bkarasulu/CARBON/AIRSS/Generating-Clusters/REBO/Only-C1/SD-CG/HFTN-CG
REM
REM
REM
REM
REM
REM ./C.cell (11c1c37f851c82e70ff6c80c92926a4b)
REM
REM compiler GCC version 9.2.1 20190827 (Red Hat 9.2.1-1)
REM options -cpp -mtune=generic -march=x86-64 -g -O0 -fpre-include=/usr/include/finclude/math-vector-fortran.h
REM seed -233304676 -1281558040 -2116265302 12760754 -388313840 1299562317 -531680279 1088526720 241480428 441847616 514056793 1764613935 1082857543 -1329859524 594954847 -107902938 886464782 2112079312 -1513695595 -400022677 -1476295460 668674051 -856557055 1236001138 -1775651591 81213789 -1427588066 1598365181 -1037824224 -1359583911 554325004 1439521965 -437351081
REM
CELL 1.54180   50.00000   50.00000   50.00000   90.00000   90.00000   90.00000
LATT -1
SFAC C  
C      1  0.5835380000000  0.5234030000000  0.4345540000000 1.0
C      1  0.4468970000000  0.5177350000000  0.5312710000000 1.0
C      1  0.5328930000000  0.4518000000000  0.4171060000000 1.0
C      1  0.3891370000000  0.4573030000000  0.5128800000000 1.0
C      1  0.5758950000000  0.4223980000000  0.4523460000000 1.0
C      1  0.6170710000000  0.4719030000000  0.5317620000000 1.0
C      1  0.4281140000000  0.5116340000000  0.5814260000000 1.0
C      1  0.4872100000000  0.5037610000000  0.4307100000000 1.0
C      1  0.3967430000000  0.5105010000000  0.5125760000000 1.0
C      1  0.5988240000000  0.5238920000000  0.5477720000000 1.0
C      1  0.5598660000000  0.4479740000000  0.5069930000000 1.0
C      1  0.5000210000000  0.5776110000000  0.4883560000000 1.0
C      1  0.5205490000000  0.4888330000000  0.3884040000000 1.0
C      1  0.5174870000000  0.4931510000000  0.5625490000000 1.0
C      1  0.4616040000000  0.4229260000000  0.5411000000000 1.0
C      1  0.4310130000000  0.4350000000000  0.5497570000000 1.0
C      1  0.5054290000000  0.3848650000000  0.5282400000000 1.0
C      1  0.5398180000000  0.5671540000000  0.5001790000000 1.0
C      1  0.4785290000000  0.5916170000000  0.6346520000000 1.0
C      1  0.5317640000000  0.5432890000000  0.4045720000000 1.0
C      1  0.4837310000000  0.4229030000000  0.4186370000000 1.0
C      1  0.4084650000000  0.5071700000000  0.5594010000000 1.0
C      1  0.4430250000000  0.5345610000000  0.4448680000000 1.0
C      1  0.4947820000000  0.4724510000000  0.5562480000000 1.0
C      1  0.5410560000000  0.4876950000000  0.5407750000000 1.0
C      1  0.5178950000000  0.6005340000000  0.4723480000000 1.0
C      1  0.5112500000000  0.3881760000000  0.5002580000000 1.0
C      1  0.5451160000000  0.5556230000000  0.5954530000000 1.0
C      1  0.4538320000000  0.4655780000000  0.4246170000000 1.0
C      1  0.5090060000000  0.5122580000000  0.5183720000000 1.0
C      1  0.4746240000000  0.6065420000000  0.5200240000000 1.0
C      1  0.5213240000000  0.4687000000000  0.5858770000000 1.0
C      1  0.5783500000000  0.4718830000000  0.4469540000000 1.0
C      1  0.5254460000000  0.4024190000000  0.5480040000000 1.0
C      1  0.4205090000000  0.4377340000000  0.4640970000000 1.0
C      1  0.5004290000000  0.6112730000000  0.5283190000000 1.0
C      1  0.5048180000000  0.5729460000000  0.5182930000000 1.0
C      1  0.4864970000000  0.5245500000000  0.5413160000000 1.0
C      1  0.4581850000000  0.4368050000000  0.5713980000000 1.0
C      1  0.4876390000000  0.4056290000000  0.4578070000000 1.0
C      1  0.5527880000000  0.5703590000000  0.4463140000000 1.0
C      1  0.5237630000000  0.5305200000000  0.4354850000000 1.0
C      1  0.4704340000000  0.4000700000000  0.5072090000000 1.0
C      1  0.5270860000000  0.5959330000000  0.5287590000000 1.0
C      1  0.4498120000000  0.5499270000000  0.5206210000000 1.0
C      1  0.4380570000000  0.4166600000000  0.4707170000000 1.0
C      1  0.4724080000000  0.6090060000000  0.4544330000000 1.0
C      1  0.4722890000000  0.5286110000000  0.5105870000000 1.0
C      1  0.6011070000000  0.4711320000000  0.4707630000000 1.0
C      1  0.4596930000000  0.4502650000000  0.4711670000000 1.0
C      1  0.5541490000000  0.4066780000000  0.5353180000000 1.0
C      1  0.4508660000000  0.4439610000000  0.4968290000000 1.0
C      1  0.3865370000000  0.4689560000000  0.4802850000000 1.0
C      1  0.4302000000000  0.4639990000000  0.5628460000000 1.0
C      1  0.5621840000000  0.5503280000000  0.5690060000000 1.0
C      1  0.4614620000000  0.5454270000000  0.5913820000000 1.0
C      1  0.5092010000000  0.5632620000000  0.4148240000000 1.0
C      1  0.4748390000000  0.5667930000000  0.4714220000000 1.0
C      1  0.4503300000000  0.4816120000000  0.6168130000000 1.0
C      1  0.4881540000000  0.5388500000000  0.4838370000000 1.0
C      1  0.4902350000000  0.4269000000000  0.5754270000000 1.0
C      1  0.4065830000000  0.4795130000000  0.5534360000000 1.0
C      1  0.5394720000000  0.5198840000000  0.5428010000000 1.0
C      1  0.5630470000000  0.4972030000000  0.5752140000000 1.0
C      1  0.5332560000000  0.4310590000000  0.4403540000000 1.0
C      1  0.5089130000000  0.5436360000000  0.5074230000000 1.0
C      1  0.5527310000000  0.5861500000000  0.5346450000000 1.0
C      1  0.4355430000000  0.5718010000000  0.5063150000000 1.0
C      1  0.4739030000000  0.3923170000000  0.5386670000000 1.0
C      1  0.5329640000000  0.4776290000000  0.4246830000000 1.0
C      1  0.5196110000000  0.5450410000000  0.5938820000000 1.0
C      1  0.4965750000000  0.5391910000000  0.4508680000000 1.0
C      1  0.5136180000000  0.4435610000000  0.5763790000000 1.0
C      1  0.4438130000000  0.5160270000000  0.4734270000000 1.0
C      1  0.5630940000000  0.4412030000000  0.5534100000000 1.0
C      1  0.3942780000000  0.5080670000000  0.4594630000000 1.0
C      1  0.5583760000000  0.4137360000000  0.4736870000000 1.0
C      1  0.5193250000000  0.5756940000000  0.4411990000000 1.0
C      1  0.4422030000000  0.5151130000000  0.4069330000000 1.0
C      1  0.5195490000000  0.5223820000000  0.5712400000000 1.0
C      1  0.4498420000000  0.5633860000000  0.4301380000000 1.0
C      1  0.5313950000000  0.5500880000000  0.5560780000000 1.0
C      1  0.4557270000000  0.6091070000000  0.4759930000000 1.0
C      1  0.5191160000000  0.4624750000000  0.5369970000000 1.0
C      1  0.5647710000000  0.4454810000000  0.4400500000000 1.0
C      1  0.5739980000000  0.5711120000000  0.4716620000000 1.0
C      1  0.4536790000000  0.5988190000000  0.5023960000000 1.0
C      1  0.5763010000000  0.4113990000000  0.5542690000000 1.0
C      1  0.5559680000000  0.3905370000000  0.4877610000000 1.0
C      1  0.4986270000000  0.6016680000000  0.4487720000000 1.0
C      1  0.4025700000000  0.4754530000000  0.4506060000000 1.0
C      1  0.4797840000000  0.5215860000000  0.5746460000000 1.0
C      1  0.6021430000000  0.4995610000000  0.5260400000000 1.0
C      1  0.5491710000000  0.5169860000000  0.4538170000000 1.0
C      1  0.4875850000000  0.5776080000000  0.6144390000000 1.0
C      1  0.5800410000000  0.4573430000000  0.5288730000000 1.0
C      1  0.4524630000000  0.4339250000000  0.4265870000000 1.0
C      1  0.5504230000000  0.4219230000000  0.5119060000000 1.0
C      1  0.4527930000000  0.5085780000000  0.5604280000000 1.0
C      1  0.4046700000000  0.4521450000000  0.5357030000000 1.0
C      1  0.5479250000000  0.4715040000000  0.4879100000000 1.0
C      1  0.5200140000000  0.3859050000000  0.4255240000000 1.0
C      1  0.4721050000000  0.4709790000000  0.5337580000000 1.0
C      1  0.4244820000000  0.5000620000000  0.4525020000000 1.0
C      1  0.4577880000000  0.4806190000000  0.4611450000000 1.0
C      1  0.4565750000000  0.5035320000000  0.3820790000000 1.0
C      1  0.4803550000000  0.5669990000000  0.4410960000000 1.0
C      1  0.5608950000000  0.5430440000000  0.4349140000000 1.0
C      1  0.4187280000000  0.5556570000000  0.4740560000000 1.0
C      1  0.6166860000000  0.5211070000000  0.5061870000000 1.0
C      1  0.5260650000000  0.4153710000000  0.4971730000000 1.0
C      1  0.4884270000000  0.3902900000000  0.4816970000000 1.0
C      1  0.5901610000000  0.5498280000000  0.5298760000000 1.0
C      1  0.6011960000000  0.5440290000000  0.5043200000000 1.0
C      1  0.4156890000000  0.4573440000000  0.4834940000000 1.0
C      1  0.4907220000000  0.5064910000000  0.6032020000000 1.0
C      1  0.5282760000000  0.5306010000000  0.4749910000000 1.0
C      1  0.5213570000000  0.5078800000000  0.6084530000000 1.0
C      1  0.5227990000000  0.5609090000000  0.4716320000000 1.0
C      1  0.5365540000000  0.5012680000000  0.5004610000000 1.0
C      1  0.4245390000000  0.4528010000000  0.4365260000000 1.0
C      1  0.4388160000000  0.5072460000000  0.6085060000000 1.0
C      1  0.4627430000000  0.5485110000000  0.5510440000000 1.0
C      1  0.5985250000000  0.4664250000000  0.5042340000000 1.0
C      1  0.4284050000000  0.5485620000000  0.5539120000000 1.0
C      1  0.4860560000000  0.5640810000000  0.5659950000000 1.0
C      1  0.5438020000000  0.5974380000000  0.4640770000000 1.0
C      1  0.5398080000000  0.5375620000000  0.5169380000000 1.0
C      1  0.3806610000000  0.4876680000000  0.5076710000000 1.0
C      1  0.5403500000000  0.4425150000000  0.4715730000000 1.0
C      1  0.4471120000000  0.4960980000000  0.4320160000000 1.0
C      1  0.4159630000000  0.5751520000000  0.5714250000000 1.0
C      1  0.5083020000000  0.5670130000000  0.5484910000000 1.0
C      1  0.4130070000000  0.5181800000000  0.4862660000000 1.0
C      1  0.4463940000000  0.5449330000000  0.4032160000000 1.0
C      1  0.5017770000000  0.4622120000000  0.5084590000000 1.0
C      1  0.5125300000000  0.5099510000000  0.4140130000000 1.0
C      1  0.4342090000000  0.4785930000000  0.4859070000000 1.0
C      1  0.5669150000000  0.4746910000000  0.5532090000000 1.0
C      1  0.4325580000000  0.4949400000000  0.5120350000000 1.0
C      1  0.4931400000000  0.4235560000000  0.5033490000000 1.0
C      1  0.4449070000000  0.4142950000000  0.5000510000000 1.0
C      1  0.5103680000000  0.5270910000000  0.3841710000000 1.0
C      1  0.5705900000000  0.5655970000000  0.5427190000000 1.0
C      1  0.4638610000000  0.4225490000000  0.4535320000000 1.0
C      1  0.6234200000000  0.5280890000000  0.5614520000000 1.0
C      1  0.5755600000000  0.4969640000000  0.4269870000000 1.0
C      1  0.5517860000000  0.4951650000000  0.4124710000000 1.0
C      1  0.5978510000000  0.5260490000000  0.4586780000000 1.0
C      1  0.5853490000000  0.4966790000000  0.4965080000000 1.0
C      1  0.4795330000000  0.5241760000000  0.3972890000000 1.0
C      1  0.6335620000000  0.4602750000000  0.5477600000000 1.0
C      1  0.6055400000000  0.5023910000000  0.4707060000000 1.0
C      1  0.5627360000000  0.5811110000000  0.4951050000000 1.0
C      1  0.5178780000000  0.4981620000000  0.4715140000000 1.0
C      1  0.5101680000000  0.4855500000000  0.4454490000000 1.0
C      1  0.5578980000000  0.5265360000000  0.4915950000000 1.0
C      1  0.4763810000000  0.4638370000000  0.5808770000000 1.0
C      1  0.5650640000000  0.4939190000000  0.4690830000000 1.0
C      1  0.4879380000000  0.4942040000000  0.3827480000000 1.0
C      1  0.4694220000000  0.4991200000000  0.4841560000000 1.0
C      1  0.4956100000000  0.4026740000000  0.5614620000000 1.0
C      1  0.5424700000000  0.5150940000000  0.3886170000000 1.0
C      1  0.5417370000000  0.4919480000000  0.5941100000000 1.0
C      1  0.4406680000000  0.5593130000000  0.5825250000000 1.0
C      1  0.4971910000000  0.5627490000000  0.5930000000000 1.0
C      1  0.4634730000000  0.5236640000000  0.6109120000000 1.0
C      1  0.5321730000000  0.4356770000000  0.5516050000000 1.0
C      1  0.4556740000000  0.4778740000000  0.5604170000000 1.0
C      1  0.4984970000000  0.4908590000000  0.4962150000000 1.0
C      1  0.4932980000000  0.4361370000000  0.3953620000000 1.0
C      1  0.5749910000000  0.5221220000000  0.5677690000000 1.0
C      1  0.4761680000000  0.4783810000000  0.6065510000000 1.0
C      1  0.4758820000000  0.5623290000000  0.4077030000000 1.0
C      1  0.4455630000000  0.5705210000000  0.4753500000000 1.0
C      1  0.4789680000000  0.4419040000000  0.5248720000000 1.0
C      1  0.4971060000000  0.4661010000000  0.3979740000000 1.0
C      1  0.5122890000000  0.4430870000000  0.4856400000000 1.0
C      1  0.5100020000000  0.4101690000000  0.4361250000000 1.0
C      1  0.4844020000000  0.4728380000000  0.4258720000000 1.0
C      1  0.5831940000000  0.5430130000000  0.4797640000000 1.0
C      1  0.4128140000000  0.5460610000000  0.5061380000000 1.0
C      1  0.4103890000000  0.5371420000000  0.4516340000000 1.0
C      1  0.4094370000000  0.5306840000000  0.5363610000000 1.0
C      1  0.4712800000000  0.5296840000000  0.4301170000000 1.0
C      1  0.4626090000000  0.4868510000000  0.5122190000000 1.0
END
