TITL C-2778431-5191-225 0.000981952638363092 125000 -849.465853705094 0 0 145 (C1) n - 1
REM
REM in /home/nfs/bkarasulu/CARBON/AIRSS/Generating-Clusters/REBO/Only-C1/SD-CG/HFTN-CG
REM
REM
REM
REM
REM
REM ./C.cell (11c1c37f851c82e70ff6c80c92926a4b)
REM
REM compiler GCC version 9.2.1 20190827 (Red Hat 9.2.1-1)
REM options -cpp -mtune=generic -march=x86-64 -g -O0 -fpre-include=/usr/include/finclude/math-vector-fortran.h
REM seed -699542172 1428828676 1903543644 2043844342 -806015606 885223920 1474694073 1961400624 1636628977 208979922 2137831647 1844757768 885449167 -859472926 1974237273 285363765 1819951771 -272155586 114260115 73443490 2078447642 61407351 75963096 523374020 945941231 810456172 -1497151589 606458986 -1357581232 -1990520252 -1925213292 1282902496 -80356901
REM
CELL 1.54180   50.00000   50.00000   50.00000   90.00000   90.00000   90.00000
LATT -1
SFAC C  
C      1  0.4075850000000  0.5490650000000  0.5083480000000 1.0
C      1  0.5227580000000  0.5442310000000  0.4865780000000 1.0
C      1  0.4613540000000  0.4271290000000  0.5804170000000 1.0
C      1  0.4163010000000  0.4647160000000  0.5130600000000 1.0
C      1  0.4853240000000  0.3809090000000  0.4900670000000 1.0
C      1  0.5008760000000  0.5134740000000  0.3963000000000 1.0
C      1  0.5718560000000  0.4766900000000  0.3886300000000 1.0
C      1  0.4870810000000  0.5359840000000  0.5357500000000 1.0
C      1  0.5290950000000  0.5618570000000  0.4581160000000 1.0
C      1  0.4655520000000  0.4128370000000  0.4670970000000 1.0
C      1  0.4224650000000  0.4504180000000  0.4418820000000 1.0
C      1  0.5388890000000  0.4276890000000  0.5636510000000 1.0
C      1  0.4785620000000  0.5968420000000  0.4890740000000 1.0
C      1  0.5841010000000  0.4700030000000  0.5354560000000 1.0
C      1  0.5330120000000  0.5127870000000  0.5398490000000 1.0
C      1  0.4442310000000  0.4617730000000  0.4273670000000 1.0
C      1  0.4411290000000  0.4421180000000  0.5595230000000 1.0
C      1  0.4188380000000  0.5078270000000  0.4870970000000 1.0
C      1  0.4129810000000  0.4912910000000  0.5140660000000 1.0
C      1  0.4389870000000  0.5081010000000  0.5925750000000 1.0
C      1  0.4679160000000  0.4407830000000  0.4217460000000 1.0
C      1  0.5200040000000  0.4173350000000  0.5459810000000 1.0
C      1  0.5238430000000  0.4709210000000  0.4940720000000 1.0
C      1  0.5786710000000  0.4893690000000  0.4764460000000 1.0
C      1  0.5232420000000  0.3994710000000  0.4978870000000 1.0
C      1  0.4306070000000  0.5180910000000  0.5548500000000 1.0
C      1  0.5203650000000  0.4228280000000  0.5134940000000 1.0
C      1  0.5986540000000  0.5269360000000  0.5097190000000 1.0
C      1  0.4700980000000  0.5813120000000  0.5526650000000 1.0
C      1  0.4722320000000  0.4658720000000  0.3991080000000 1.0
C      1  0.4919480000000  0.5839740000000  0.5316400000000 1.0
C      1  0.5487870000000  0.4857670000000  0.4646160000000 1.0
C      1  0.5626660000000  0.5480990000000  0.5142360000000 1.0
C      1  0.5282470000000  0.4623710000000  0.4625100000000 1.0
C      1  0.5480920000000  0.4793900000000  0.4028550000000 1.0
C      1  0.5969820000000  0.4635450000000  0.4823070000000 1.0
C      1  0.5349530000000  0.4531660000000  0.4124480000000 1.0
C      1  0.5762340000000  0.5862980000000  0.5285960000000 1.0
C      1  0.4306290000000  0.4908900000000  0.5699130000000 1.0
C      1  0.5717970000000  0.5182940000000  0.4665220000000 1.0
C      1  0.5607110000000  0.4282410000000  0.4828480000000 1.0
C      1  0.4307260000000  0.5489180000000  0.5437060000000 1.0
C      1  0.4622230000000  0.5262000000000  0.5532680000000 1.0
C      1  0.4473850000000  0.4711010000000  0.5532380000000 1.0
C      1  0.4847420000000  0.5039140000000  0.5589790000000 1.0
C      1  0.5386150000000  0.4345260000000  0.4620560000000 1.0
C      1  0.4904800000000  0.4332620000000  0.5830950000000 1.0
C      1  0.4931740000000  0.5788430000000  0.4540050000000 1.0
C      1  0.4539670000000  0.4161180000000  0.4370620000000 1.0
C      1  0.4324320000000  0.5748360000000  0.4696630000000 1.0
C      1  0.4740650000000  0.5494580000000  0.5942440000000 1.0
C      1  0.5069440000000  0.4694950000000  0.4415470000000 1.0
C      1  0.3924590000000  0.5173880000000  0.4753390000000 1.0
C      1  0.4417810000000  0.5455030000000  0.5126250000000 1.0
C      1  0.4868270000000  0.5275630000000  0.5081360000000 1.0
C      1  0.4905220000000  0.5082120000000  0.4618310000000 1.0
C      1  0.5320880000000  0.5398530000000  0.5190170000000 1.0
C      1  0.5919880000000  0.4943730000000  0.5561350000000 1.0
C      1  0.5448640000000  0.5046430000000  0.4926110000000 1.0
C      1  0.5085420000000  0.5552560000000  0.4342820000000 1.0
C      1  0.6073290000000  0.5177640000000  0.5365250000000 1.0
C      1  0.5865380000000  0.5403360000000  0.4831270000000 1.0
C      1  0.4842660000000  0.4903810000000  0.4359750000000 1.0
C      1  0.5137300000000  0.5820260000000  0.4777740000000 1.0
C      1  0.5578860000000  0.5331580000000  0.5509390000000 1.0
C      1  0.4758770000000  0.5736580000000  0.5792510000000 1.0
C      1  0.4441740000000  0.5275860000000  0.4771780000000 1.0
C      1  0.5005520000000  0.6043970000000  0.5078320000000 1.0
C      1  0.4973590000000  0.4441510000000  0.4999380000000 1.0
C      1  0.4408510000000  0.5114970000000  0.4359170000000 1.0
C      1  0.4988280000000  0.4595330000000  0.5788360000000 1.0
C      1  0.5775340000000  0.5588290000000  0.5422020000000 1.0
C      1  0.4718570000000  0.5475520000000  0.4211950000000 1.0
C      1  0.4547860000000  0.5638850000000  0.4395510000000 1.0
C      1  0.5610090000000  0.4004910000000  0.4881050000000 1.0
C      1  0.5524760000000  0.4596270000000  0.4940820000000 1.0
C      1  0.4978460000000  0.4905040000000  0.5317910000000 1.0
C      1  0.5244760000000  0.4711400000000  0.5744590000000 1.0
C      1  0.5770680000000  0.5135470000000  0.5799390000000 1.0
C      1  0.5866900000000  0.6090360000000  0.5362220000000 1.0
C      1  0.4827380000000  0.4742560000000  0.5059760000000 1.0
C      1  0.5321630000000  0.5958160000000  0.5000740000000 1.0
C      1  0.4825820000000  0.4919490000000  0.4046120000000 1.0
C      1  0.5438590000000  0.5056150000000  0.4238280000000 1.0
C      1  0.4619730000000  0.5887380000000  0.4611060000000 1.0
C      1  0.5676040000000  0.5504780000000  0.4314720000000 1.0
C      1  0.5489560000000  0.4364170000000  0.5260970000000 1.0
C      1  0.4666630000000  0.5253250000000  0.4442830000000 1.0
C      1  0.5656540000000  0.5232250000000  0.4355430000000 1.0
C      1  0.5590570000000  0.5804930000000  0.5028890000000 1.0
C      1  0.4134710000000  0.5218640000000  0.5279420000000 1.0
C      1  0.4964880000000  0.4569560000000  0.5390470000000 1.0
C      1  0.4540630000000  0.5312690000000  0.5843390000000 1.0
C      1  0.4901400000000  0.4164160000000  0.5549580000000 1.0
C      1  0.5033930000000  0.5128610000000  0.5829500000000 1.0
C      1  0.5161250000000  0.5633380000000  0.5352660000000 1.0
C      1  0.4981070000000  0.5348900000000  0.5993370000000 1.0
C      1  0.4562070000000  0.4148450000000  0.5140080000000 1.0
C      1  0.4436650000000  0.5771540000000  0.5430270000000 1.0
C      1  0.5710910000000  0.4686080000000  0.5650230000000 1.0
C      1  0.4396340000000  0.5867330000000  0.5167950000000 1.0
C      1  0.5583270000000  0.5658810000000  0.4536370000000 1.0
C      1  0.5730630000000  0.5652130000000  0.4782930000000 1.0
C      1  0.4554650000000  0.4851470000000  0.5231550000000 1.0
C      1  0.5100850000000  0.5429100000000  0.5575470000000 1.0
C      1  0.4607960000000  0.5701950000000  0.4980500000000 1.0
C      1  0.5686760000000  0.5150280000000  0.5080130000000 1.0
C      1  0.4532580000000  0.4870210000000  0.4313170000000 1.0
C      1  0.5209520000000  0.5006400000000  0.4481280000000 1.0
C      1  0.5236130000000  0.4983820000000  0.5664350000000 1.0
C      1  0.5210690000000  0.4351560000000  0.4261780000000 1.0
C      1  0.5331850000000  0.5368220000000  0.5717080000000 1.0
C      1  0.5523370000000  0.5207960000000  0.5885520000000 1.0
C      1  0.4162570000000  0.5271020000000  0.4360920000000 1.0
C      1  0.4403770000000  0.4240140000000  0.4858060000000 1.0
C      1  0.5276440000000  0.5048950000000  0.3953080000000 1.0
C      1  0.5197730000000  0.4140780000000  0.4500840000000 1.0
C      1  0.5378870000000  0.5238830000000  0.4669270000000 1.0
C      1  0.5043320000000  0.5649830000000  0.5050410000000 1.0
C      1  0.4712750000000  0.5432900000000  0.4859120000000 1.0
C      1  0.4892860000000  0.5030460000000  0.4916280000000 1.0
C      1  0.4801570000000  0.4308090000000  0.5257420000000 1.0
C      1  0.4321620000000  0.4225280000000  0.5353910000000 1.0
C      1  0.4913450000000  0.4327300000000  0.4711160000000 1.0
C      1  0.4462920000000  0.5120330000000  0.5076120000000 1.0
C      1  0.4568920000000  0.4090210000000  0.5534900000000 1.0
C      1  0.5281890000000  0.4549990000000  0.5357870000000 1.0
C      1  0.4212840000000  0.5755390000000  0.4962180000000 1.0
C      1  0.4328390000000  0.5458840000000  0.4547080000000 1.0
C      1  0.3920720000000  0.5181540000000  0.4471450000000 1.0
C      1  0.4857910000000  0.5475080000000  0.4586790000000 1.0
C      1  0.4300950000000  0.4260840000000  0.4550740000000 1.0
C      1  0.4250350000000  0.4393410000000  0.5095990000000 1.0
C      1  0.4770910000000  0.4739650000000  0.5612310000000 1.0
C      1  0.5760710000000  0.4434080000000  0.5218760000000 1.0
C      1  0.5473270000000  0.4545260000000  0.5708650000000 1.0
C      1  0.4970750000000  0.3996300000000  0.4674580000000 1.0
C      1  0.3843290000000  0.5390280000000  0.4904270000000 1.0
C      1  0.4928090000000  0.4421190000000  0.4408030000000 1.0
C      1  0.5225380000000  0.4965980000000  0.5128960000000 1.0
C      1  0.4971290000000  0.5401490000000  0.4072180000000 1.0
C      1  0.5876210000000  0.4410960000000  0.4949180000000 1.0
C      1  0.4680150000000  0.3867100000000  0.5071930000000 1.0
C      1  0.5912010000000  0.5340760000000  0.5582840000000 1.0
C      1  0.5727440000000  0.4810800000000  0.5088540000000 1.0
END
