TITL C-2778434-4341-1149 0.000666394245313722 125000 -834.108534509129 0 0 142 (C1) n - 1
REM
REM in /home/nfs/bkarasulu/CARBON/AIRSS/Generating-Clusters/REBO/Only-C1/SD-CG/HFTN-CG
REM
REM
REM
REM
REM
REM ./C.cell (11c1c37f851c82e70ff6c80c92926a4b)
REM
REM compiler GCC version 9.2.1 20190827 (Red Hat 9.2.1-1)
REM options -cpp -mtune=generic -march=x86-64 -g -O0 -fpre-include=/usr/include/finclude/math-vector-fortran.h
REM seed -661866794 -1346193699 -18181668 1406687719 -727314509 -1491030611 -605268349 2067595294 -1165101212 629902383 -91181255 1206802544 1077772796 -156847093 -1809336218 -1534288708 1072669522 1583339972 -1846785996 1271149010 -316467877 -1136159392 -54325205 -1817660588 1142442765 -1158600153 2122923929 322022506 -846113364 666120836 -878852971 1929846204 -1318580776
REM
CELL 1.54180   50.00000   50.00000   50.00000   90.00000   90.00000   90.00000
LATT -1
SFAC C  
C      1  0.4899300000000  0.4307100000000  0.5630380000000 1.0
C      1  0.5656890000000  0.5098290000000  0.4289990000000 1.0
C      1  0.4480190000000  0.5534400000000  0.5176350000000 1.0
C      1  0.4809070000000  0.4567700000000  0.5833260000000 1.0
C      1  0.5276950000000  0.5026810000000  0.5398090000000 1.0
C      1  0.4272410000000  0.4961850000000  0.4396990000000 1.0
C      1  0.5190280000000  0.4959580000000  0.4482820000000 1.0
C      1  0.5253560000000  0.5409650000000  0.5750030000000 1.0
C      1  0.4506000000000  0.5836890000000  0.5240220000000 1.0
C      1  0.5604970000000  0.4895350000000  0.4938370000000 1.0
C      1  0.4198060000000  0.5451410000000  0.5526560000000 1.0
C      1  0.4089720000000  0.5603000000000  0.5035070000000 1.0
C      1  0.5156260000000  0.4488110000000  0.4787750000000 1.0
C      1  0.5760520000000  0.4756270000000  0.5207760000000 1.0
C      1  0.5087580000000  0.4435160000000  0.4482250000000 1.0
C      1  0.5031040000000  0.4742070000000  0.6008740000000 1.0
C      1  0.5681640000000  0.5547090000000  0.4654240000000 1.0
C      1  0.4687020000000  0.5843750000000  0.4572070000000 1.0
C      1  0.4732330000000  0.4078380000000  0.4977850000000 1.0
C      1  0.5054490000000  0.5014540000000  0.4854420000000 1.0
C      1  0.5551500000000  0.5338680000000  0.5601310000000 1.0
C      1  0.5293260000000  0.4792560000000  0.5162710000000 1.0
C      1  0.4819060000000  0.5980920000000  0.4829760000000 1.0
C      1  0.5537510000000  0.4154810000000  0.5032500000000 1.0
C      1  0.5212720000000  0.4950320000000  0.5999250000000 1.0
C      1  0.4639230000000  0.4055390000000  0.4679080000000 1.0
C      1  0.4197140000000  0.4495590000000  0.5410880000000 1.0
C      1  0.4905430000000  0.4374510000000  0.4975360000000 1.0
C      1  0.5345600000000  0.5420680000000  0.5361210000000 1.0
C      1  0.4800570000000  0.5633830000000  0.5596870000000 1.0
C      1  0.4073410000000  0.4616790000000  0.5116270000000 1.0
C      1  0.5282960000000  0.5427160000000  0.5027410000000 1.0
C      1  0.5882600000000  0.4469920000000  0.5211590000000 1.0
C      1  0.5102630000000  0.5687350000000  0.5149260000000 1.0
C      1  0.5743550000000  0.5418650000000  0.5321750000000 1.0
C      1  0.5046830000000  0.4913220000000  0.4105430000000 1.0
C      1  0.4335100000000  0.4941180000000  0.5594490000000 1.0
C      1  0.4939620000000  0.5214780000000  0.4035910000000 1.0
C      1  0.4256960000000  0.4343360000000  0.5110310000000 1.0
C      1  0.5037920000000  0.5239290000000  0.4526810000000 1.0
C      1  0.4101300000000  0.5437450000000  0.4764820000000 1.0
C      1  0.4797450000000  0.5482420000000  0.4179950000000 1.0
C      1  0.5952620000000  0.4987230000000  0.5113300000000 1.0
C      1  0.5062490000000  0.5257350000000  0.5381300000000 1.0
C      1  0.3844280000000  0.4880740000000  0.4800060000000 1.0
C      1  0.4510880000000  0.4726760000000  0.5794730000000 1.0
C      1  0.4817990000000  0.5245020000000  0.5558430000000 1.0
C      1  0.4161220000000  0.5187750000000  0.4545720000000 1.0
C      1  0.5757400000000  0.5442680000000  0.4975520000000 1.0
C      1  0.4510550000000  0.4297160000000  0.4517800000000 1.0
C      1  0.4790560000000  0.5481370000000  0.4933730000000 1.0
C      1  0.5027110000000  0.4105650000000  0.5138430000000 1.0
C      1  0.5553730000000  0.5413700000000  0.4368680000000 1.0
C      1  0.4973090000000  0.5077180000000  0.5143200000000 1.0
C      1  0.4589080000000  0.5605310000000  0.4405640000000 1.0
C      1  0.4672100000000  0.4722870000000  0.4234380000000 1.0
C      1  0.5477740000000  0.4230610000000  0.5355470000000 1.0
C      1  0.5142810000000  0.4208710000000  0.5413050000000 1.0
C      1  0.4406310000000  0.4479690000000  0.5603130000000 1.0
C      1  0.5237240000000  0.5762810000000  0.4693240000000 1.0
C      1  0.4963640000000  0.4731900000000  0.4536170000000 1.0
C      1  0.6183490000000  0.4671300000000  0.4574660000000 1.0
C      1  0.5984390000000  0.4857170000000  0.4626020000000 1.0
C      1  0.5067040000000  0.5860980000000  0.4899380000000 1.0
C      1  0.4554910000000  0.5844470000000  0.5522540000000 1.0
C      1  0.4628420000000  0.6005170000000  0.5045390000000 1.0
C      1  0.5561470000000  0.5838690000000  0.5029000000000 1.0
C      1  0.4210810000000  0.4880330000000  0.5281660000000 1.0
C      1  0.5240620000000  0.4445980000000  0.4206990000000 1.0
C      1  0.4739730000000  0.4800860000000  0.4973550000000 1.0
C      1  0.4967740000000  0.4609760000000  0.4144400000000 1.0
C      1  0.5589460000000  0.4595120000000  0.5727120000000 1.0
C      1  0.4664440000000  0.5296740000000  0.4693740000000 1.0
C      1  0.5725950000000  0.4844790000000  0.4460210000000 1.0
C      1  0.4349550000000  0.5246070000000  0.5745880000000 1.0
C      1  0.5305790000000  0.4193450000000  0.4868470000000 1.0
C      1  0.5106370000000  0.5632380000000  0.5644420000000 1.0
C      1  0.4381350000000  0.5421810000000  0.4568940000000 1.0
C      1  0.6007360000000  0.5044070000000  0.4843960000000 1.0
C      1  0.4415520000000  0.4827990000000  0.4743800000000 1.0
C      1  0.5731600000000  0.4385510000000  0.5497810000000 1.0
C      1  0.5111490000000  0.5201440000000  0.5907410000000 1.0
C      1  0.5775500000000  0.4335820000000  0.4967050000000 1.0
C      1  0.4574840000000  0.5048030000000  0.5889730000000 1.0
C      1  0.3987670000000  0.5122880000000  0.4830820000000 1.0
C      1  0.4432970000000  0.5043930000000  0.4898100000000 1.0
C      1  0.5274670000000  0.4818510000000  0.5628110000000 1.0
C      1  0.5959070000000  0.5428960000000  0.4507710000000 1.0
C      1  0.4807220000000  0.5574950000000  0.5261270000000 1.0
C      1  0.4011210000000  0.4639410000000  0.4804500000000 1.0
C      1  0.5012400000000  0.4688160000000  0.5612240000000 1.0
C      1  0.4650530000000  0.5064130000000  0.5146820000000 1.0
C      1  0.5244960000000  0.5247970000000  0.4046030000000 1.0
C      1  0.5235390000000  0.4777520000000  0.4844940000000 1.0
C      1  0.4632740000000  0.4303190000000  0.5506360000000 1.0
C      1  0.4486450000000  0.4633730000000  0.4478640000000 1.0
C      1  0.4381500000000  0.5330240000000  0.5027190000000 1.0
C      1  0.4479450000000  0.5554450000000  0.5680760000000 1.0
C      1  0.5930010000000  0.5148470000000  0.5349650000000 1.0
C      1  0.4561480000000  0.5678890000000  0.4812820000000 1.0
C      1  0.4149350000000  0.4672240000000  0.4493630000000 1.0
C      1  0.4509440000000  0.4729660000000  0.5309040000000 1.0
C      1  0.5323240000000  0.4462420000000  0.5163800000000 1.0
C      1  0.5537930000000  0.5219240000000  0.5023550000000 1.0
C      1  0.5980120000000  0.5319290000000  0.4785530000000 1.0
C      1  0.5364970000000  0.4995780000000  0.4198630000000 1.0
C      1  0.4766980000000  0.4574750000000  0.4756910000000 1.0
C      1  0.4123630000000  0.5137860000000  0.5132020000000 1.0
C      1  0.5056550000000  0.5338580000000  0.4846950000000 1.0
C      1  0.5712350000000  0.4593790000000  0.4280380000000 1.0
C      1  0.4084270000000  0.5432900000000  0.5271750000000 1.0
C      1  0.4892540000000  0.4179420000000  0.4505480000000 1.0
C      1  0.5549940000000  0.4556580000000  0.4938930000000 1.0
C      1  0.5920300000000  0.5283660000000  0.4280400000000 1.0
C      1  0.5134760000000  0.5559510000000  0.4523550000000 1.0
C      1  0.5541080000000  0.5081370000000  0.5284630000000 1.0
C      1  0.4539100000000  0.4989560000000  0.4305580000000 1.0
C      1  0.5883330000000  0.4983180000000  0.5582340000000 1.0
C      1  0.5477150000000  0.4864800000000  0.4640980000000 1.0
C      1  0.4781310000000  0.4977740000000  0.4687230000000 1.0
C      1  0.4558610000000  0.5132250000000  0.5426420000000 1.0
C      1  0.4549500000000  0.4437550000000  0.5232110000000 1.0
C      1  0.5490590000000  0.4881530000000  0.5868570000000 1.0
C      1  0.4740280000000  0.4858310000000  0.5499190000000 1.0
C      1  0.4515180000000  0.4411700000000  0.4898370000000 1.0
C      1  0.5875460000000  0.4689100000000  0.5583010000000 1.0
C      1  0.5514730000000  0.4707540000000  0.5412040000000 1.0
C      1  0.4742450000000  0.4395500000000  0.4288050000000 1.0
C      1  0.4732050000000  0.5222620000000  0.4376810000000 1.0
C      1  0.5508800000000  0.5770750000000  0.4761030000000 1.0
C      1  0.5676070000000  0.5097990000000  0.5743290000000 1.0
C      1  0.4303270000000  0.5756580000000  0.4896230000000 1.0
C      1  0.4901140000000  0.4766280000000  0.5238510000000 1.0
C      1  0.5540910000000  0.5664380000000  0.5228350000000 1.0
C      1  0.5054420000000  0.4521130000000  0.5333040000000 1.0
C      1  0.5334470000000  0.5483810000000  0.4186330000000 1.0
C      1  0.5503550000000  0.4457820000000  0.4178880000000 1.0
C      1  0.5075040000000  0.5638860000000  0.4239520000000 1.0
C      1  0.4241430000000  0.4411790000000  0.4696010000000 1.0
C      1  0.5210700000000  0.5787810000000  0.5433400000000 1.0
C      1  0.4833850000000  0.5177040000000  0.5831930000000 1.0
C      1  0.5022150000000  0.4043270000000  0.4791350000000 1.0
END
