TITL C-2778426-5645-829 -0.00899424558661258 125000 -769.244066172694 0 0 132 (C1) n - 1
REM
REM in /home/nfs/bkarasulu/CARBON/AIRSS/Generating-Clusters/REBO/Only-C1/SD-CG/HFTN-CG
REM
REM
REM
REM
REM
REM ./C.cell (11c1c37f851c82e70ff6c80c92926a4b)
REM
REM compiler GCC version 9.2.1 20190827 (Red Hat 9.2.1-1)
REM options -cpp -mtune=generic -march=x86-64 -g -O0 -fpre-include=/usr/include/finclude/math-vector-fortran.h
REM seed 1234965276 -1863160263 1664010896 -2065264179 -258917522 624147003 -710671114 -1634804414 1997810783 2134357999 -808565331 -1958966665 1746118357 -747694108 -500893 1235440574 660095588 1272677709 10825114 822444992 536791040 1775308371 -718031740 945377059 -816011870 -1561021012 -481363442 2076941036 -1782353187 681254289 1560291783 -1290298120 -397392476
REM
CELL 1.54180   50.00000   50.00000   50.00000   90.00000   90.00000   90.00000
LATT -1
SFAC C  
C      1  0.5120060000000  0.5544320000000  0.4029640000000 1.0
C      1  0.4724330000000  0.4922300000000  0.5040910000000 1.0
C      1  0.5227920000000  0.4915740000000  0.4793600000000 1.0
C      1  0.5136020000000  0.4025520000000  0.4658150000000 1.0
C      1  0.4628260000000  0.4846830000000  0.5879490000000 1.0
C      1  0.5104810000000  0.5994130000000  0.5197190000000 1.0
C      1  0.5433720000000  0.4328630000000  0.4370020000000 1.0
C      1  0.5700230000000  0.4376150000000  0.4946920000000 1.0
C      1  0.5512770000000  0.4374100000000  0.5530570000000 1.0
C      1  0.5279500000000  0.5621790000000  0.5719760000000 1.0
C      1  0.5915710000000  0.4976670000000  0.5217040000000 1.0
C      1  0.5102890000000  0.5621000000000  0.4554960000000 1.0
C      1  0.5717640000000  0.5294550000000  0.5565480000000 1.0
C      1  0.4929280000000  0.4052500000000  0.4461080000000 1.0
C      1  0.5251930000000  0.4248120000000  0.5427210000000 1.0
C      1  0.4807920000000  0.4291350000000  0.4378320000000 1.0
C      1  0.5190830000000  0.5974350000000  0.4901330000000 1.0
C      1  0.4564650000000  0.4988120000000  0.4233090000000 1.0
C      1  0.5529840000000  0.4454280000000  0.5226620000000 1.0
C      1  0.5839110000000  0.4586980000000  0.5170330000000 1.0
C      1  0.5396430000000  0.5652560000000  0.5435040000000 1.0
C      1  0.4554080000000  0.4477750000000  0.5499540000000 1.0
C      1  0.5151690000000  0.4538150000000  0.5779670000000 1.0
C      1  0.5754240000000  0.5652140000000  0.4901490000000 1.0
C      1  0.4294920000000  0.5176140000000  0.5584720000000 1.0
C      1  0.4678010000000  0.4731970000000  0.4203790000000 1.0
C      1  0.5184280000000  0.4268610000000  0.5121560000000 1.0
C      1  0.4831620000000  0.4863350000000  0.6061740000000 1.0
C      1  0.5497200000000  0.5399170000000  0.5349880000000 1.0
C      1  0.5915360000000  0.5105910000000  0.4465070000000 1.0
C      1  0.4128580000000  0.4792840000000  0.4476490000000 1.0
C      1  0.4466660000000  0.4788900000000  0.4923230000000 1.0
C      1  0.5739910000000  0.5569150000000  0.4591080000000 1.0
C      1  0.4405880000000  0.5218970000000  0.5296420000000 1.0
C      1  0.5466850000000  0.4610680000000  0.4181150000000 1.0
C      1  0.4877840000000  0.4467510000000  0.4808240000000 1.0
C      1  0.4877370000000  0.5566470000000  0.5039710000000 1.0
C      1  0.4739480000000  0.5251910000000  0.4261100000000 1.0
C      1  0.4596060000000  0.4346900000000  0.4803270000000 1.0
C      1  0.4477210000000  0.5746510000000  0.4683800000000 1.0
C      1  0.5274840000000  0.4752730000000  0.5923380000000 1.0
C      1  0.4301360000000  0.4000860000000  0.4992100000000 1.0
C      1  0.4742810000000  0.5218300000000  0.4901060000000 1.0
C      1  0.4223010000000  0.5371400000000  0.4435860000000 1.0
C      1  0.4330780000000  0.4616580000000  0.5449050000000 1.0
C      1  0.4554590000000  0.4105090000000  0.4941250000000 1.0
C      1  0.5058740000000  0.4031860000000  0.4938090000000 1.0
C      1  0.4585230000000  0.4497680000000  0.4354510000000 1.0
C      1  0.4792310000000  0.3963510000000  0.5003140000000 1.0
C      1  0.5687310000000  0.5211200000000  0.4865550000000 1.0
C      1  0.5214930000000  0.4570730000000  0.4388420000000 1.0
C      1  0.4959000000000  0.4493420000000  0.5109560000000 1.0
C      1  0.5961770000000  0.4580200000000  0.4864600000000 1.0
C      1  0.4431470000000  0.5363240000000  0.4305540000000 1.0
C      1  0.5305210000000  0.5192060000000  0.5247030000000 1.0
C      1  0.5413570000000  0.5033540000000  0.4459790000000 1.0
C      1  0.5225700000000  0.5455900000000  0.4318480000000 1.0
C      1  0.5120710000000  0.4957070000000  0.4345910000000 1.0
C      1  0.5015490000000  0.5586100000000  0.5537320000000 1.0
C      1  0.4952600000000  0.4560750000000  0.4497250000000 1.0
C      1  0.5129170000000  0.5272820000000  0.5596510000000 1.0
C      1  0.4527280000000  0.4927450000000  0.5292230000000 1.0
C      1  0.5000620000000  0.5722970000000  0.5273420000000 1.0
C      1  0.4919180000000  0.4838020000000  0.4667180000000 1.0
C      1  0.4966710000000  0.5272930000000  0.4076650000000 1.0
C      1  0.4201990000000  0.4846750000000  0.5254770000000 1.0
C      1  0.5203660000000  0.4576740000000  0.4805260000000 1.0
C      1  0.4258640000000  0.5528520000000  0.4801240000000 1.0
C      1  0.4836390000000  0.4607910000000  0.5397250000000 1.0
C      1  0.5656440000000  0.4825970000000  0.5291720000000 1.0
C      1  0.4058660000000  0.5408810000000  0.5315470000000 1.0
C      1  0.5459570000000  0.4659580000000  0.4593170000000 1.0
C      1  0.4021230000000  0.5030370000000  0.4950100000000 1.0
C      1  0.6003930000000  0.4883260000000  0.4957910000000 1.0
C      1  0.4561840000000  0.5688160000000  0.5001900000000 1.0
C      1  0.5407900000000  0.4322930000000  0.4869940000000 1.0
C      1  0.4366860000000  0.4998930000000  0.4457380000000 1.0
C      1  0.4063090000000  0.3902790000000  0.5039940000000 1.0
C      1  0.5781310000000  0.5406160000000  0.5059630000000 1.0
C      1  0.5095970000000  0.4985930000000  0.3982540000000 1.0
C      1  0.5460580000000  0.5782770000000  0.4923200000000 1.0
C      1  0.5038530000000  0.4304160000000  0.5618010000000 1.0
C      1  0.5571240000000  0.4682000000000  0.5556140000000 1.0
C      1  0.4186900000000  0.4600580000000  0.4665380000000 1.0
C      1  0.5867790000000  0.5253260000000  0.5286940000000 1.0
C      1  0.4711660000000  0.5355200000000  0.5831120000000 1.0
C      1  0.5195900000000  0.5213360000000  0.6051930000000 1.0
C      1  0.5003240000000  0.5888050000000  0.4705390000000 1.0
C      1  0.5082160000000  0.5406260000000  0.4818110000000 1.0
C      1  0.5866230000000  0.5384150000000  0.4415020000000 1.0
C      1  0.4765000000000  0.5663690000000  0.4604330000000 1.0
C      1  0.5407660000000  0.5193600000000  0.4727930000000 1.0
C      1  0.4485200000000  0.6002430000000  0.4899070000000 1.0
C      1  0.4862970000000  0.5104880000000  0.5687070000000 1.0
C      1  0.4505250000000  0.5120760000000  0.5778650000000 1.0
C      1  0.5045960000000  0.5159280000000  0.5049860000000 1.0
C      1  0.4678190000000  0.5366530000000  0.5201950000000 1.0
C      1  0.4954010000000  0.4751560000000  0.4146610000000 1.0
C      1  0.5387060000000  0.4164910000000  0.4602000000000 1.0
C      1  0.5282240000000  0.5447500000000  0.5941250000000 1.0
C      1  0.4258370000000  0.5564340000000  0.5497340000000 1.0
C      1  0.4426650000000  0.4463450000000  0.4603670000000 1.0
C      1  0.5306180000000  0.4653990000000  0.5213290000000 1.0
C      1  0.5214670000000  0.4963630000000  0.5480950000000 1.0
C      1  0.5481690000000  0.4855390000000  0.5757870000000 1.0
C      1  0.5902100000000  0.5055470000000  0.4758080000000 1.0
C      1  0.4764220000000  0.5336570000000  0.4591150000000 1.0
C      1  0.5874680000000  0.5391490000000  0.5771370000000 1.0
C      1  0.5319940000000  0.5207990000000  0.4109020000000 1.0
C      1  0.4133520000000  0.4705410000000  0.4961130000000 1.0
C      1  0.4666650000000  0.4949840000000  0.4616900000000 1.0
C      1  0.4010050000000  0.5127610000000  0.5258530000000 1.0
C      1  0.5783160000000  0.4584140000000  0.4609050000000 1.0
C      1  0.4314260000000  0.5492980000000  0.5110560000000 1.0
C      1  0.4684940000000  0.4852830000000  0.5543980000000 1.0
C      1  0.4754740000000  0.4277290000000  0.5605340000000 1.0
C      1  0.5069850000000  0.5228440000000  0.4518770000000 1.0
C      1  0.5443140000000  0.5152070000000  0.5656980000000 1.0
C      1  0.5463760000000  0.4902190000000  0.4148070000000 1.0
C      1  0.5697980000000  0.4872190000000  0.4467450000000 1.0
C      1  0.5105270000000  0.4942640000000  0.6055060000000 1.0
C      1  0.4455610000000  0.6251420000000  0.4949770000000 1.0
C      1  0.5377630000000  0.5844500000000  0.5228930000000 1.0
C      1  0.5405310000000  0.4932660000000  0.5085400000000 1.0
C      1  0.4543590000000  0.5559940000000  0.5448690000000 1.0
C      1  0.4038790000000  0.5193180000000  0.5651750000000 1.0
C      1  0.5125810000000  0.4669790000000  0.5482370000000 1.0
C      1  0.5434080000000  0.5514440000000  0.4714310000000 1.0
C      1  0.4734930000000  0.5576350000000  0.5657980000000 1.0
C      1  0.4104640000000  0.5266830000000  0.4717870000000 1.0
C      1  0.4300790000000  0.5007540000000  0.4766500000000 1.0
C      1  0.5022270000000  0.4826240000000  0.5121060000000 1.0
END
