TITL C-2778427-5640-690 -0.000467787089359031 125000 -839.883918294631 0 0 143 (C1) n - 1
REM
REM in /home/nfs/bkarasulu/CARBON/AIRSS/Generating-Clusters/REBO/Only-C1/SD-CG/HFTN-CG
REM
REM
REM
REM
REM
REM ./C.cell (11c1c37f851c82e70ff6c80c92926a4b)
REM
REM compiler GCC version 9.2.1 20190827 (Red Hat 9.2.1-1)
REM options -cpp -mtune=generic -march=x86-64 -g -O0 -fpre-include=/usr/include/finclude/math-vector-fortran.h
REM seed 1621799363 -1555449364 -1977908248 1733068766 838203007 1017701809 1236595498 1175806165 230660792 893198285 -341779163 -1486640551 114173334 -796065150 -1538593635 1007622450 1145680038 30238465 1491817960 -1260974237 -2025199588 1342799578 1757510728 2082911900 59476248 1364550991 -1035893549 -1306242232 1318094425 -937731256 -1913831514 -157297081 -1644807921
REM
CELL 1.54180   50.00000   50.00000   50.00000   90.00000   90.00000   90.00000
LATT -1
SFAC C  
C      1  0.4422960000000  0.4649840000000  0.5011800000000 1.0
C      1  0.4693130000000  0.4573050000000  0.5511060000000 1.0
C      1  0.4471510000000  0.4917810000000  0.5784720000000 1.0
C      1  0.4995540000000  0.4885950000000  0.4940300000000 1.0
C      1  0.5716740000000  0.4123430000000  0.4657250000000 1.0
C      1  0.5341250000000  0.5538160000000  0.5357890000000 1.0
C      1  0.4678190000000  0.4794430000000  0.4124860000000 1.0
C      1  0.5469390000000  0.5468010000000  0.4810280000000 1.0
C      1  0.4591120000000  0.4645970000000  0.4649490000000 1.0
C      1  0.5413220000000  0.5039490000000  0.4077770000000 1.0
C      1  0.4749380000000  0.4872150000000  0.5129810000000 1.0
C      1  0.4964460000000  0.5046970000000  0.3982790000000 1.0
C      1  0.4931630000000  0.4446080000000  0.5041930000000 1.0
C      1  0.5632350000000  0.4169390000000  0.4917010000000 1.0
C      1  0.4053350000000  0.4731380000000  0.5292380000000 1.0
C      1  0.5310000000000  0.4612950000000  0.4665180000000 1.0
C      1  0.5057030000000  0.5526590000000  0.5077150000000 1.0
C      1  0.4302530000000  0.5396110000000  0.5853470000000 1.0
C      1  0.5478140000000  0.4768200000000  0.4122220000000 1.0
C      1  0.5099930000000  0.5964130000000  0.4538470000000 1.0
C      1  0.5883870000000  0.4991890000000  0.5326080000000 1.0
C      1  0.5274040000000  0.5788330000000  0.5476770000000 1.0
C      1  0.5198130000000  0.5299280000000  0.5456970000000 1.0
C      1  0.4677550000000  0.4855150000000  0.5599800000000 1.0
C      1  0.4883080000000  0.4678440000000  0.4489290000000 1.0
C      1  0.5524390000000  0.4691580000000  0.6052250000000 1.0
C      1  0.5157630000000  0.5029670000000  0.5364380000000 1.0
C      1  0.4716780000000  0.5027460000000  0.5382430000000 1.0
C      1  0.5718190000000  0.4676300000000  0.5831730000000 1.0
C      1  0.4852700000000  0.4336420000000  0.4493890000000 1.0
C      1  0.4734960000000  0.5154650000000  0.4588370000000 1.0
C      1  0.5217050000000  0.4514530000000  0.5215360000000 1.0
C      1  0.5595830000000  0.4632450000000  0.6308320000000 1.0
C      1  0.4708550000000  0.6162840000000  0.4766090000000 1.0
C      1  0.4551280000000  0.5534750000000  0.5831800000000 1.0
C      1  0.4637980000000  0.5251320000000  0.3876510000000 1.0
C      1  0.4988030000000  0.4660600000000  0.4080340000000 1.0
C      1  0.5934530000000  0.5206400000000  0.5060850000000 1.0
C      1  0.5260030000000  0.4711560000000  0.4954050000000 1.0
C      1  0.4704030000000  0.4191840000000  0.5921990000000 1.0
C      1  0.4995820000000  0.4951920000000  0.4502010000000 1.0
C      1  0.5052210000000  0.4414830000000  0.4737520000000 1.0
C      1  0.4333820000000  0.4828980000000  0.4732840000000 1.0
C      1  0.4683810000000  0.4567680000000  0.5196750000000 1.0
C      1  0.4637140000000  0.5870710000000  0.4861240000000 1.0
C      1  0.5068550000000  0.5522920000000  0.3974690000000 1.0
C      1  0.5737250000000  0.5552460000000  0.4527910000000 1.0
C      1  0.5264840000000  0.4571250000000  0.4099520000000 1.0
C      1  0.5493660000000  0.5455410000000  0.5762610000000 1.0
C      1  0.5845890000000  0.4874090000000  0.5015160000000 1.0
C      1  0.5409890000000  0.5490530000000  0.4491250000000 1.0
C      1  0.4799180000000  0.5932070000000  0.5350410000000 1.0
C      1  0.5755000000000  0.4721390000000  0.4569740000000 1.0
C      1  0.4610310000000  0.4158330000000  0.5119680000000 1.0
C      1  0.5683480000000  0.4716660000000  0.4303930000000 1.0
C      1  0.5144290000000  0.4653110000000  0.5708340000000 1.0
C      1  0.5097390000000  0.5412040000000  0.4258740000000 1.0
C      1  0.4369270000000  0.5385530000000  0.5311770000000 1.0
C      1  0.5343130000000  0.5189250000000  0.4347380000000 1.0
C      1  0.5227500000000  0.5555050000000  0.5797590000000 1.0
C      1  0.5113230000000  0.5642740000000  0.4462490000000 1.0
C      1  0.5565920000000  0.5566350000000  0.5185610000000 1.0
C      1  0.4530950000000  0.5616990000000  0.4673690000000 1.0
C      1  0.5376050000000  0.5963680000000  0.4689510000000 1.0
C      1  0.5217070000000  0.5068550000000  0.3873790000000 1.0
C      1  0.4965070000000  0.4420900000000  0.5600440000000 1.0
C      1  0.4809120000000  0.4028010000000  0.6097470000000 1.0
C      1  0.4452250000000  0.4280410000000  0.5385780000000 1.0
C      1  0.5324060000000  0.4058520000000  0.4673370000000 1.0
C      1  0.4030340000000  0.5159980000000  0.4999340000000 1.0
C      1  0.5092010000000  0.5812560000000  0.5708000000000 1.0
C      1  0.5538480000000  0.4479300000000  0.5291520000000 1.0
C      1  0.4408650000000  0.4272300000000  0.4672660000000 1.0
C      1  0.5580110000000  0.4890640000000  0.4795110000000 1.0
C      1  0.4166190000000  0.5689860000000  0.4997750000000 1.0
C      1  0.5248310000000  0.4777350000000  0.5986830000000 1.0
C      1  0.5046540000000  0.5990140000000  0.5217530000000 1.0
C      1  0.4109260000000  0.5211530000000  0.5292030000000 1.0
C      1  0.4621060000000  0.5775410000000  0.5159300000000 1.0
C      1  0.5647550000000  0.5206960000000  0.5336540000000 1.0
C      1  0.4138710000000  0.5270690000000  0.4751190000000 1.0
C      1  0.5223160000000  0.5341150000000  0.4950790000000 1.0
C      1  0.4304430000000  0.5351810000000  0.4398320000000 1.0
C      1  0.4076830000000  0.4966040000000  0.5517980000000 1.0
C      1  0.5109570000000  0.4762670000000  0.5399910000000 1.0
C      1  0.5253860000000  0.5701350000000  0.3874850000000 1.0
C      1  0.4784370000000  0.4202460000000  0.5403200000000 1.0
C      1  0.5745340000000  0.4943600000000  0.5620100000000 1.0
C      1  0.5873250000000  0.5284980000000  0.4487100000000 1.0
C      1  0.4399000000000  0.4344190000000  0.4953530000000 1.0
C      1  0.4408110000000  0.4808820000000  0.4335130000000 1.0
C      1  0.4668070000000  0.5361670000000  0.4795830000000 1.0
C      1  0.5121940000000  0.4230460000000  0.5380850000000 1.0
C      1  0.4181960000000  0.4483070000000  0.5341610000000 1.0
C      1  0.5712760000000  0.4385580000000  0.5085010000000 1.0
C      1  0.5317780000000  0.4943890000000  0.4582560000000 1.0
C      1  0.4530690000000  0.5235530000000  0.5067380000000 1.0
C      1  0.4079930000000  0.4853190000000  0.5040730000000 1.0
C      1  0.4843520000000  0.5426570000000  0.3835980000000 1.0
C      1  0.4721600000000  0.4905260000000  0.4788920000000 1.0
C      1  0.5512630000000  0.5134000000000  0.5784600000000 1.0
C      1  0.4585500000000  0.5088520000000  0.4100110000000 1.0
C      1  0.5213900000000  0.5064200000000  0.5898010000000 1.0
C      1  0.5184580000000  0.5782360000000  0.5082630000000 1.0
C      1  0.5418200000000  0.4843760000000  0.5634250000000 1.0
C      1  0.5545720000000  0.5130430000000  0.5046690000000 1.0
C      1  0.4599360000000  0.4355010000000  0.5747210000000 1.0
C      1  0.4558850000000  0.5215670000000  0.4347460000000 1.0
C      1  0.5395490000000  0.4356520000000  0.4541930000000 1.0
C      1  0.4659840000000  0.4139010000000  0.4633260000000 1.0
C      1  0.4237410000000  0.5539210000000  0.4761440000000 1.0
C      1  0.4834110000000  0.5758900000000  0.4606320000000 1.0
C      1  0.4309960000000  0.4458790000000  0.5640370000000 1.0
C      1  0.5365450000000  0.4017770000000  0.5006130000000 1.0
C      1  0.4905630000000  0.6201870000000  0.4613240000000 1.0
C      1  0.4775500000000  0.4048560000000  0.4884240000000 1.0
C      1  0.5258680000000  0.5040710000000  0.4979030000000 1.0
C      1  0.4226550000000  0.4742810000000  0.5727650000000 1.0
C      1  0.4761640000000  0.5490140000000  0.5084400000000 1.0
C      1  0.4610300000000  0.5811570000000  0.5807650000000 1.0
C      1  0.5943760000000  0.4552250000000  0.4697120000000 1.0
C      1  0.4954290000000  0.5133720000000  0.4246790000000 1.0
C      1  0.4390150000000  0.4989360000000  0.5009640000000 1.0
C      1  0.5603080000000  0.4578850000000  0.5540600000000 1.0
C      1  0.5343340000000  0.4327240000000  0.4219750000000 1.0
C      1  0.4337380000000  0.5671260000000  0.5215840000000 1.0
C      1  0.5035020000000  0.5309270000000  0.5751100000000 1.0
C      1  0.4822790000000  0.5893150000000  0.5634920000000 1.0
C      1  0.5816240000000  0.5527970000000  0.5057100000000 1.0
C      1  0.5400690000000  0.5778560000000  0.4891040000000 1.0
C      1  0.4743100000000  0.5375270000000  0.5692640000000 1.0
C      1  0.5511680000000  0.4081440000000  0.4388100000000 1.0
C      1  0.4664050000000  0.4508950000000  0.4283230000000 1.0
C      1  0.5731850000000  0.5251840000000  0.4788070000000 1.0
C      1  0.5905520000000  0.4569530000000  0.4980960000000 1.0
C      1  0.5070610000000  0.4109180000000  0.4877060000000 1.0
C      1  0.5672270000000  0.5396080000000  0.5530370000000 1.0
C      1  0.4248900000000  0.5136770000000  0.5757080000000 1.0
C      1  0.4244000000000  0.5041580000000  0.4521520000000 1.0
C      1  0.5824140000000  0.5651460000000  0.4790350000000 1.0
C      1  0.5289330000000  0.4016830000000  0.5304340000000 1.0
C      1  0.4367050000000  0.4489930000000  0.4446270000000 1.0
C      1  0.4641460000000  0.5284790000000  0.5447670000000 1.0
END
