TITL C-2778434-4341-141 0.12285422075718 125000 -305.119433725051 0 0 54 (C1) n - 1
REM
REM in /home/nfs/bkarasulu/CARBON/AIRSS/Generating-Clusters/REBO/Only-C1/SD-CG/HFTN-CG
REM
REM
REM
REM
REM
REM ./C.cell (11c1c37f851c82e70ff6c80c92926a4b)
REM
REM compiler GCC version 9.2.1 20190827 (Red Hat 9.2.1-1)
REM options -cpp -mtune=generic -march=x86-64 -g -O0 -fpre-include=/usr/include/finclude/math-vector-fortran.h
REM seed -1286704930 1457408861 -2132115434 -755633370 -878303154 1936524560 977656568 -1441532271 -1144386659 1567158627 918244175 -1100957922 984474276 -1559141283 -633406099 551399582 -2068354188 -1378542070 1872042263 1011803032 -592830972 1408775649 1087946877 -229609930 2127773487 -1471846816 -1143771736 -390760689 -338806394 -1647210242 -614285230 1282527114 989116952
REM
CELL 1.54180   50.00000   50.00000   50.00000   90.00000   90.00000   90.00000
LATT -1
SFAC C  
C      1  0.4946410000000  0.4767530000000  0.4214510000000 1.0
C      1  0.5320280000000  0.4875390000000  0.5395990000000 1.0
C      1  0.5141670000000  0.5159550000000  0.4525430000000 1.0
C      1  0.5568340000000  0.4572140000000  0.5315520000000 1.0
C      1  0.5287770000000  0.5474590000000  0.4851190000000 1.0
C      1  0.5387190000000  0.5207880000000  0.4441800000000 1.0
C      1  0.5404070000000  0.4360420000000  0.5290660000000 1.0
C      1  0.4880890000000  0.4912650000000  0.4699370000000 1.0
C      1  0.5038420000000  0.4969760000000  0.5340240000000 1.0
C      1  0.4711100000000  0.5526600000000  0.5350150000000 1.0
C      1  0.4585940000000  0.5031870000000  0.5523220000000 1.0
C      1  0.4861750000000  0.5053010000000  0.5592140000000 1.0
C      1  0.5120280000000  0.4212910000000  0.5310690000000 1.0
C      1  0.4493840000000  0.5271410000000  0.5356250000000 1.0
C      1  0.4934240000000  0.5301210000000  0.5710700000000 1.0
C      1  0.5054950000000  0.5225600000000  0.5120740000000 1.0
C      1  0.5248640000000  0.5799210000000  0.4788420000000 1.0
C      1  0.4481130000000  0.4651000000000  0.5182620000000 1.0
C      1  0.4518490000000  0.4541440000000  0.4535510000000 1.0
C      1  0.5021860000000  0.4634990000000  0.4661750000000 1.0
C      1  0.5410660000000  0.4819680000000  0.5637670000000 1.0
C      1  0.4729260000000  0.5208520000000  0.4256910000000 1.0
C      1  0.4423270000000  0.4457340000000  0.4994120000000 1.0
C      1  0.5321790000000  0.4678500000000  0.4691290000000 1.0
C      1  0.4603110000000  0.4421680000000  0.4778090000000 1.0
C      1  0.5025000000000  0.5279600000000  0.4785220000000 1.0
C      1  0.5588510000000  0.5090190000000  0.4971840000000 1.0
C      1  0.5504510000000  0.5353940000000  0.5026600000000 1.0
C      1  0.4921900000000  0.5035440000000  0.4356670000000 1.0
C      1  0.4594820000000  0.5019120000000  0.4582840000000 1.0
C      1  0.5164840000000  0.5436860000000  0.5325660000000 1.0
C      1  0.4699280000000  0.5264090000000  0.4736410000000 1.0
C      1  0.5463850000000  0.6248340000000  0.4603110000000 1.0
C      1  0.4802100000000  0.4428310000000  0.5707270000000 1.0
C      1  0.4498980000000  0.4772250000000  0.5468780000000 1.0
C      1  0.4802640000000  0.4764340000000  0.5211440000000 1.0
C      1  0.4866940000000  0.4371620000000  0.5214370000000 1.0
C      1  0.4953300000000  0.5502570000000  0.5508930000000 1.0
C      1  0.4969280000000  0.4563780000000  0.4364840000000 1.0
C      1  0.4638220000000  0.5265410000000  0.5060090000000 1.0
C      1  0.5503810000000  0.4843360000000  0.4556670000000 1.0
C      1  0.5004420000000  0.5652690000000  0.4926680000000 1.0
C      1  0.4901020000000  0.4428870000000  0.4879990000000 1.0
C      1  0.5506990000000  0.4846440000000  0.5137780000000 1.0
C      1  0.5357710000000  0.6026830000000  0.4694500000000 1.0
C      1  0.4222690000000  0.5334570000000  0.5371430000000 1.0
C      1  0.4781830000000  0.5572650000000  0.5056650000000 1.0
C      1  0.4741170000000  0.4533590000000  0.5458820000000 1.0
C      1  0.5398570000000  0.4599580000000  0.4954730000000 1.0
C      1  0.4453970000000  0.4803100000000  0.4471340000000 1.0
C      1  0.5445610000000  0.5445840000000  0.5290980000000 1.0
C      1  0.5205290000000  0.4356090000000  0.5013990000000 1.0
C      1  0.5648390000000  0.5028880000000  0.4700430000000 1.0
C      1  0.4839030000000  0.4996780000000  0.4996980000000 1.0
END
