TITL C-2778432-5617-232 -0.00097071127408811 125000 -1003.62570062867 0 0 174 (C1) n - 1
REM
REM in /home/nfs/bkarasulu/CARBON/AIRSS/Generating-Clusters/REBO/Only-C1/SD-CG/HFTN-CG
REM
REM
REM
REM
REM
REM ./C.cell (11c1c37f851c82e70ff6c80c92926a4b)
REM
REM compiler GCC version 9.2.1 20190827 (Red Hat 9.2.1-1)
REM options -cpp -mtune=generic -march=x86-64 -g -O0 -fpre-include=/usr/include/finclude/math-vector-fortran.h
REM seed -818369437 1623556983 -555085825 1360745865 -977859414 -864568792 1159248966 1450692359 -85098514 -653728406 1861341660 -1160511388 -438644174 -1238115646 -1436542864 -771618345 -558238331 -402686528 -1590631655 1899281411 740882164 -1057213838 -156984170 -1179847394 1007611447 260339485 -1726070735 2076267641 -121456886 -1388311848 1398443431 -2027959119 -1562694857
REM
CELL 1.54180   50.00000   50.00000   50.00000   90.00000   90.00000   90.00000
LATT -1
SFAC C  
C      1  0.5298030000000  0.4755730000000  0.6028720000000 1.0
C      1  0.5184990000000  0.5324330000000  0.4564170000000 1.0
C      1  0.4920800000000  0.5490430000000  0.5657510000000 1.0
C      1  0.5350040000000  0.5865730000000  0.4477850000000 1.0
C      1  0.4682740000000  0.5125080000000  0.5971900000000 1.0
C      1  0.4538530000000  0.4064090000000  0.4784050000000 1.0
C      1  0.4113250000000  0.4870240000000  0.4723600000000 1.0
C      1  0.4847890000000  0.6058390000000  0.5026150000000 1.0
C      1  0.5544720000000  0.4768330000000  0.3928700000000 1.0
C      1  0.3943400000000  0.4790250000000  0.4969810000000 1.0
C      1  0.4838530000000  0.4651400000000  0.4097370000000 1.0
C      1  0.5412000000000  0.5428060000000  0.5910640000000 1.0
C      1  0.5187110000000  0.5349250000000  0.4237170000000 1.0
C      1  0.4377980000000  0.4398240000000  0.5171330000000 1.0
C      1  0.4748830000000  0.4029620000000  0.4567210000000 1.0
C      1  0.5314090000000  0.6038680000000  0.5333390000000 1.0
C      1  0.5697460000000  0.4451670000000  0.4478900000000 1.0
C      1  0.5064180000000  0.4208780000000  0.5560520000000 1.0
C      1  0.5122430000000  0.4458600000000  0.4860050000000 1.0
C      1  0.4868170000000  0.4987290000000  0.5289960000000 1.0
C      1  0.4345230000000  0.5071180000000  0.5358290000000 1.0
C      1  0.4920760000000  0.3989110000000  0.4991190000000 1.0
C      1  0.4995530000000  0.4618620000000  0.5374200000000 1.0
C      1  0.5628200000000  0.5913540000000  0.4869020000000 1.0
C      1  0.5837670000000  0.5255090000000  0.4523730000000 1.0
C      1  0.5413290000000  0.5737400000000  0.5209980000000 1.0
C      1  0.5085580000000  0.4890870000000  0.5799230000000 1.0
C      1  0.4504390000000  0.6000980000000  0.4840290000000 1.0
C      1  0.4519340000000  0.5673030000000  0.4438610000000 1.0
C      1  0.4976040000000  0.4956790000000  0.4035660000000 1.0
C      1  0.4683200000000  0.4096750000000  0.5604680000000 1.0
C      1  0.5081460000000  0.5754730000000  0.5736540000000 1.0
C      1  0.4871950000000  0.4425280000000  0.6031790000000 1.0
C      1  0.5251450000000  0.4616210000000  0.5561170000000 1.0
C      1  0.5278710000000  0.5260710000000  0.5572670000000 1.0
C      1  0.4217830000000  0.4880610000000  0.5684870000000 1.0
C      1  0.4856230000000  0.4325040000000  0.5327320000000 1.0
C      1  0.4891300000000  0.5052140000000  0.4588920000000 1.0
C      1  0.6004830000000  0.4766860000000  0.4880170000000 1.0
C      1  0.4127190000000  0.5146810000000  0.5010500000000 1.0
C      1  0.5926030000000  0.4824500000000  0.5532890000000 1.0
C      1  0.5249850000000  0.4192550000000  0.4501360000000 1.0
C      1  0.4878810000000  0.4347020000000  0.4157740000000 1.0
C      1  0.5654570000000  0.4995090000000  0.4502720000000 1.0
C      1  0.5064680000000  0.5974120000000  0.5528740000000 1.0
C      1  0.4295110000000  0.5881580000000  0.4992030000000 1.0
C      1  0.5296440000000  0.4562060000000  0.4325990000000 1.0
C      1  0.5361900000000  0.4326000000000  0.4952170000000 1.0
C      1  0.4976740000000  0.4388900000000  0.4571970000000 1.0
C      1  0.5477260000000  0.5025710000000  0.5648890000000 1.0
C      1  0.5726120000000  0.5483160000000  0.5128230000000 1.0
C      1  0.4923830000000  0.5442730000000  0.4655590000000 1.0
C      1  0.4237020000000  0.5465940000000  0.5405640000000 1.0
C      1  0.5254440000000  0.4666960000000  0.4638870000000 1.0
C      1  0.4646810000000  0.5090650000000  0.5473350000000 1.0
C      1  0.5296980000000  0.5695050000000  0.5893800000000 1.0
C      1  0.5638450000000  0.5936660000000  0.5330460000000 1.0
C      1  0.4533470000000  0.5887110000000  0.5452750000000 1.0
C      1  0.5416660000000  0.6015880000000  0.4710100000000 1.0
C      1  0.5195090000000  0.5230090000000  0.6079060000000 1.0
C      1  0.4089310000000  0.4708190000000  0.4454530000000 1.0
C      1  0.4703160000000  0.4953780000000  0.4992250000000 1.0
C      1  0.5088220000000  0.4268220000000  0.5853080000000 1.0
C      1  0.5928200000000  0.5212930000000  0.5156400000000 1.0
C      1  0.3998420000000  0.5160450000000  0.4711670000000 1.0
C      1  0.4148730000000  0.5433900000000  0.5106690000000 1.0
C      1  0.5433000000000  0.5450230000000  0.4738450000000 1.0
C      1  0.5303170000000  0.4451320000000  0.5769750000000 1.0
C      1  0.4621130000000  0.4819570000000  0.4412650000000 1.0
C      1  0.5267630000000  0.5570940000000  0.4988380000000 1.0
C      1  0.5777020000000  0.4523000000000  0.5572060000000 1.0
C      1  0.4191980000000  0.4898190000000  0.4191440000000 1.0
C      1  0.4964800000000  0.5667510000000  0.4145220000000 1.0
C      1  0.4501130000000  0.4401780000000  0.4447750000000 1.0
C      1  0.4411970000000  0.5703690000000  0.5235750000000 1.0
C      1  0.5472310000000  0.5613420000000  0.4469170000000 1.0
C      1  0.5298060000000  0.4108030000000  0.5408010000000 1.0
C      1  0.4744370000000  0.4633620000000  0.4883500000000 1.0
C      1  0.4045240000000  0.4483880000000  0.4657840000000 1.0
C      1  0.5861780000000  0.4519940000000  0.5021040000000 1.0
C      1  0.4077430000000  0.4670610000000  0.5473090000000 1.0
C      1  0.5191450000000  0.6131180000000  0.4836130000000 1.0
C      1  0.5650540000000  0.4080130000000  0.4831630000000 1.0
C      1  0.4922300000000  0.5056840000000  0.6123520000000 1.0
C      1  0.4885980000000  0.5248480000000  0.4310330000000 1.0
C      1  0.4520840000000  0.4403770000000  0.4762990000000 1.0
C      1  0.5061180000000  0.5568620000000  0.5383160000000 1.0
C      1  0.5833020000000  0.5390030000000  0.5438640000000 1.0
C      1  0.5445870000000  0.5023520000000  0.3914710000000 1.0
C      1  0.4835760000000  0.5251010000000  0.4994600000000 1.0
C      1  0.4145540000000  0.4343150000000  0.5398360000000 1.0
C      1  0.4378270000000  0.4652140000000  0.4328500000000 1.0
C      1  0.4066900000000  0.4924010000000  0.5245560000000 1.0
C      1  0.4534400000000  0.4833020000000  0.5615500000000 1.0
C      1  0.5691390000000  0.4636340000000  0.5274630000000 1.0
C      1  0.4728020000000  0.4609770000000  0.5571620000000 1.0
C      1  0.5579410000000  0.4590160000000  0.4196390000000 1.0
C      1  0.5361820000000  0.5461960000000  0.5359280000000 1.0
C      1  0.5339030000000  0.4013970000000  0.4843160000000 1.0
C      1  0.4419280000000  0.5493610000000  0.5678760000000 1.0
C      1  0.4434640000000  0.5216140000000  0.4916050000000 1.0
C      1  0.5116930000000  0.4983710000000  0.5480880000000 1.0
C      1  0.4667760000000  0.5308540000000  0.5699590000000 1.0
C      1  0.5576110000000  0.4540330000000  0.4871760000000 1.0
C      1  0.6139710000000  0.5176160000000  0.4610460000000 1.0
C      1  0.4096570000000  0.5331010000000  0.4510230000000 1.0
C      1  0.5456990000000  0.4313880000000  0.5257060000000 1.0
C      1  0.5729190000000  0.4229280000000  0.5070560000000 1.0
C      1  0.5049170000000  0.5228980000000  0.5787620000000 1.0
C      1  0.5698580000000  0.4450440000000  0.5822570000000 1.0
C      1  0.4686810000000  0.5015490000000  0.4184110000000 1.0
C      1  0.4694200000000  0.5513680000000  0.4215840000000 1.0
C      1  0.4654720000000  0.4522270000000  0.5189250000000 1.0
C      1  0.4861350000000  0.4270870000000  0.4869270000000 1.0
C      1  0.5970930000000  0.5080430000000  0.4856330000000 1.0
C      1  0.4298770000000  0.4093430000000  0.5219170000000 1.0
C      1  0.4986070000000  0.4726050000000  0.6148150000000 1.0
C      1  0.4810320000000  0.5727490000000  0.4556520000000 1.0
C      1  0.5322230000000  0.5037970000000  0.4442150000000 1.0
C      1  0.4884240000000  0.4633350000000  0.4436020000000 1.0
C      1  0.4230010000000  0.4521260000000  0.4897150000000 1.0
C      1  0.4928640000000  0.6007590000000  0.4697590000000 1.0
C      1  0.4486940000000  0.5768260000000  0.5698640000000 1.0
C      1  0.5129250000000  0.3923680000000  0.5247170000000 1.0
C      1  0.5570400000000  0.5476250000000  0.4257360000000 1.0
C      1  0.5364190000000  0.4640590000000  0.5198440000000 1.0
C      1  0.4394820000000  0.4826140000000  0.4905660000000 1.0
C      1  0.5924580000000  0.4874500000000  0.5194160000000 1.0
C      1  0.4804650000000  0.3992990000000  0.5311340000000 1.0
C      1  0.5631710000000  0.5388230000000  0.5714170000000 1.0
C      1  0.4775190000000  0.6042860000000  0.5361220000000 1.0
C      1  0.5175080000000  0.5240270000000  0.4962110000000 1.0
C      1  0.4562060000000  0.5068090000000  0.4637620000000 1.0
C      1  0.5165660000000  0.5148270000000  0.3893270000000 1.0
C      1  0.5003030000000  0.4824470000000  0.4765970000000 1.0
C      1  0.4584390000000  0.5477000000000  0.5048660000000 1.0
C      1  0.5889030000000  0.4581700000000  0.4627430000000 1.0
C      1  0.4832130000000  0.4703760000000  0.5848350000000 1.0
C      1  0.5121380000000  0.4839320000000  0.4306490000000 1.0
C      1  0.4608570000000  0.5385480000000  0.4601070000000 1.0
C      1  0.5051450000000  0.5880230000000  0.4396350000000 1.0
C      1  0.5467330000000  0.5188890000000  0.4175450000000 1.0
C      1  0.5219880000000  0.6212870000000  0.5093830000000 1.0
C      1  0.5815180000000  0.5536570000000  0.4658980000000 1.0
C      1  0.5123300000000  0.5470300000000  0.3944810000000 1.0
C      1  0.4127650000000  0.5215340000000  0.4261610000000 1.0
C      1  0.5499940000000  0.4823660000000  0.4745530000000 1.0
C      1  0.4711060000000  0.4337400000000  0.5743770000000 1.0
C      1  0.5703190000000  0.4848150000000  0.5792170000000 1.0
C      1  0.5658670000000  0.5216210000000  0.4838650000000 1.0
C      1  0.5739540000000  0.5656570000000  0.4891220000000 1.0
C      1  0.4296610000000  0.5523690000000  0.4626900000000 1.0
C      1  0.5776160000000  0.4810020000000  0.4319850000000 1.0
C      1  0.4440310000000  0.4784680000000  0.5231820000000 1.0
C      1  0.5546180000000  0.4233970000000  0.4581240000000 1.0
C      1  0.4207790000000  0.5618850000000  0.4902310000000 1.0
C      1  0.4721440000000  0.5770050000000  0.4943800000000 1.0
C      1  0.5066110000000  0.4782340000000  0.5097780000000 1.0
C      1  0.4169420000000  0.5208480000000  0.5607050000000 1.0
C      1  0.4403160000000  0.3948120000000  0.5009770000000 1.0
C      1  0.4423550000000  0.5113530000000  0.4065490000000 1.0
C      1  0.4493620000000  0.5393120000000  0.4004630000000 1.0
C      1  0.5049990000000  0.3978980000000  0.4675320000000 1.0
C      1  0.4004910000000  0.4540390000000  0.5164140000000 1.0
C      1  0.5395560000000  0.4934320000000  0.5327570000000 1.0
C      1  0.5560530000000  0.4669760000000  0.5983380000000 1.0
C      1  0.5149910000000  0.4306700000000  0.4221330000000 1.0
C      1  0.5736450000000  0.5080490000000  0.5476720000000 1.0
C      1  0.5536870000000  0.5218750000000  0.5236510000000 1.0
C      1  0.4694330000000  0.4220120000000  0.4345520000000 1.0
C      1  0.5369110000000  0.5081990000000  0.4876170000000 1.0
C      1  0.4954080000000  0.5568230000000  0.4935110000000 1.0
C      1  0.4463330000000  0.4925740000000  0.5920370000000 1.0
C      1  0.4992740000000  0.5828670000000  0.5230980000000 1.0
END
