TITL C-2778426-5645-239 0.00509398457954242 125000 -1150.07280548052 0 0 196 (C1) n - 1
REM
REM in /home/nfs/bkarasulu/CARBON/AIRSS/Generating-Clusters/REBO/Only-C1/SD-CG/HFTN-CG
REM
REM
REM
REM
REM
REM ./C.cell (11c1c37f851c82e70ff6c80c92926a4b)
REM
REM compiler GCC version 9.2.1 20190827 (Red Hat 9.2.1-1)
REM options -cpp -mtune=generic -march=x86-64 -g -O0 -fpre-include=/usr/include/finclude/math-vector-fortran.h
REM seed -277361196 1602282311 -1647537575 -1612791775 916743930 -1493670527 -669992079 -1523129468 315394457 1206026991 329353843 945686292 -89171781 1674213290 -957579088 263340237 397898678 -209996094 -1810953961 340470434 1500337874 -1711485167 -2039174603 4973475 -1963870245 731302391 -1791180158 2122007947 1553818986 833187620 723565065 894582692 823633856
REM
CELL 1.54180   50.00000   50.00000   50.00000   90.00000   90.00000   90.00000
LATT -1
SFAC C  
C      1  0.4092510000000  0.5542170000000  0.5514740000000 1.0
C      1  0.4359040000000  0.5337740000000  0.3927620000000 1.0
C      1  0.5416130000000  0.5576800000000  0.5805680000000 1.0
C      1  0.5694280000000  0.4989470000000  0.6071900000000 1.0
C      1  0.4659490000000  0.5155930000000  0.5806380000000 1.0
C      1  0.5415990000000  0.4078100000000  0.4801550000000 1.0
C      1  0.6038560000000  0.4905490000000  0.5597010000000 1.0
C      1  0.4492000000000  0.5979720000000  0.4592510000000 1.0
C      1  0.5504450000000  0.4594920000000  0.4156450000000 1.0
C      1  0.5591460000000  0.5529070000000  0.4696640000000 1.0
C      1  0.5611690000000  0.4698670000000  0.5919770000000 1.0
C      1  0.4903680000000  0.5017330000000  0.6157340000000 1.0
C      1  0.5425480000000  0.5095250000000  0.5550060000000 1.0
C      1  0.5390930000000  0.4640670000000  0.5231050000000 1.0
C      1  0.5200790000000  0.4855310000000  0.4356410000000 1.0
C      1  0.5969240000000  0.5643650000000  0.4646570000000 1.0
C      1  0.4963120000000  0.4783380000000  0.5702930000000 1.0
C      1  0.4052990000000  0.5664510000000  0.4745130000000 1.0
C      1  0.5282850000000  0.5850560000000  0.5779470000000 1.0
C      1  0.5172610000000  0.4450610000000  0.5391600000000 1.0
C      1  0.4726160000000  0.4644970000000  0.5230000000000 1.0
C      1  0.5437430000000  0.4051570000000  0.5098930000000 1.0
C      1  0.4292100000000  0.4926750000000  0.6064860000000 1.0
C      1  0.4832500000000  0.4716300000000  0.4940520000000 1.0
C      1  0.4753590000000  0.4169460000000  0.4336160000000 1.0
C      1  0.4527820000000  0.4710050000000  0.5690170000000 1.0
C      1  0.4968810000000  0.4412950000000  0.4230650000000 1.0
C      1  0.5014950000000  0.6079210000000  0.5156910000000 1.0
C      1  0.4634570000000  0.4400680000000  0.5787980000000 1.0
C      1  0.5282810000000  0.5523940000000  0.4183680000000 1.0
C      1  0.5551090000000  0.5133920000000  0.5248050000000 1.0
C      1  0.4578210000000  0.5662650000000  0.5812400000000 1.0
C      1  0.5144430000000  0.5273250000000  0.4297930000000 1.0
C      1  0.5237790000000  0.4559350000000  0.4487500000000 1.0
C      1  0.5185730000000  0.5457910000000  0.4869350000000 1.0
C      1  0.5173760000000  0.5190700000000  0.5721530000000 1.0
C      1  0.4176040000000  0.4957250000000  0.4940510000000 1.0
C      1  0.4532020000000  0.5124540000000  0.3820920000000 1.0
C      1  0.4505840000000  0.4910700000000  0.4046650000000 1.0
C      1  0.5040840000000  0.5643910000000  0.4390410000000 1.0
C      1  0.5043520000000  0.5135790000000  0.3925760000000 1.0
C      1  0.4391640000000  0.5539540000000  0.4200640000000 1.0
C      1  0.4552610000000  0.4273030000000  0.4801250000000 1.0
C      1  0.5378280000000  0.5659930000000  0.5034410000000 1.0
C      1  0.4860260000000  0.5912220000000  0.5337780000000 1.0
C      1  0.5967560000000  0.4617500000000  0.4708880000000 1.0
C      1  0.5866920000000  0.5431750000000  0.4398240000000 1.0
C      1  0.4423210000000  0.4093550000000  0.5102430000000 1.0
C      1  0.4843090000000  0.5566640000000  0.5532820000000 1.0
C      1  0.5997000000000  0.4615270000000  0.5011160000000 1.0
C      1  0.5582000000000  0.4319870000000  0.4349930000000 1.0
C      1  0.3784140000000  0.5280920000000  0.4979580000000 1.0
C      1  0.5524400000000  0.5034420000000  0.4494870000000 1.0
C      1  0.5712710000000  0.4779410000000  0.4784270000000 1.0
C      1  0.5844000000000  0.5341290000000  0.5648730000000 1.0
C      1  0.6047800000000  0.4869000000000  0.5108560000000 1.0
C      1  0.4883310000000  0.4679540000000  0.3897840000000 1.0
C      1  0.4776520000000  0.3748380000000  0.5075280000000 1.0
C      1  0.6076050000000  0.5105540000000  0.4485050000000 1.0
C      1  0.4979970000000  0.5398480000000  0.3955500000000 1.0
C      1  0.4570000000000  0.5060960000000  0.4541370000000 1.0
C      1  0.4365000000000  0.5709260000000  0.4635060000000 1.0
C      1  0.5525850000000  0.5918680000000  0.5299830000000 1.0
C      1  0.4511140000000  0.4727850000000  0.4521310000000 1.0
C      1  0.5081760000000  0.3871100000000  0.4719980000000 1.0
C      1  0.4502380000000  0.4940680000000  0.5879610000000 1.0
C      1  0.4355450000000  0.5598420000000  0.5611980000000 1.0
C      1  0.3974980000000  0.5075670000000  0.5362840000000 1.0
C      1  0.4958870000000  0.5920500000000  0.4477360000000 1.0
C      1  0.4868660000000  0.5036760000000  0.6431060000000 1.0
C      1  0.4257410000000  0.4651710000000  0.4351450000000 1.0
C      1  0.4757450000000  0.4929020000000  0.4214430000000 1.0
C      1  0.4684400000000  0.5949850000000  0.4382840000000 1.0
C      1  0.5511300000000  0.5387330000000  0.4093350000000 1.0
C      1  0.4204810000000  0.4755520000000  0.5461020000000 1.0
C      1  0.5885430000000  0.5078370000000  0.5806920000000 1.0
C      1  0.5035390000000  0.5930510000000  0.5867790000000 1.0
C      1  0.5721300000000  0.4866570000000  0.4143930000000 1.0
C      1  0.5262010000000  0.4906350000000  0.4683690000000 1.0
C      1  0.5416740000000  0.5223010000000  0.4869490000000 1.0
C      1  0.4583460000000  0.5458700000000  0.5462780000000 1.0
C      1  0.4570100000000  0.6072450000000  0.4862360000000 1.0
C      1  0.4210790000000  0.4366570000000  0.4443790000000 1.0
C      1  0.5648310000000  0.4225390000000  0.4673450000000 1.0
C      1  0.4836650000000  0.5235960000000  0.4301230000000 1.0
C      1  0.5270730000000  0.4949740000000  0.5190690000000 1.0
C      1  0.4804110000000  0.4010350000000  0.4636460000000 1.0
C      1  0.4879120000000  0.4265250000000  0.5134290000000 1.0
C      1  0.5160240000000  0.4786960000000  0.4929340000000 1.0
C      1  0.4712520000000  0.3795440000000  0.5336220000000 1.0
C      1  0.3916950000000  0.5092290000000  0.4817690000000 1.0
C      1  0.3903230000000  0.5136350000000  0.4542660000000 1.0
C      1  0.4825260000000  0.4968190000000  0.3842330000000 1.0
C      1  0.4255510000000  0.4690020000000  0.4824600000000 1.0
C      1  0.4211860000000  0.5153960000000  0.4166110000000 1.0
C      1  0.6226400000000  0.5136000000000  0.4710840000000 1.0
C      1  0.4523590000000  0.4844860000000  0.5376670000000 1.0
C      1  0.5455220000000  0.4517180000000  0.4941140000000 1.0
C      1  0.4751160000000  0.5685090000000  0.5164510000000 1.0
C      1  0.5606370000000  0.4269710000000  0.5231390000000 1.0
C      1  0.5759230000000  0.4384100000000  0.4956740000000 1.0
C      1  0.5751810000000  0.5300800000000  0.4873950000000 1.0
C      1  0.5460080000000  0.5423950000000  0.5507840000000 1.0
C      1  0.5877020000000  0.4397740000000  0.4503770000000 1.0
C      1  0.5927690000000  0.4659570000000  0.5536690000000 1.0
C      1  0.4558510000000  0.4371770000000  0.5188700000000 1.0
C      1  0.5731790000000  0.5562030000000  0.5766290000000 1.0
C      1  0.4529830000000  0.5233400000000  0.5284270000000 1.0
C      1  0.5617680000000  0.4916440000000  0.5694030000000 1.0
C      1  0.4403680000000  0.4479380000000  0.5472670000000 1.0
C      1  0.4847370000000  0.4787450000000  0.6010020000000 1.0
C      1  0.5400710000000  0.4467060000000  0.5824590000000 1.0
C      1  0.5254660000000  0.3824190000000  0.4479390000000 1.0
C      1  0.5207770000000  0.3945400000000  0.5218570000000 1.0
C      1  0.4488480000000  0.4187750000000  0.5578190000000 1.0
C      1  0.4935690000000  0.4609460000000  0.5457050000000 1.0
C      1  0.4455100000000  0.4220590000000  0.4492020000000 1.0
C      1  0.5097100000000  0.4155590000000  0.4894460000000 1.0
C      1  0.4041050000000  0.4966910000000  0.5670050000000 1.0
C      1  0.4233130000000  0.4833790000000  0.4144050000000 1.0
C      1  0.5560250000000  0.5844460000000  0.4683320000000 1.0
C      1  0.5181340000000  0.4613720000000  0.4049460000000 1.0
C      1  0.4956610000000  0.4605170000000  0.4637910000000 1.0
C      1  0.5054140000000  0.3783390000000  0.5029290000000 1.0
C      1  0.4876890000000  0.4223450000000  0.5664240000000 1.0
C      1  0.4559700000000  0.4600310000000  0.4810770000000 1.0
C      1  0.5294460000000  0.3991550000000  0.4299830000000 1.0
C      1  0.5766090000000  0.5168250000000  0.4582500000000 1.0
C      1  0.4093330000000  0.4511850000000  0.4687620000000 1.0
C      1  0.4891570000000  0.5073630000000  0.5619760000000 1.0
C      1  0.4145920000000  0.5562460000000  0.4433080000000 1.0
C      1  0.4813700000000  0.4350100000000  0.4612430000000 1.0
C      1  0.5903380000000  0.5145690000000  0.4211370000000 1.0
C      1  0.4573610000000  0.5256980000000  0.4798260000000 1.0
C      1  0.4032870000000  0.4909620000000  0.5957700000000 1.0
C      1  0.5303590000000  0.5352500000000  0.5991000000000 1.0
C      1  0.4778940000000  0.5050090000000  0.5333450000000 1.0
C      1  0.4024220000000  0.5287690000000  0.4356080000000 1.0
C      1  0.4878150000000  0.5600400000000  0.4116930000000 1.0
C      1  0.4611830000000  0.3931460000000  0.4885430000000 1.0
C      1  0.5496030000000  0.5084270000000  0.4165070000000 1.0
C      1  0.5236740000000  0.4953190000000  0.4061890000000 1.0
C      1  0.4665700000000  0.4546480000000  0.4009400000000 1.0
C      1  0.3879770000000  0.5543980000000  0.5001230000000 1.0
C      1  0.5895280000000  0.5550230000000  0.5151370000000 1.0
C      1  0.5730820000000  0.4681670000000  0.4398830000000 1.0
C      1  0.5261910000000  0.5212370000000  0.4564760000000 1.0
C      1  0.5690760000000  0.4567980000000  0.5378350000000 1.0
C      1  0.3802250000000  0.4849060000000  0.6094860000000 1.0
C      1  0.4987400000000  0.5268190000000  0.6001140000000 1.0
C      1  0.4943220000000  0.5436760000000  0.5108180000000 1.0
C      1  0.4665290000000  0.4552940000000  0.4302050000000 1.0
C      1  0.5264070000000  0.4303800000000  0.4287430000000 1.0
C      1  0.6044030000000  0.5176500000000  0.4966100000000 1.0
C      1  0.5139440000000  0.4118550000000  0.5457390000000 1.0
C      1  0.4604400000000  0.5556200000000  0.4790880000000 1.0
C      1  0.4801760000000  0.5868940000000  0.5671750000000 1.0
C      1  0.5194730000000  0.4229250000000  0.5774590000000 1.0
C      1  0.4628350000000  0.5736580000000  0.4186000000000 1.0
C      1  0.5286850000000  0.5962690000000  0.4985670000000 1.0
C      1  0.5038960000000  0.5967560000000  0.4776270000000 1.0
C      1  0.4361260000000  0.3994500000000  0.5367310000000 1.0
C      1  0.4830790000000  0.6161660000000  0.4917140000000 1.0
C      1  0.5121690000000  0.5646740000000  0.5477820000000 1.0
C      1  0.5647230000000  0.5682240000000  0.4414680000000 1.0
C      1  0.4208660000000  0.5756590000000  0.5033610000000 1.0
C      1  0.4707230000000  0.5433800000000  0.5921060000000 1.0
C      1  0.4928080000000  0.5660350000000  0.4777430000000 1.0
C      1  0.5512940000000  0.5182420000000  0.6148550000000 1.0
C      1  0.3984650000000  0.5291400000000  0.5582420000000 1.0
C      1  0.5876320000000  0.5738100000000  0.4901200000000 1.0
C      1  0.5497960000000  0.4591690000000  0.4630250000000 1.0
C      1  0.4984350000000  0.5098390000000  0.5107150000000 1.0
C      1  0.5240470000000  0.5465570000000  0.5262200000000 1.0
C      1  0.5127350000000  0.4455650000000  0.4995920000000 1.0
C      1  0.4032430000000  0.5639740000000  0.5254900000000 1.0
C      1  0.4869030000000  0.4899590000000  0.4538990000000 1.0
C      1  0.4698350000000  0.4562720000000  0.6051610000000 1.0
C      1  0.5817160000000  0.5276360000000  0.5338130000000 1.0
C      1  0.6077700000000  0.5073590000000  0.5349150000000 1.0
C      1  0.4908880000000  0.5396730000000  0.4588890000000 1.0
C      1  0.5217990000000  0.4724950000000  0.5878740000000 1.0
C      1  0.3976330000000  0.4616510000000  0.5251720000000 1.0
C      1  0.6174150000000  0.5367090000000  0.5204400000000 1.0
C      1  0.4501040000000  0.5793520000000  0.5000760000000 1.0
C      1  0.4509570000000  0.5234460000000  0.4281430000000 1.0
C      1  0.4401320000000  0.5160640000000  0.5028330000000 1.0
C      1  0.4748080000000  0.4090710000000  0.5396820000000 1.0
C      1  0.5630130000000  0.5962600000000  0.4978300000000 1.0
C      1  0.5307450000000  0.5913850000000  0.5483930000000 1.0
C      1  0.5610890000000  0.5609870000000  0.5273550000000 1.0
C      1  0.3975120000000  0.4895400000000  0.5165040000000 1.0
C      1  0.5463740000000  0.4378480000000  0.5522190000000 1.0
C      1  0.4878320000000  0.5124490000000  0.4787070000000 1.0
C      1  0.5595660000000  0.4950600000000  0.4966460000000 1.0
C      1  0.5270320000000  0.4871650000000  0.6093100000000 1.0
END
