TITL C-2778436-5916-298 -0.00284225062103047 125000 -746.562917653077 0 0 131 (C1) n - 1
REM
REM in /home/nfs/bkarasulu/CARBON/AIRSS/Generating-Clusters/REBO/Only-C1/SD-CG/HFTN-CG
REM
REM
REM
REM
REM
REM ./C.cell (11c1c37f851c82e70ff6c80c92926a4b)
REM
REM compiler GCC version 9.2.1 20190827 (Red Hat 9.2.1-1)
REM options -cpp -mtune=generic -march=x86-64 -g -O0 -fpre-include=/usr/include/finclude/math-vector-fortran.h
REM seed -1707258905 -510952056 -645165148 -1620905004 -1523068552 1444810455 1507786854 -1102445823 -1027819833 1267039096 -913948035 -862832301 1160592406 -1572778863 -1866881764 1901685757 901796221 -1925687991 448917120 760158652 -1330077052 692635765 -849882769 1724118693 -505709140 -182514251 -601781279 233398294 -845336399 1414299823 186014280 804959677 1479796245
REM
CELL 1.54180   50.00000   50.00000   50.00000   90.00000   90.00000   90.00000
LATT -1
SFAC C  
C      1  0.5153420000000  0.5581520000000  0.5204640000000 1.0
C      1  0.5822850000000  0.5155840000000  0.5108640000000 1.0
C      1  0.5504980000000  0.5312610000000  0.4358700000000 1.0
C      1  0.4732390000000  0.4643960000000  0.4669620000000 1.0
C      1  0.5216790000000  0.5023970000000  0.5536520000000 1.0
C      1  0.5341790000000  0.4427390000000  0.5721820000000 1.0
C      1  0.5026140000000  0.4203150000000  0.4217080000000 1.0
C      1  0.5669660000000  0.5435540000000  0.4789910000000 1.0
C      1  0.4897070000000  0.4800970000000  0.3975890000000 1.0
C      1  0.4545830000000  0.4877010000000  0.5054870000000 1.0
C      1  0.5732440000000  0.4417920000000  0.5425830000000 1.0
C      1  0.4781920000000  0.4922670000000  0.6002730000000 1.0
C      1  0.4783480000000  0.5933470000000  0.5422350000000 1.0
C      1  0.4433320000000  0.5141250000000  0.5213400000000 1.0
C      1  0.5840420000000  0.5611720000000  0.4993680000000 1.0
C      1  0.4744200000000  0.4241870000000  0.4392130000000 1.0
C      1  0.4530280000000  0.4865820000000  0.5855190000000 1.0
C      1  0.4517230000000  0.5343000000000  0.4397080000000 1.0
C      1  0.5138310000000  0.5214040000000  0.4169810000000 1.0
C      1  0.4588070000000  0.5725510000000  0.5142810000000 1.0
C      1  0.5410940000000  0.4815830000000  0.5688910000000 1.0
C      1  0.4118890000000  0.4514840000000  0.5343300000000 1.0
C      1  0.4883250000000  0.5103070000000  0.4021810000000 1.0
C      1  0.5197560000000  0.4404620000000  0.4152220000000 1.0
C      1  0.4854960000000  0.5962780000000  0.4795170000000 1.0
C      1  0.5598770000000  0.4497260000000  0.4425750000000 1.0
C      1  0.5261290000000  0.4977450000000  0.5930490000000 1.0
C      1  0.4636190000000  0.4555100000000  0.4377380000000 1.0
C      1  0.5077900000000  0.4545910000000  0.5836640000000 1.0
C      1  0.4862080000000  0.6208290000000  0.4666340000000 1.0
C      1  0.5233850000000  0.4561940000000  0.5114630000000 1.0
C      1  0.5060620000000  0.5732880000000  0.4700780000000 1.0
C      1  0.5644950000000  0.4694270000000  0.5249390000000 1.0
C      1  0.4993430000000  0.5111010000000  0.5945500000000 1.0
C      1  0.4795400000000  0.4463640000000  0.5684470000000 1.0
C      1  0.5647250000000  0.4584030000000  0.5711960000000 1.0
C      1  0.5162960000000  0.5304320000000  0.5722630000000 1.0
C      1  0.4746690000000  0.5480770000000  0.5007200000000 1.0
C      1  0.5802070000000  0.5297890000000  0.4523530000000 1.0
C      1  0.5411890000000  0.5021920000000  0.4238700000000 1.0
C      1  0.5630970000000  0.5772420000000  0.5107030000000 1.0
C      1  0.4858040000000  0.4142600000000  0.5029720000000 1.0
C      1  0.5292340000000  0.5779640000000  0.5518730000000 1.0
C      1  0.5458520000000  0.4888590000000  0.5079180000000 1.0
C      1  0.5485990000000  0.5318310000000  0.5790510000000 1.0
C      1  0.5329200000000  0.5107050000000  0.5262300000000 1.0
C      1  0.4280180000000  0.5416840000000  0.4631170000000 1.0
C      1  0.5529190000000  0.5103790000000  0.4616580000000 1.0
C      1  0.4004820000000  0.4835860000000  0.5303760000000 1.0
C      1  0.5027250000000  0.4770850000000  0.5585980000000 1.0
C      1  0.5298730000000  0.4707490000000  0.4270370000000 1.0
C      1  0.5130720000000  0.4659620000000  0.3988750000000 1.0
C      1  0.5447870000000  0.5632410000000  0.4707310000000 1.0
C      1  0.4734560000000  0.3867440000000  0.5188090000000 1.0
C      1  0.4394380000000  0.4373810000000  0.5197700000000 1.0
C      1  0.5919900000000  0.4682890000000  0.5531860000000 1.0
C      1  0.5305480000000  0.5512490000000  0.4471890000000 1.0
C      1  0.4968160000000  0.5173950000000  0.4884990000000 1.0
C      1  0.5734970000000  0.4325430000000  0.4631330000000 1.0
C      1  0.5488300000000  0.4203980000000  0.5063920000000 1.0
C      1  0.4451710000000  0.5331100000000  0.5756980000000 1.0
C      1  0.4194110000000  0.5069920000000  0.5435330000000 1.0
C      1  0.4574060000000  0.4139320000000  0.5215070000000 1.0
C      1  0.4364450000000  0.4444130000000  0.4900010000000 1.0
C      1  0.4918540000000  0.5021740000000  0.4485740000000 1.0
C      1  0.4556330000000  0.4289080000000  0.4663930000000 1.0
C      1  0.4360810000000  0.5059900000000  0.5726610000000 1.0
C      1  0.4220550000000  0.4741470000000  0.4813530000000 1.0
C      1  0.5009260000000  0.5401030000000  0.5426990000000 1.0
C      1  0.5582770000000  0.5301660000000  0.5301720000000 1.0
C      1  0.4310840000000  0.4762280000000  0.5208390000000 1.0
C      1  0.5016030000000  0.4075490000000  0.4502320000000 1.0
C      1  0.5553080000000  0.4200020000000  0.5338090000000 1.0
C      1  0.4570300000000  0.5106610000000  0.4154770000000 1.0
C      1  0.4332980000000  0.5528410000000  0.5570220000000 1.0
C      1  0.5083740000000  0.5898720000000  0.5283370000000 1.0
C      1  0.4315780000000  0.5245240000000  0.4911430000000 1.0
C      1  0.4006110000000  0.4843900000000  0.4964790000000 1.0
C      1  0.5115260000000  0.4304180000000  0.5285740000000 1.0
C      1  0.5902550000000  0.5112760000000  0.4777020000000 1.0
C      1  0.5011580000000  0.5170390000000  0.5199650000000 1.0
C      1  0.5457480000000  0.5845500000000  0.4883990000000 1.0
C      1  0.4917280000000  0.4674390000000  0.6081400000000 1.0
C      1  0.4128160000000  0.5254300000000  0.4386520000000 1.0
C      1  0.5404270000000  0.4811520000000  0.4577410000000 1.0
C      1  0.5537480000000  0.5167250000000  0.4927760000000 1.0
C      1  0.4535990000000  0.4855690000000  0.4756100000000 1.0
C      1  0.5054640000000  0.5505210000000  0.4916250000000 1.0
C      1  0.4629890000000  0.5100910000000  0.4587010000000 1.0
C      1  0.5137170000000  0.4553960000000  0.4785940000000 1.0
C      1  0.5019070000000  0.5345770000000  0.4460510000000 1.0
C      1  0.4497130000000  0.4610990000000  0.5421380000000 1.0
C      1  0.5536080000000  0.4680240000000  0.4854010000000 1.0
C      1  0.4534760000000  0.5715860000000  0.5466020000000 1.0
C      1  0.4736070000000  0.4831210000000  0.4268460000000 1.0
C      1  0.4631420000000  0.5224420000000  0.4877190000000 1.0
C      1  0.4732450000000  0.4848270000000  0.5496920000000 1.0
C      1  0.5918390000000  0.4867480000000  0.5249880000000 1.0
C      1  0.4908400000000  0.4509720000000  0.5384500000000 1.0
C      1  0.5052460000000  0.4819470000000  0.5054960000000 1.0
C      1  0.4713160000000  0.5382010000000  0.5593300000000 1.0
C      1  0.5204170000000  0.4174110000000  0.4680590000000 1.0
C      1  0.4522090000000  0.5579040000000  0.4168360000000 1.0
C      1  0.4825730000000  0.5688180000000  0.5646660000000 1.0
C      1  0.4244290000000  0.5128360000000  0.4200170000000 1.0
C      1  0.4851780000000  0.4373770000000  0.4813920000000 1.0
C      1  0.4357150000000  0.4549300000000  0.4571640000000 1.0
C      1  0.5349700000000  0.4417650000000  0.4579490000000 1.0
C      1  0.5791230000000  0.4809190000000  0.4674820000000 1.0
C      1  0.4785400000000  0.4757410000000  0.5185900000000 1.0
C      1  0.4771810000000  0.5536600000000  0.4480680000000 1.0
C      1  0.5472790000000  0.5599720000000  0.5297170000000 1.0
C      1  0.5097800000000  0.5744630000000  0.4382180000000 1.0
C      1  0.5659270000000  0.5296470000000  0.5608950000000 1.0
C      1  0.4828610000000  0.5698000000000  0.4183850000000 1.0
C      1  0.5180820000000  0.4154980000000  0.4986070000000 1.0
C      1  0.4716090000000  0.5140710000000  0.5367290000000 1.0
C      1  0.5119710000000  0.5643780000000  0.5724070000000 1.0
C      1  0.6003670000000  0.4842270000000  0.4940780000000 1.0
C      1  0.4216470000000  0.5479050000000  0.5112790000000 1.0
C      1  0.4665210000000  0.5722440000000  0.4698170000000 1.0
C      1  0.5311970000000  0.4211500000000  0.5497620000000 1.0
C      1  0.4175170000000  0.5397280000000  0.5377920000000 1.0
C      1  0.5619290000000  0.4382470000000  0.4890060000000 1.0
C      1  0.5117890000000  0.5529740000000  0.4119730000000 1.0
C      1  0.4402950000000  0.5630680000000  0.4869510000000 1.0
C      1  0.5376000000000  0.4598870000000  0.5422360000000 1.0
C      1  0.4814570000000  0.5960970000000  0.5089510000000 1.0
C      1  0.4534410000000  0.4601570000000  0.5738860000000 1.0
C      1  0.5062450000000  0.4883800000000  0.4731950000000 1.0
C      1  0.5667820000000  0.4823390000000  0.4357020000000 1.0
END
