TITL C-2778430-5657-387 0.000347764027756717 125000 -328.219969895671 0 0 57 (C1) n - 1
REM
REM in /home/nfs/bkarasulu/CARBON/AIRSS/Generating-Clusters/REBO/Only-C1/SD-CG/HFTN-CG
REM
REM
REM
REM
REM
REM ./C.cell (11c1c37f851c82e70ff6c80c92926a4b)
REM
REM compiler GCC version 9.2.1 20190827 (Red Hat 9.2.1-1)
REM options -cpp -mtune=generic -march=x86-64 -g -O0 -fpre-include=/usr/include/finclude/math-vector-fortran.h
REM seed -1413350955 2082957956 1572473864 -1261259537 200091648 -2013215985 2014774678 1880164362 1181171756 1257369450 222722035 1311554427 915445497 -2138083706 -2021756644 -641681758 -652098897 -470145444 205167335 -280940439 630243793 -2094157904 545632553 927615829 1841742710 211935478 -1648486782 -1339324343 327554859 -532676666 72901407 -1511989902 -1464363366
REM
CELL 1.54180   50.00000   50.00000   50.00000   90.00000   90.00000   90.00000
LATT -1
SFAC C  
C      1  0.5416220000000  0.4918630000000  0.4036740000000 1.0
C      1  0.5209440000000  0.4566390000000  0.5103860000000 1.0
C      1  0.5143520000000  0.5209260000000  0.5708940000000 1.0
C      1  0.4904220000000  0.5698440000000  0.4871910000000 1.0
C      1  0.4676310000000  0.5271790000000  0.5640160000000 1.0
C      1  0.4529730000000  0.5388530000000  0.4958120000000 1.0
C      1  0.4942120000000  0.5330700000000  0.5551820000000 1.0
C      1  0.4788730000000  0.4805760000000  0.5569860000000 1.0
C      1  0.4709480000000  0.5190100000000  0.5151510000000 1.0
C      1  0.5653510000000  0.4835880000000  0.5241330000000 1.0
C      1  0.4548200000000  0.4609420000000  0.5306440000000 1.0
C      1  0.4524010000000  0.4594040000000  0.4830480000000 1.0
C      1  0.5159530000000  0.4471370000000  0.4598190000000 1.0
C      1  0.4725950000000  0.4374350000000  0.5244740000000 1.0
C      1  0.5617970000000  0.5057700000000  0.5064950000000 1.0
C      1  0.4887190000000  0.4501430000000  0.5484080000000 1.0
C      1  0.5472400000000  0.5304510000000  0.4475720000000 1.0
C      1  0.5058970000000  0.4852770000000  0.5422400000000 1.0
C      1  0.5254200000000  0.4964980000000  0.5752990000000 1.0
C      1  0.5332470000000  0.5583180000000  0.4398040000000 1.0
C      1  0.4978140000000  0.5823540000000  0.4150770000000 1.0
C      1  0.4723200000000  0.4810020000000  0.4659370000000 1.0
C      1  0.5553950000000  0.5326350000000  0.5109340000000 1.0
C      1  0.4358580000000  0.4628780000000  0.5513040000000 1.0
C      1  0.5510630000000  0.4927640000000  0.4784800000000 1.0
C      1  0.5391430000000  0.4852700000000  0.4300020000000 1.0
C      1  0.5385190000000  0.4749260000000  0.5627510000000 1.0
C      1  0.4602870000000  0.4916150000000  0.4403940000000 1.0
C      1  0.5239680000000  0.4977690000000  0.4963880000000 1.0
C      1  0.4843670000000  0.5499740000000  0.4531420000000 1.0
C      1  0.5055410000000  0.5697930000000  0.4386390000000 1.0
C      1  0.5481300000000  0.5030330000000  0.4503150000000 1.0
C      1  0.4713480000000  0.4376250000000  0.4954560000000 1.0
C      1  0.5255570000000  0.4616580000000  0.4378200000000 1.0
C      1  0.4164350000000  0.4860190000000  0.5064400000000 1.0
C      1  0.5150120000000  0.5039610000000  0.5236820000000 1.0
C      1  0.5589860000000  0.4618360000000  0.4796300000000 1.0
C      1  0.4310140000000  0.4905140000000  0.5582450000000 1.0
C      1  0.4896120000000  0.4527000000000  0.4715380000000 1.0
C      1  0.4180910000000  0.5025490000000  0.5352240000000 1.0
C      1  0.4675880000000  0.4850960000000  0.5148710000000 1.0
C      1  0.5015510000000  0.5847560000000  0.4670290000000 1.0
C      1  0.5382730000000  0.5496340000000  0.4963990000000 1.0
C      1  0.4947500000000  0.5311110000000  0.4753130000000 1.0
C      1  0.4645260000000  0.5570980000000  0.4781920000000 1.0
C      1  0.4585330000000  0.5001110000000  0.5635580000000 1.0
C      1  0.4978390000000  0.5297410000000  0.5244400000000 1.0
C      1  0.4255720000000  0.4649040000000  0.4902630000000 1.0
C      1  0.5083080000000  0.5475120000000  0.5011650000000 1.0
C      1  0.4408770000000  0.5065370000000  0.5121060000000 1.0
C      1  0.5204600000000  0.4557600000000  0.5428930000000 1.0
C      1  0.4931580000000  0.4727870000000  0.4989920000000 1.0
C      1  0.5640340000000  0.4812290000000  0.5521180000000 1.0
C      1  0.5337910000000  0.4447560000000  0.4812220000000 1.0
C      1  0.4967450000000  0.5005050000000  0.4787460000000 1.0
C      1  0.5452640000000  0.5539260000000  0.4694850000000 1.0
C      1  0.5548580000000  0.4607360000000  0.5105810000000 1.0
END
