TITL C-2778431-5191-1434 2.24124931699611e-05 125000 -226.903443499408 0 0 39 (C1) n - 1
REM
REM in /home/nfs/bkarasulu/CARBON/AIRSS/Generating-Clusters/REBO/Only-C1/SD-CG/HFTN-CG
REM
REM
REM
REM
REM
REM ./C.cell (11c1c37f851c82e70ff6c80c92926a4b)
REM
REM compiler GCC version 9.2.1 20190827 (Red Hat 9.2.1-1)
REM options -cpp -mtune=generic -march=x86-64 -g -O0 -fpre-include=/usr/include/finclude/math-vector-fortran.h
REM seed 565472969 -49299650 -459472456 457522488 -880643304 367391861 411894266 -255115294 57367471 341421429 -1199498717 -2015746580 -1221326567 -86874492 1883144264 2126103979 309904789 -1671172109 -1714422135 -228919444 -1368543040 64420263 -2080850593 -1436487603 1938459915 1021292839 -791201971 569106191 -1882321833 -1620695986 2032709508 518065410 928601852
REM
CELL 1.54180   50.00000   50.00000   50.00000   90.00000   90.00000   90.00000
LATT -1
SFAC C  
C      1  0.4397800000000  0.4980120000000  0.5461830000000 1.0
C      1  0.4348870000000  0.5061820000000  0.5206070000000 1.0
C      1  0.4970500000000  0.5323450000000  0.5467260000000 1.0
C      1  0.5255040000000  0.5384230000000  0.5518420000000 1.0
C      1  0.5185420000000  0.5084720000000  0.4827010000000 1.0
C      1  0.4631730000000  0.4977660000000  0.5599620000000 1.0
C      1  0.4541310000000  0.4782730000000  0.4681990000000 1.0
C      1  0.5148710000000  0.4974190000000  0.5098610000000 1.0
C      1  0.5327100000000  0.5061780000000  0.5294250000000 1.0
C      1  0.5419680000000  0.4619670000000  0.4629540000000 1.0
C      1  0.4474110000000  0.4953620000000  0.4463830000000 1.0
C      1  0.4919220000000  0.4593820000000  0.5264080000000 1.0
C      1  0.4575030000000  0.4366990000000  0.4976960000000 1.0
C      1  0.5581610000000  0.4901940000000  0.5033170000000 1.0
C      1  0.5478790000000  0.4627940000000  0.4899910000000 1.0
C      1  0.4889570000000  0.5443190000000  0.5219720000000 1.0
C      1  0.5364850000000  0.4727460000000  0.4374420000000 1.0
C      1  0.4742520000000  0.4386460000000  0.5192990000000 1.0
C      1  0.5251050000000  0.4985000000000  0.4355130000000 1.0
C      1  0.4571920000000  0.5206980000000  0.4410930000000 1.0
C      1  0.4494420000000  0.4518640000000  0.4764290000000 1.0
C      1  0.5103900000000  0.5208610000000  0.4371930000000 1.0
C      1  0.4842570000000  0.5328190000000  0.4523580000000 1.0
C      1  0.4532480000000  0.5149230000000  0.5013060000000 1.0
C      1  0.4708900000000  0.4940720000000  0.4877470000000 1.0
C      1  0.4934510000000  0.5090230000000  0.4713610000000 1.0
C      1  0.5464560000000  0.5147180000000  0.4924860000000 1.0
C      1  0.5377490000000  0.5106310000000  0.5599150000000 1.0
C      1  0.5359340000000  0.5531790000000  0.5295660000000 1.0
C      1  0.4887470000000  0.5471870000000  0.4822240000000 1.0
C      1  0.4903540000000  0.4824970000000  0.5095770000000 1.0
C      1  0.5177260000000  0.4665450000000  0.5403500000000 1.0
C      1  0.4898930000000  0.5058730000000  0.5579800000000 1.0
C      1  0.5146570000000  0.5552810000000  0.5027340000000 1.0
C      1  0.4664490000000  0.5397530000000  0.5024290000000 1.0
C      1  0.5404350000000  0.4677460000000  0.5218210000000 1.0
C      1  0.5421220000000  0.4584330000000  0.4149260000000 1.0
C      1  0.5458290000000  0.5415950000000  0.5017930000000 1.0
C      1  0.5144890000000  0.4886170000000  0.5602270000000 1.0
END
