TITL C-2778434-4341-1047 -0.00241906186719878 125000 -579.467743806636 0 0 99 (C1) n - 1
REM
REM in /home/nfs/bkarasulu/CARBON/AIRSS/Generating-Clusters/REBO/Only-C1/SD-CG/HFTN-CG
REM
REM
REM
REM
REM
REM ./C.cell (11c1c37f851c82e70ff6c80c92926a4b)
REM
REM compiler GCC version 9.2.1 20190827 (Red Hat 9.2.1-1)
REM options -cpp -mtune=generic -march=x86-64 -g -O0 -fpre-include=/usr/include/finclude/math-vector-fortran.h
REM seed 1007358024 -679183338 -1000515770 109612294 1938669386 -1596690805 -659889426 -1137854094 662113353 -1741648502 1252966855 -869385047 -1835939931 1699043857 -1035346129 -1450775604 996818509 355864778 722837234 -905717356 1178977565 919226916 917944120 1178384218 2147113309 2022119658 -1189251017 1088067827 79980319 -901065528 1077524129 -2119032357 -29570783
REM
CELL 1.54180   50.00000   50.00000   50.00000   90.00000   90.00000   90.00000
LATT -1
SFAC C  
C      1  0.5158650000000  0.5372500000000  0.5669310000000 1.0
C      1  0.5292160000000  0.5247050000000  0.5403520000000 1.0
C      1  0.5069840000000  0.4519510000000  0.5667790000000 1.0
C      1  0.4247820000000  0.4705040000000  0.4676040000000 1.0
C      1  0.4435650000000  0.4850840000000  0.5127250000000 1.0
C      1  0.5357090000000  0.5124760000000  0.4310300000000 1.0
C      1  0.4652260000000  0.4471790000000  0.4698450000000 1.0
C      1  0.5551980000000  0.4242570000000  0.4748250000000 1.0
C      1  0.4748030000000  0.4316990000000  0.5083420000000 1.0
C      1  0.5632870000000  0.5373730000000  0.4668250000000 1.0
C      1  0.4443360000000  0.5496040000000  0.4822810000000 1.0
C      1  0.5133340000000  0.5001470000000  0.5341730000000 1.0
C      1  0.5206130000000  0.4253890000000  0.5166320000000 1.0
C      1  0.5631640000000  0.5579770000000  0.5138130000000 1.0
C      1  0.4878250000000  0.4610590000000  0.5136610000000 1.0
C      1  0.4851100000000  0.5018020000000  0.5395230000000 1.0
C      1  0.5440290000000  0.4897130000000  0.4363620000000 1.0
C      1  0.5780170000000  0.4486120000000  0.5308950000000 1.0
C      1  0.4941150000000  0.5743340000000  0.5272800000000 1.0
C      1  0.4835330000000  0.5389080000000  0.4123940000000 1.0
C      1  0.4743380000000  0.5154260000000  0.5877310000000 1.0
C      1  0.4733570000000  0.5274510000000  0.5262940000000 1.0
C      1  0.4827180000000  0.5384450000000  0.5738920000000 1.0
C      1  0.4407290000000  0.5607960000000  0.5260990000000 1.0
C      1  0.5656820000000  0.4595360000000  0.5030750000000 1.0
C      1  0.4920840000000  0.5552820000000  0.4338680000000 1.0
C      1  0.5701050000000  0.4828770000000  0.5753160000000 1.0
C      1  0.5035460000000  0.4971620000000  0.4936660000000 1.0
C      1  0.4500750000000  0.4649850000000  0.4538790000000 1.0
C      1  0.4702920000000  0.4770030000000  0.4317940000000 1.0
C      1  0.4712850000000  0.5010880000000  0.4099870000000 1.0
C      1  0.4391710000000  0.4896220000000  0.5606430000000 1.0
C      1  0.4300760000000  0.4998850000000  0.5370400000000 1.0
C      1  0.5378200000000  0.4395530000000  0.4341070000000 1.0
C      1  0.5881800000000  0.4842110000000  0.4538990000000 1.0
C      1  0.5092840000000  0.4384650000000  0.4378750000000 1.0
C      1  0.5747730000000  0.5098550000000  0.4718170000000 1.0
C      1  0.5659830000000  0.5315520000000  0.5286770000000 1.0
C      1  0.5170150000000  0.5775990000000  0.5099410000000 1.0
C      1  0.4223200000000  0.5267040000000  0.5351330000000 1.0
C      1  0.5361180000000  0.5358310000000  0.4524490000000 1.0
C      1  0.5038020000000  0.4168260000000  0.4635630000000 1.0
C      1  0.4477210000000  0.4323780000000  0.4913440000000 1.0
C      1  0.4977910000000  0.4654650000000  0.4388000000000 1.0
C      1  0.4921550000000  0.5413170000000  0.5048050000000 1.0
C      1  0.4209840000000  0.5419030000000  0.5055610000000 1.0
C      1  0.4220610000000  0.4531190000000  0.4903420000000 1.0
C      1  0.4417480000000  0.5439570000000  0.4506320000000 1.0
C      1  0.5417840000000  0.5241630000000  0.5085170000000 1.0
C      1  0.5429140000000  0.4699750000000  0.5341500000000 1.0
C      1  0.4996320000000  0.5828460000000  0.4618020000000 1.0
C      1  0.4966700000000  0.4967640000000  0.5939750000000 1.0
C      1  0.5156970000000  0.5119740000000  0.4656370000000 1.0
C      1  0.4283420000000  0.5138150000000  0.4496900000000 1.0
C      1  0.5028090000000  0.5655310000000  0.5532040000000 1.0
C      1  0.5430060000000  0.5766750000000  0.5215940000000 1.0
C      1  0.5290180000000  0.4125780000000  0.4860310000000 1.0
C      1  0.4423810000000  0.4528530000000  0.5178970000000 1.0
C      1  0.4169910000000  0.4979600000000  0.4705710000000 1.0
C      1  0.4663020000000  0.5725840000000  0.5173910000000 1.0
C      1  0.4367110000000  0.5470020000000  0.5539310000000 1.0
C      1  0.4548580000000  0.5221110000000  0.4999050000000 1.0
C      1  0.4728350000000  0.4864590000000  0.5014540000000 1.0
C      1  0.5362510000000  0.4495800000000  0.4991200000000 1.0
C      1  0.4611120000000  0.5740520000000  0.4888580000000 1.0
C      1  0.4733530000000  0.5523070000000  0.4549910000000 1.0
C      1  0.4664130000000  0.5438770000000  0.5515790000000 1.0
C      1  0.4550990000000  0.5275010000000  0.4240130000000 1.0
C      1  0.5168620000000  0.5651400000000  0.4825820000000 1.0
C      1  0.4692190000000  0.4919320000000  0.5656010000000 1.0
C      1  0.5497060000000  0.4965840000000  0.4891050000000 1.0
C      1  0.4239590000000  0.5085910000000  0.4985090000000 1.0
C      1  0.5119450000000  0.4810060000000  0.4585340000000 1.0
C      1  0.5865140000000  0.4815290000000  0.4874450000000 1.0
C      1  0.5284290000000  0.4868300000000  0.5098330000000 1.0
C      1  0.5808980000000  0.4862550000000  0.5188810000000 1.0
C      1  0.5202230000000  0.5610900000000  0.4469720000000 1.0
C      1  0.4929010000000  0.4454170000000  0.4735480000000 1.0
C      1  0.4593630000000  0.5033470000000  0.4477420000000 1.0
C      1  0.5211580000000  0.5098450000000  0.5864470000000 1.0
C      1  0.4650690000000  0.4412250000000  0.5398520000000 1.0
C      1  0.5119820000000  0.4602110000000  0.5341530000000 1.0
C      1  0.5811750000000  0.5084190000000  0.5337320000000 1.0
C      1  0.4720480000000  0.5072990000000  0.4745460000000 1.0
C      1  0.5713830000000  0.4666820000000  0.5523760000000 1.0
C      1  0.4604000000000  0.4529200000000  0.5661270000000 1.0
C      1  0.5207730000000  0.5340510000000  0.4893400000000 1.0
C      1  0.4856490000000  0.4674170000000  0.5815170000000 1.0
C      1  0.5534280000000  0.4454160000000  0.4574260000000 1.0
C      1  0.5341170000000  0.4680220000000  0.5661860000000 1.0
C      1  0.4962800000000  0.4131680000000  0.4967510000000 1.0
C      1  0.5560860000000  0.4759900000000  0.4623710000000 1.0
C      1  0.4936280000000  0.5152220000000  0.3951940000000 1.0
C      1  0.4976460000000  0.4313810000000  0.5410800000000 1.0
C      1  0.5177940000000  0.4616510000000  0.4806860000000 1.0
C      1  0.4832160000000  0.5370050000000  0.4764230000000 1.0
C      1  0.5685590000000  0.5560340000000  0.4858650000000 1.0
C      1  0.4749870000000  0.5893260000000  0.4699780000000 1.0
C      1  0.5425030000000  0.4920740000000  0.5823850000000 1.0
END
