TITL C-2778434-4341-1048 -0.00245387716781608 125000 -429.809572277928 0 0 74 (C1) n - 1
REM
REM in /home/nfs/bkarasulu/CARBON/AIRSS/Generating-Clusters/REBO/Only-C1/SD-CG/HFTN-CG
REM
REM
REM
REM
REM
REM ./C.cell (11c1c37f851c82e70ff6c80c92926a4b)
REM
REM compiler GCC version 9.2.1 20190827 (Red Hat 9.2.1-1)
REM options -cpp -mtune=generic -march=x86-64 -g -O0 -fpre-include=/usr/include/finclude/math-vector-fortran.h
REM seed 1061513874 1904139019 1796342465 1047391483 650152374 1193079039 -1239453855 95653206 936934441 -410278927 1387880167 -2063773318 1342093482 1327054580 -1222999593 -924620957 -1459237845 -235017825 1183743488 590962253 1746020852 -90035147 -1654655053 -2120890412 1763008364 -1044896462 1020602932 -236944022 540310024 -794185407 1767898660 -1129214248 -1927280873
REM
CELL 1.54180   50.00000   50.00000   50.00000   90.00000   90.00000   90.00000
LATT -1
SFAC C  
C      1  0.5611150000000  0.5481120000000  0.4832840000000 1.0
C      1  0.4418180000000  0.5351020000000  0.4740980000000 1.0
C      1  0.4910700000000  0.5157330000000  0.4802530000000 1.0
C      1  0.5011330000000  0.5370920000000  0.4648270000000 1.0
C      1  0.5145130000000  0.5604200000000  0.5045080000000 1.0
C      1  0.5060370000000  0.4376480000000  0.5749200000000 1.0
C      1  0.5693970000000  0.5056870000000  0.5322820000000 1.0
C      1  0.5083440000000  0.4916420000000  0.5842600000000 1.0
C      1  0.4381480000000  0.4494950000000  0.5036940000000 1.0
C      1  0.5516240000000  0.5501820000000  0.5343830000000 1.0
C      1  0.4573890000000  0.5168820000000  0.5786570000000 1.0
C      1  0.4801260000000  0.5429000000000  0.5146260000000 1.0
C      1  0.5343510000000  0.4849360000000  0.5002250000000 1.0
C      1  0.4820830000000  0.5596960000000  0.4561960000000 1.0
C      1  0.5752810000000  0.5320600000000  0.4645080000000 1.0
C      1  0.4182010000000  0.4927110000000  0.4835870000000 1.0
C      1  0.5222430000000  0.4617530000000  0.4381470000000 1.0
C      1  0.4686340000000  0.4973840000000  0.4679930000000 1.0
C      1  0.4620680000000  0.4744740000000  0.4244130000000 1.0
C      1  0.5765470000000  0.5159340000000  0.5010240000000 1.0
C      1  0.4760620000000  0.4734400000000  0.4502030000000 1.0
C      1  0.4338620000000  0.5167130000000  0.4936740000000 1.0
C      1  0.5120710000000  0.4345180000000  0.4773650000000 1.0
C      1  0.5612760000000  0.4445160000000  0.4894140000000 1.0
C      1  0.4417640000000  0.4912340000000  0.5380400000000 1.0
C      1  0.4902130000000  0.4430740000000  0.4985120000000 1.0
C      1  0.4362980000000  0.5836430000000  0.4838040000000 1.0
C      1  0.5717880000000  0.5479630000000  0.5123480000000 1.0
C      1  0.4556130000000  0.4832880000000  0.4920930000000 1.0
C      1  0.4990830000000  0.4412670000000  0.5286640000000 1.0
C      1  0.4362750000000  0.5047320000000  0.5653530000000 1.0
C      1  0.4984380000000  0.4233270000000  0.5513920000000 1.0
C      1  0.4539850000000  0.4427150000000  0.5261150000000 1.0
C      1  0.4750940000000  0.4463060000000  0.4680820000000 1.0
C      1  0.4947660000000  0.5251920000000  0.4222820000000 1.0
C      1  0.5251640000000  0.5642930000000  0.5331610000000 1.0
C      1  0.4972950000000  0.5191860000000  0.5673740000000 1.0
C      1  0.5918360000000  0.4884680000000  0.4877400000000 1.0
C      1  0.4569220000000  0.5416270000000  0.5339890000000 1.0
C      1  0.4848860000000  0.5036790000000  0.5086960000000 1.0
C      1  0.4412030000000  0.4901260000000  0.4399910000000 1.0
C      1  0.4517420000000  0.5608010000000  0.4816530000000 1.0
C      1  0.4804150000000  0.4899450000000  0.5601310000000 1.0
C      1  0.5169410000000  0.5098850000000  0.4213940000000 1.0
C      1  0.5082370000000  0.4663550000000  0.5390900000000 1.0
C      1  0.5370650000000  0.4884960000000  0.4353770000000 1.0
C      1  0.4275810000000  0.4793960000000  0.5112540000000 1.0
C      1  0.5461740000000  0.5112630000000  0.4877730000000 1.0
C      1  0.4783080000000  0.4702990000000  0.5107390000000 1.0
C      1  0.5691410000000  0.4901000000000  0.4417660000000 1.0
C      1  0.4761030000000  0.4978760000000  0.5931910000000 1.0
C      1  0.5124330000000  0.4886080000000  0.5202680000000 1.0
C      1  0.4527120000000  0.5199460000000  0.4491700000000 1.0
C      1  0.5405640000000  0.5132420000000  0.4570240000000 1.0
C      1  0.5316080000000  0.5422900000000  0.4900690000000 1.0
C      1  0.5543330000000  0.4659370000000  0.5080070000000 1.0
C      1  0.4714420000000  0.5406410000000  0.5617830000000 1.0
C      1  0.5255020000000  0.5350560000000  0.4512440000000 1.0
C      1  0.5392700000000  0.4289280000000  0.4817100000000 1.0
C      1  0.5037210000000  0.5514170000000  0.5566980000000 1.0
C      1  0.5777250000000  0.4801110000000  0.5177870000000 1.0
C      1  0.4299020000000  0.4753980000000  0.4623690000000 1.0
C      1  0.5873750000000  0.4559310000000  0.4814250000000 1.0
C      1  0.5048510000000  0.4461540000000  0.4510870000000 1.0
C      1  0.4431860000000  0.4501780000000  0.4743880000000 1.0
C      1  0.4535280000000  0.5133990000000  0.5180600000000 1.0
C      1  0.5208680000000  0.5136320000000  0.5337230000000 1.0
C      1  0.4734840000000  0.5380560000000  0.4360280000000 1.0
C      1  0.5471960000000  0.5215660000000  0.5412290000000 1.0
C      1  0.5113170000000  0.4656410000000  0.5679390000000 1.0
C      1  0.4666530000000  0.4703320000000  0.5413710000000 1.0
C      1  0.4836430000000  0.5625010000000  0.4901810000000 1.0
C      1  0.5013750000000  0.5329210000000  0.5302940000000 1.0
C      1  0.5815920000000  0.5045420000000  0.4616020000000 1.0
END
