TITL C-2778433-5640-1352 0.00170790261165588 125000 -389.716738451476 0 0 66 (C1) n - 1
REM
REM in /home/nfs/bkarasulu/CARBON/AIRSS/Generating-Clusters/REBO/Only-C1/SD-CG/HFTN-CG
REM
REM
REM
REM
REM
REM ./C.cell (11c1c37f851c82e70ff6c80c92926a4b)
REM
REM compiler GCC version 9.2.1 20190827 (Red Hat 9.2.1-1)
REM options -cpp -mtune=generic -march=x86-64 -g -O0 -fpre-include=/usr/include/finclude/math-vector-fortran.h
REM seed 165794971 -1189720505 1633648339 -1728362132 -1704044204 680616003 -2099217175 1475765389 1183061804 1440744420 1185500408 -930695278 73128334 -1254178842 1783141340 -908633738 1989592601 -1831666592 206272773 1283434630 693664189 -1378454914 -1438753421 -1873315620 -1860536734 -1767671030 1231114705 -2097895598 -552584798 537465367 -577369527 185076870 -412694954
REM
CELL 1.54180   50.00000   50.00000   50.00000   90.00000   90.00000   90.00000
LATT -1
SFAC C  
C      1  0.5246900000000  0.4638080000000  0.5515700000000 1.0
C      1  0.4919770000000  0.4433240000000  0.5205140000000 1.0
C      1  0.5380710000000  0.4908520000000  0.4808780000000 1.0
C      1  0.4706280000000  0.4974070000000  0.5087470000000 1.0
C      1  0.4998360000000  0.4709740000000  0.4435990000000 1.0
C      1  0.4372520000000  0.4352790000000  0.5326120000000 1.0
C      1  0.5294470000000  0.4696170000000  0.5019420000000 1.0
C      1  0.4632130000000  0.4239210000000  0.4819420000000 1.0
C      1  0.5721530000000  0.5076250000000  0.4687960000000 1.0
C      1  0.5047040000000  0.5577780000000  0.5508050000000 1.0
C      1  0.5706310000000  0.4698100000000  0.4929520000000 1.0
C      1  0.5093540000000  0.4914790000000  0.5151100000000 1.0
C      1  0.5322900000000  0.5177200000000  0.4855010000000 1.0
C      1  0.5638100000000  0.5504450000000  0.5073640000000 1.0
C      1  0.4603540000000  0.4522760000000  0.4632990000000 1.0
C      1  0.4458490000000  0.5583060000000  0.4977990000000 1.0
C      1  0.4929150000000  0.4219080000000  0.4970250000000 1.0
C      1  0.4822040000000  0.5386950000000  0.5607870000000 1.0
C      1  0.5610260000000  0.4910760000000  0.5330820000000 1.0
C      1  0.4517610000000  0.5739340000000  0.4691870000000 1.0
C      1  0.4896510000000  0.4617630000000  0.4745700000000 1.0
C      1  0.4825310000000  0.5683970000000  0.4619430000000 1.0
C      1  0.5111920000000  0.4399360000000  0.4492230000000 1.0
C      1  0.5739930000000  0.4992250000000  0.4962050000000 1.0
C      1  0.4878330000000  0.4693120000000  0.5047500000000 1.0
C      1  0.5421710000000  0.4718070000000  0.5304330000000 1.0
C      1  0.5450980000000  0.5369940000000  0.4682070000000 1.0
C      1  0.5666220000000  0.5213140000000  0.5210910000000 1.0
C      1  0.5375870000000  0.4412210000000  0.4650650000000 1.0
C      1  0.4394950000000  0.5062880000000  0.4813240000000 1.0
C      1  0.4972870000000  0.5099030000000  0.5650700000000 1.0
C      1  0.4650820000000  0.5631400000000  0.5215780000000 1.0
C      1  0.5156530000000  0.4457240000000  0.4884380000000 1.0
C      1  0.4787750000000  0.5174530000000  0.4823170000000 1.0
C      1  0.5007160000000  0.5390360000000  0.5256250000000 1.0
C      1  0.5514120000000  0.4875360000000  0.4507210000000 1.0
C      1  0.5587620000000  0.4598310000000  0.4671690000000 1.0
C      1  0.4887770000000  0.5096460000000  0.5342860000000 1.0
C      1  0.5189730000000  0.4845280000000  0.5700450000000 1.0
C      1  0.4389120000000  0.4622070000000  0.5421250000000 1.0
C      1  0.4407360000000  0.4320910000000  0.5047580000000 1.0
C      1  0.4901040000000  0.5755280000000  0.5138910000000 1.0
C      1  0.4398120000000  0.4558760000000  0.4868560000000 1.0
C      1  0.4916820000000  0.4235770000000  0.4629660000000 1.0
C      1  0.4610530000000  0.5405260000000  0.5406870000000 1.0
C      1  0.5390490000000  0.5639630000000  0.5149570000000 1.0
C      1  0.5114620000000  0.5271740000000  0.4390510000000 1.0
C      1  0.5460150000000  0.5295940000000  0.5469170000000 1.0
C      1  0.5058250000000  0.5209050000000  0.5001800000000 1.0
C      1  0.5150580000000  0.5714540000000  0.4984790000000 1.0
C      1  0.5097110000000  0.5677710000000  0.4689260000000 1.0
C      1  0.4648820000000  0.5425150000000  0.4748690000000 1.0
C      1  0.4938530000000  0.5075050000000  0.4575370000000 1.0
C      1  0.5212470000000  0.4945430000000  0.4416740000000 1.0
C      1  0.5334280000000  0.5551460000000  0.5419010000000 1.0
C      1  0.5674770000000  0.5495050000000  0.4795240000000 1.0
C      1  0.4338490000000  0.4142490000000  0.5495050000000 1.0
C      1  0.5248360000000  0.5490420000000  0.4524950000000 1.0
C      1  0.4376890000000  0.5281360000000  0.5003040000000 1.0
C      1  0.4671740000000  0.4798440000000  0.4473160000000 1.0
C      1  0.4529220000000  0.5017740000000  0.4561320000000 1.0
C      1  0.4361430000000  0.4818680000000  0.4958430000000 1.0
C      1  0.5048930000000  0.4449070000000  0.5441690000000 1.0
C      1  0.4442670000000  0.5202840000000  0.5280250000000 1.0
C      1  0.5312480000000  0.5128310000000  0.5630860000000 1.0
C      1  0.4428940000000  0.4879010000000  0.5262530000000 1.0
END
