TITL C-2778429-3646-1373 0.270606343169271 125000 -721.963848871 0 0 123 (C1) n - 1
REM
REM in /home/nfs/bkarasulu/CARBON/AIRSS/Generating-Clusters/REBO/Only-C1/SD-CG/HFTN-CG
REM
REM
REM
REM
REM
REM ./C.cell (11c1c37f851c82e70ff6c80c92926a4b)
REM
REM compiler GCC version 9.2.1 20190827 (Red Hat 9.2.1-1)
REM options -cpp -mtune=generic -march=x86-64 -g -O0 -fpre-include=/usr/include/finclude/math-vector-fortran.h
REM seed 989937967 831066073 437236979 733008701 -1288913150 -308622208 -815698643 -725663941 1981103378 -1221172152 -1370460839 1276632816 330358758 -1749594792 -971578537 -2121766154 1500764536 795117422 809537790 -1073575466 14409751 -92604478 2111085000 383835756 1474149736 22029111 -148744876 661412867 -1422097072 1356659390 -399108500 1623911285 -1433976287
REM
CELL 1.54180   50.00000   50.00000   50.00000   90.00000   90.00000   90.00000
LATT -1
SFAC C  
C      1  0.4551230000000  0.5758240000000  0.5062810000000 1.0
C      1  0.4630300000000  0.5214320000000  0.4225040000000 1.0
C      1  0.5710770000000  0.5114210000000  0.5655240000000 1.0
C      1  0.6051640000000  0.5115130000000  0.5302760000000 1.0
C      1  0.4547300000000  0.4700030000000  0.5577370000000 1.0
C      1  0.5001160000000  0.6068610000000  0.4896180000000 1.0
C      1  0.4551040000000  0.5169240000000  0.5304760000000 1.0
C      1  0.4784180000000  0.4962170000000  0.5232170000000 1.0
C      1  0.5344010000000  0.4581770000000  0.5880350000000 1.0
C      1  0.5879680000000  0.5294560000000  0.4487920000000 1.0
C      1  0.5162620000000  0.5326250000000  0.5017140000000 1.0
C      1  0.4197830000000  0.5230800000000  0.4614380000000 1.0
C      1  0.5418210000000  0.4435780000000  0.4346290000000 1.0
C      1  0.4933000000000  0.5516820000000  0.4715730000000 1.0
C      1  0.4496470000000  0.5321350000000  0.4722120000000 1.0
C      1  0.5236810000000  0.4708620000000  0.4450930000000 1.0
C      1  0.4713280000000  0.4250670000000  0.4441160000000 1.0
C      1  0.5928580000000  0.4774740000000  0.5146310000000 1.0
C      1  0.4814080000000  0.5720380000000  0.4552480000000 1.0
C      1  0.5036410000000  0.4641900000000  0.5990060000000 1.0
C      1  0.5836740000000  0.4896470000000  0.5444620000000 1.0
C      1  0.6003830000000  0.5415190000000  0.5239500000000 1.0
C      1  0.4976560000000  0.4547630000000  0.4459730000000 1.0
C      1  0.5324760000000  0.6083240000000  0.4779270000000 1.0
C      1  0.5417210000000  0.4475160000000  0.5102090000000 1.0
C      1  0.4898570000000  0.5258790000000  0.5473860000000 1.0
C      1  0.4832850000000  0.4503780000000  0.5777180000000 1.0
C      1  0.4495370000000  0.5187170000000  0.5633130000000 1.0
C      1  0.5135230000000  0.4043680000000  0.4807710000000 1.0
C      1  0.5048370000000  0.5266000000000  0.4584800000000 1.0
C      1  0.4728300000000  0.5099130000000  0.5816050000000 1.0
C      1  0.4381650000000  0.5478610000000  0.5536260000000 1.0
C      1  0.4744760000000  0.5415490000000  0.4929680000000 1.0
C      1  0.4777180000000  0.4826460000000  0.5876130000000 1.0
C      1  0.4761930000000  0.5939150000000  0.4973870000000 1.0
C      1  0.5101840000000  0.4994340000000  0.5543800000000 1.0
C      1  0.4665780000000  0.4576940000000  0.4335030000000 1.0
C      1  0.5079410000000  0.5610580000000  0.4166260000000 1.0
C      1  0.4459530000000  0.5356200000000  0.5057700000000 1.0
C      1  0.4073840000000  0.5174350000000  0.5220030000000 1.0
C      1  0.4367210000000  0.5679550000000  0.4841870000000 1.0
C      1  0.4478540000000  0.4420030000000  0.5564210000000 1.0
C      1  0.4460510000000  0.4559490000000  0.5125310000000 1.0
C      1  0.4590790000000  0.5416200000000  0.4420630000000 1.0
C      1  0.4449240000000  0.4585640000000  0.4579340000000 1.0
C      1  0.5287010000000  0.5774420000000  0.5189920000000 1.0
C      1  0.4361010000000  0.4355150000000  0.5310680000000 1.0
C      1  0.4775840000000  0.4486390000000  0.5027840000000 1.0
C      1  0.4867360000000  0.5022440000000  0.4110620000000 1.0
C      1  0.4263050000000  0.5636130000000  0.5732230000000 1.0
C      1  0.4362910000000  0.4913250000000  0.5544270000000 1.0
C      1  0.5178460000000  0.5073170000000  0.4090870000000 1.0
C      1  0.5359740000000  0.5146020000000  0.5381500000000 1.0
C      1  0.4152120000000  0.5484310000000  0.4836970000000 1.0
C      1  0.5335630000000  0.4193230000000  0.5589910000000 1.0
C      1  0.5251030000000  0.5581390000000  0.4949210000000 1.0
C      1  0.5409940000000  0.5102500000000  0.5775270000000 1.0
C      1  0.5379450000000  0.5161570000000  0.5098200000000 1.0
C      1  0.5678190000000  0.4531100000000  0.4633790000000 1.0
C      1  0.4338010000000  0.4136170000000  0.4891580000000 1.0
C      1  0.5522760000000  0.4840720000000  0.5566370000000 1.0
C      1  0.4856890000000  0.5565770000000  0.5403820000000 1.0
C      1  0.5648670000000  0.4249050000000  0.4671960000000 1.0
C      1  0.4400000000000  0.4998980000000  0.4222050000000 1.0
C      1  0.4264520000000  0.4762320000000  0.5090070000000 1.0
C      1  0.4508320000000  0.5694900000000  0.4580340000000 1.0
C      1  0.4236830000000  0.5411220000000  0.5270250000000 1.0
C      1  0.4998520000000  0.4466270000000  0.5488310000000 1.0
C      1  0.5474350000000  0.5260190000000  0.4276010000000 1.0
C      1  0.5126430000000  0.4171960000000  0.5357590000000 1.0
C      1  0.4869490000000  0.5034560000000  0.4663680000000 1.0
C      1  0.5402690000000  0.4454260000000  0.5636980000000 1.0
C      1  0.4693930000000  0.4195260000000  0.5158360000000 1.0
C      1  0.5070660000000  0.5310200000000  0.4297470000000 1.0
C      1  0.4955640000000  0.4301760000000  0.4218100000000 1.0
C      1  0.5249020000000  0.4222280000000  0.4325310000000 1.0
C      1  0.4137760000000  0.4857380000000  0.4858140000000 1.0
C      1  0.5623250000000  0.4675530000000  0.4366670000000 1.0
C      1  0.5286210000000  0.5591300000000  0.5665960000000 1.0
C      1  0.5820710000000  0.5392210000000  0.4748640000000 1.0
C      1  0.5581400000000  0.5242750000000  0.4878220000000 1.0
C      1  0.4196260000000  0.4929310000000  0.5315430000000 1.0
C      1  0.4660350000000  0.4802240000000  0.4664510000000 1.0
C      1  0.5419880000000  0.4924510000000  0.4261020000000 1.0
C      1  0.4902160000000  0.5265510000000  0.5144610000000 1.0
C      1  0.6091330000000  0.4993940000000  0.4992560000000 1.0
C      1  0.4964700000000  0.5274310000000  0.5792690000000 1.0
C      1  0.5497820000000  0.5677730000000  0.5421520000000 1.0
C      1  0.5764920000000  0.5711480000000  0.4734440000000 1.0
C      1  0.5262100000000  0.4203830000000  0.5081530000000 1.0
C      1  0.5540970000000  0.4671210000000  0.4858220000000 1.0
C      1  0.5339730000000  0.4638080000000  0.5378640000000 1.0
C      1  0.4788280000000  0.4891930000000  0.4937450000000 1.0
C      1  0.5296690000000  0.5391490000000  0.4029080000000 1.0
C      1  0.5427570000000  0.5381650000000  0.4536400000000 1.0
C      1  0.4466760000000  0.4312690000000  0.4739330000000 1.0
C      1  0.4849350000000  0.4773360000000  0.5482810000000 1.0
C      1  0.5564230000000  0.5354030000000  0.5506060000000 1.0
C      1  0.5101860000000  0.5698720000000  0.5442580000000 1.0
C      1  0.5040880000000  0.3786870000000  0.4870480000000 1.0
C      1  0.5237820000000  0.5352350000000  0.5802360000000 1.0
C      1  0.4943300000000  0.5793330000000  0.4309130000000 1.0
C      1  0.4789660000000  0.4431420000000  0.4720950000000 1.0
C      1  0.6034700000000  0.5303440000000  0.4954260000000 1.0
C      1  0.4206210000000  0.4772220000000  0.4600500000000 1.0
C      1  0.5254460000000  0.6051040000000  0.5088440000000 1.0
C      1  0.4818720000000  0.4123240000000  0.5394630000000 1.0
C      1  0.5460590000000  0.4122560000000  0.4816850000000 1.0
C      1  0.5304160000000  0.4848360000000  0.4713010000000 1.0
C      1  0.4703830000000  0.4238080000000  0.5630540000000 1.0
C      1  0.4589310000000  0.5626120000000  0.5322610000000 1.0
C      1  0.5211480000000  0.4873510000000  0.5829760000000 1.0
C      1  0.5045520000000  0.4590090000000  0.5190440000000 1.0
C      1  0.4642200000000  0.4821360000000  0.4163680000000 1.0
C      1  0.4279560000000  0.4127770000000  0.5161510000000 1.0
C      1  0.5242530000000  0.4746670000000  0.5006900000000 1.0
C      1  0.5320840000000  0.5135190000000  0.4703830000000 1.0
C      1  0.5510660000000  0.5883450000000  0.4676750000000 1.0
C      1  0.5776420000000  0.5536080000000  0.5327410000000 1.0
C      1  0.5021220000000  0.4150710000000  0.4549970000000 1.0
C      1  0.4032160000000  0.5170400000000  0.4905610000000 1.0
C      1  0.5380340000000  0.5612440000000  0.4695890000000 1.0
C      1  0.4212160000000  0.4996290000000  0.4429180000000 1.0
END
