TITL C-2778434-4341-309 312.77726768598 125000 -1146.56518812407 0 0 197 (C1) n - 1
REM
REM in /home/nfs/bkarasulu/CARBON/AIRSS/Generating-Clusters/REBO/Only-C1/SD-CG/HFTN-CG
REM
REM
REM
REM
REM
REM ./C.cell (11c1c37f851c82e70ff6c80c92926a4b)
REM
REM compiler GCC version 9.2.1 20190827 (Red Hat 9.2.1-1)
REM options -cpp -mtune=generic -march=x86-64 -g -O0 -fpre-include=/usr/include/finclude/math-vector-fortran.h
REM seed 1814032065 -1786373692 320634563 1805456014 134402621 1970584785 -1083772862 -217501226 -727840002 -1777753871 -980295606 -991592121 -2036896741 -1177264367 1000053114 944210123 -1839278231 1507422636 1335707641 1105352947 141946973 -1856560463 -1197550475 4860228 369944352 -2066509442 -1684277417 -413695464 -1613483793 2017251059 -803554035 603374660 -2130410168
REM
CELL 1.54180   50.00000   50.00000   50.00000   90.00000   90.00000   90.00000
LATT -1
SFAC C  
C      1  0.4339900000000  0.3959940000000  0.5181960000000 1.0
C      1  0.4081120000000  0.4786550000000  0.5750990000000 1.0
C      1  0.4215070000000  0.4766590000000  0.5341030000000 1.0
C      1  0.4236540000000  0.4889600000000  0.5954620000000 1.0
C      1  0.4953980000000  0.4841270000000  0.4706980000000 1.0
C      1  0.5219350000000  0.5722930000000  0.4695900000000 1.0
C      1  0.6004580000000  0.4401190000000  0.5137110000000 1.0
C      1  0.4360400000000  0.4733930000000  0.4058450000000 1.0
C      1  0.5039930000000  0.4439020000000  0.5353070000000 1.0
C      1  0.5354060000000  0.6062980000000  0.4850090000000 1.0
C      1  0.4516600000000  0.5322550000000  0.5746950000000 1.0
C      1  0.4145490000000  0.4784820000000  0.4543540000000 1.0
C      1  0.5511650000000  0.4815200000000  0.4337020000000 1.0
C      1  0.4722110000000  0.3844760000000  0.5200380000000 1.0
C      1  0.4928080000000  0.4208230000000  0.4689390000000 1.0
C      1  0.4312260000000  0.4532180000000  0.4502530000000 1.0
C      1  0.5802690000000  0.5396800000000  0.4464310000000 1.0
C      1  0.4426340000000  0.4469600000000  0.5701350000000 1.0
C      1  0.5028390000000  0.5602610000000  0.5815460000000 1.0
C      1  0.5154190000000  0.3910020000000  0.5268320000000 1.0
C      1  0.5064770000000  0.4640710000000  0.3918550000000 1.0
C      1  0.5255440000000  0.4590750000000  0.5136320000000 1.0
C      1  0.5469380000000  0.5028290000000  0.5106520000000 1.0
C      1  0.6112960000000  0.5198580000000  0.4982390000000 1.0
C      1  0.5812850000000  0.4192610000000  0.4943190000000 1.0
C      1  0.4792260000000  0.5941530000000  0.4843090000000 1.0
C      1  0.4841090000000  0.5698500000000  0.4384190000000 1.0
C      1  0.5190090000000  0.5241060000000  0.6137900000000 1.0
C      1  0.4806080000000  0.5329750000000  0.4128740000000 1.0
C      1  0.5740460000000  0.4494930000000  0.4271790000000 1.0
C      1  0.4811500000000  0.4203800000000  0.5548790000000 1.0
C      1  0.4573430000000  0.5907040000000  0.4592430000000 1.0
C      1  0.5946810000000  0.4554360000000  0.4843360000000 1.0
C      1  0.4619320000000  0.5987410000000  0.5199470000000 1.0
C      1  0.4590530000000  0.4414440000000  0.4987240000000 1.0
C      1  0.5900080000000  0.5024430000000  0.5171410000000 1.0
C      1  0.3972620000000  0.4633390000000  0.5053430000000 1.0
C      1  0.4513940000000  0.5533400000000  0.4849220000000 1.0
C      1  0.5528530000000  0.4610640000000  0.4064310000000 1.0
C      1  0.5209680000000  0.3913310000000  0.4544410000000 1.0
C      1  0.4346030000000  0.4997540000000  0.5044420000000 1.0
C      1  0.5183190000000  0.5715120000000  0.5626620000000 1.0
C      1  0.5761070000000  0.4291720000000  0.5325220000000 1.0
C      1  0.5500940000000  0.5065570000000  0.6057280000000 1.0
C      1  0.4233530000000  0.4971010000000  0.4085200000000 1.0
C      1  0.5203950000000  0.4909850000000  0.3846830000000 1.0
C      1  0.5085880000000  0.5610270000000  0.4165240000000 1.0
C      1  0.5809320000000  0.5361960000000  0.5659630000000 1.0
C      1  0.4604530000000  0.5595190000000  0.4082000000000 1.0
C      1  0.4470460000000  0.5290250000000  0.4065950000000 1.0
C      1  0.4863070000000  0.5164230000000  0.4769600000000 1.0
C      1  0.5527520000000  0.5252630000000  0.5238800000000 1.0
C      1  0.5742970000000  0.5779770000000  0.5278010000000 1.0
C      1  0.4897490000000  0.4299330000000  0.5077680000000 1.0
C      1  0.4719060000000  0.4863430000000  0.5171520000000 1.0
C      1  0.5010180000000  0.5146880000000  0.3969950000000 1.0
C      1  0.5472700000000  0.4660180000000  0.4879040000000 1.0
C      1  0.4310140000000  0.4254770000000  0.5251530000000 1.0
C      1  0.5133330000000  0.4212410000000  0.5668680000000 1.0
C      1  0.4609650000000  0.4668590000000  0.4549220000000 1.0
C      1  0.4459520000000  0.4516360000000  0.4213640000000 1.0
C      1  0.4764490000000  0.5190840000000  0.5251310000000 1.0
C      1  0.4275990000000  0.5503560000000  0.4432690000000 1.0
C      1  0.4026350000000  0.5336090000000  0.4879760000000 1.0
C      1  0.4781470000000  0.5705880000000  0.5518490000000 1.0
C      1  0.6029830000000  0.5472570000000  0.4935680000000 1.0
C      1  0.5247000000000  0.4873380000000  0.5998170000000 1.0
C      1  0.5005740000000  0.4849390000000  0.4404340000000 1.0
C      1  0.5434770000000  0.5933550000000  0.4552290000000 1.0
C      1  0.4958460000000  0.3987330000000  0.5040550000000 1.0
C      1  0.4960720000000  0.4558700000000  0.4295570000000 1.0
C      1  0.5088040000000  0.5140510000000  0.5027590000000 1.0
C      1  0.5750180000000  0.5160670000000  0.4826700000000 1.0
C      1  0.5071510000000  0.5324310000000  0.5314790000000 1.0
C      1  0.5479060000000  0.5354780000000  0.4062350000000 1.0
C      1  0.5828310000000  0.4796830000000  0.5743970000000 1.0
C      1  0.5763970000000  0.4830530000000  0.4924090000000 1.0
C      1  0.4068780000000  0.4467740000000  0.5337030000000 1.0
C      1  0.5415640000000  0.4581860000000  0.4552980000000 1.0
C      1  0.4369560000000  0.4657680000000  0.5055210000000 1.0
C      1  0.3970820000000  0.5259600000000  0.4496520000000 1.0
C      1  0.4729000000000  0.4402640000000  0.4225830000000 1.0
C      1  0.4313380000000  0.5011820000000  0.4491310000000 1.0
C      1  0.5614690000000  0.5103400000000  0.5604020000000 1.0
C      1  0.5526900000000  0.5417470000000  0.4859830000000 1.0
C      1  0.5253050000000  0.5879440000000  0.5118760000000 1.0
C      1  0.5476570000000  0.4148000000000  0.4975130000000 1.0
C      1  0.5569090000000  0.5535110000000  0.5394950000000 1.0
C      1  0.5207580000000  0.4694920000000  0.5728490000000 1.0
C      1  0.4691760000000  0.4851360000000  0.4295550000000 1.0
C      1  0.4821270000000  0.4125630000000  0.4245700000000 1.0
C      1  0.5476000000000  0.4891260000000  0.3923860000000 1.0
C      1  0.5183860000000  0.5616900000000  0.5329400000000 1.0
C      1  0.5742460000000  0.4926170000000  0.5938720000000 1.0
C      1  0.4210500000000  0.5248640000000  0.5667170000000 1.0
C      1  0.4943040000000  0.5235310000000  0.5682880000000 1.0
C      1  0.5429460000000  0.5609850000000  0.5098830000000 1.0
C      1  0.5257850000000  0.4469010000000  0.4046580000000 1.0
C      1  0.4898300000000  0.5272310000000  0.5991210000000 1.0
C      1  0.5863750000000  0.5150170000000  0.5427290000000 1.0
C      1  0.5630550000000  0.5942710000000  0.5007400000000 1.0
C      1  0.4772080000000  0.4476150000000  0.4727970000000 1.0
C      1  0.5265510000000  0.5011460000000  0.4378950000000 1.0
C      1  0.3953880000000  0.5009340000000  0.4661800000000 1.0
C      1  0.4736080000000  0.5395860000000  0.5519260000000 1.0
C      1  0.4966250000000  0.4569320000000  0.5613620000000 1.0
C      1  0.4007970000000  0.5572290000000  0.4632770000000 1.0
C      1  0.4062620000000  0.4993880000000  0.5516730000000 1.0
C      1  0.3884060000000  0.5255960000000  0.5437460000000 1.0
C      1  0.6085210000000  0.4768180000000  0.4649990000000 1.0
C      1  0.5489350000000  0.5469810000000  0.5700000000000 1.0
C      1  0.4928530000000  0.4645030000000  0.5053590000000 1.0
C      1  0.5556130000000  0.6064180000000  0.5302350000000 1.0
C      1  0.5869060000000  0.5555700000000  0.4712090000000 1.0
C      1  0.5445450000000  0.5031910000000  0.4792410000000 1.0
C      1  0.5151010000000  0.5840750000000  0.4388820000000 1.0
C      1  0.4581710000000  0.5446430000000  0.5155290000000 1.0
C      1  0.4045830000000  0.4892400000000  0.4940070000000 1.0
C      1  0.5911640000000  0.4707890000000  0.4370250000000 1.0
C      1  0.5578390000000  0.5519660000000  0.4270470000000 1.0
C      1  0.4483020000000  0.4994950000000  0.5524470000000 1.0
C      1  0.5252390000000  0.4247320000000  0.4758080000000 1.0
C      1  0.3867760000000  0.5231350000000  0.5054930000000 1.0
C      1  0.6077270000000  0.5248680000000  0.4373280000000 1.0
C      1  0.5221240000000  0.4384840000000  0.4355170000000 1.0
C      1  0.4292490000000  0.5455460000000  0.5320800000000 1.0
C      1  0.5098900000000  0.4928600000000  0.5276000000000 1.0
C      1  0.5616640000000  0.4442260000000  0.5055860000000 1.0
C      1  0.4453930000000  0.5922600000000  0.4908050000000 1.0
C      1  0.5021300000000  0.4949730000000  0.6189670000000 1.0
C      1  0.4545020000000  0.5110760000000  0.4332040000000 1.0
C      1  0.3940930000000  0.5495240000000  0.5507310000000 1.0
C      1  0.5522150000000  0.5204740000000  0.4506830000000 1.0
C      1  0.4374180000000  0.5145900000000  0.5318170000000 1.0
C      1  0.5695930000000  0.4277970000000  0.4450830000000 1.0
C      1  0.4168310000000  0.5263300000000  0.4219260000000 1.0
C      1  0.5782500000000  0.4997580000000  0.4290250000000 1.0
C      1  0.5606360000000  0.5101350000000  0.4048640000000 1.0
C      1  0.5042700000000  0.3951990000000  0.5521470000000 1.0
C      1  0.4723000000000  0.3959780000000  0.4720340000000 1.0
C      1  0.6026620000000  0.4711790000000  0.5200840000000 1.0
C      1  0.5773280000000  0.4722260000000  0.5427880000000 1.0
C      1  0.4715010000000  0.5020110000000  0.6065350000000 1.0
C      1  0.5411040000000  0.4003020000000  0.5233770000000 1.0
C      1  0.4311820000000  0.5334730000000  0.4717310000000 1.0
C      1  0.5005370000000  0.4967560000000  0.5505120000000 1.0
C      1  0.5477170000000  0.4617570000000  0.5567390000000 1.0
C      1  0.4862590000000  0.4846560000000  0.4031720000000 1.0
C      1  0.4525340000000  0.5135150000000  0.4820460000000 1.0
C      1  0.5136210000000  0.5269580000000  0.4525810000000 1.0
C      1  0.5103250000000  0.4552800000000  0.4771240000000 1.0
C      1  0.4754970000000  0.5561370000000  0.4679300000000 1.0
C      1  0.4413230000000  0.4039000000000  0.4624930000000 1.0
C      1  0.4246860000000  0.4303080000000  0.4684030000000 1.0
C      1  0.5196920000000  0.5395230000000  0.4027350000000 1.0
C      1  0.5242370000000  0.6127090000000  0.5342470000000 1.0
C      1  0.5251780000000  0.5269560000000  0.5593280000000 1.0
C      1  0.5389760000000  0.4310900000000  0.5611500000000 1.0
C      1  0.4548360000000  0.4706540000000  0.5404720000000 1.0
C      1  0.4717690000000  0.5547950000000  0.5887490000000 1.0
C      1  0.4762100000000  0.5304560000000  0.4470180000000 1.0
C      1  0.5889400000000  0.4284890000000  0.4655190000000 1.0
C      1  0.5465520000000  0.4119200000000  0.4526150000000 1.0
C      1  0.4655450000000  0.3937380000000  0.5425890000000 1.0
C      1  0.4936270000000  0.6113440000000  0.5184610000000 1.0
C      1  0.4498300000000  0.5978690000000  0.5463730000000 1.0
C      1  0.4503550000000  0.5022280000000  0.5861520000000 1.0
C      1  0.5552130000000  0.4143660000000  0.5444240000000 1.0
C      1  0.4509810000000  0.4098840000000  0.4942950000000 1.0
C      1  0.5612490000000  0.5737680000000  0.4767560000000 1.0
C      1  0.4907170000000  0.5958310000000  0.5473740000000 1.0
C      1  0.5364550000000  0.5513510000000  0.4507190000000 1.0
C      1  0.4152980000000  0.4531750000000  0.5657500000000 1.0
C      1  0.5940590000000  0.5043230000000  0.4583360000000 1.0
C      1  0.4645040000000  0.4728520000000  0.6548830000000 1.0
C      1  0.5093810000000  0.4100370000000  0.4343990000000 1.0
C      1  0.4497200000000  0.5729080000000  0.5696440000000 1.0
C      1  0.5032070000000  0.3835060000000  0.4754620000000 1.0
C      1  0.5004590000000  0.5604250000000  0.4867860000000 1.0
C      1  0.4559770000000  0.4369690000000  0.5419150000000 1.0
C      1  0.4777950000000  0.5706080000000  0.5090500000000 1.0
C      1  0.5209500000000  0.5350130000000  0.4835860000000 1.0
C      1  0.4192690000000  0.4391200000000  0.4966060000000 1.0
C      1  0.4719960000000  0.4550700000000  0.5736530000000 1.0
C      1  0.5042670000000  0.6122040000000  0.4883030000000 1.0
C      1  0.4650660000000  0.4837480000000  0.4841810000000 1.0
C      1  0.6007410000000  0.5646930000000  0.5164980000000 1.0
C      1  0.5173800000000  0.6014360000000  0.5631690000000 1.0
C      1  0.4213440000000  0.5691170000000  0.4877160000000 1.0
C      1  0.5445770000000  0.5382660000000  0.5995260000000 1.0
C      1  0.4105850000000  0.5628040000000  0.5139590000000 1.0
C      1  0.5356300000000  0.4987320000000  0.5693800000000 1.0
C      1  0.4500410000000  0.5702030000000  0.4365180000000 1.0
C      1  0.4751260000000  0.4849620000000  0.6349860000000 1.0
C      1  0.4246620000000  0.5583590000000  0.5615840000000 1.0
C      1  0.5479540000000  0.4770060000000  0.5263420000000 1.0
C      1  0.6178100000000  0.4875090000000  0.4942230000000 1.0
END
