TITL C-2778430-5657-51 -9.30930520176093e-05 125000 -781.011929147537 0 0 137 (C1) n - 1
REM
REM in /home/nfs/bkarasulu/CARBON/AIRSS/Generating-Clusters/REBO/Only-C1/SD-CG/HFTN-CG
REM
REM
REM
REM
REM
REM ./C.cell (11c1c37f851c82e70ff6c80c92926a4b)
REM
REM compiler GCC version 9.2.1 20190827 (Red Hat 9.2.1-1)
REM options -cpp -mtune=generic -march=x86-64 -g -O0 -fpre-include=/usr/include/finclude/math-vector-fortran.h
REM seed -140122283 -791786702 -2141858951 -1548230815 1412815462 -2139557260 652051371 784824096 -705951929 368568432 -1009948889 -640305275 1825241641 2067566531 730084588 -1352997468 -1807844834 1603836123 622231572 -128684111 102871343 1480555109 -820348379 -611189245 -211072734 783558819 -154856807 1122091581 1222874826 639332161 518337267 -1720935447 1114578550
REM
CELL 1.54180   50.00000   50.00000   50.00000   90.00000   90.00000   90.00000
LATT -1
SFAC C  
C      1  0.5243760000000  0.5461430000000  0.4655380000000 1.0
C      1  0.5402600000000  0.4474830000000  0.4439460000000 1.0
C      1  0.4660500000000  0.5041960000000  0.4376300000000 1.0
C      1  0.5565410000000  0.4746530000000  0.4456620000000 1.0
C      1  0.5451300000000  0.5801110000000  0.4623380000000 1.0
C      1  0.4887470000000  0.5301390000000  0.4734400000000 1.0
C      1  0.5248570000000  0.4069730000000  0.4717140000000 1.0
C      1  0.4687750000000  0.4015680000000  0.5350680000000 1.0
C      1  0.4108600000000  0.5247320000000  0.4726830000000 1.0
C      1  0.5080860000000  0.4485320000000  0.4316000000000 1.0
C      1  0.5341280000000  0.5480500000000  0.5445960000000 1.0
C      1  0.5576600000000  0.4870300000000  0.4159830000000 1.0
C      1  0.5290790000000  0.4472810000000  0.5697920000000 1.0
C      1  0.5532510000000  0.4248040000000  0.4631600000000 1.0
C      1  0.5008500000000  0.5923380000000  0.4976780000000 1.0
C      1  0.4948910000000  0.5031560000000  0.5220700000000 1.0
C      1  0.5553920000000  0.4533800000000  0.5246220000000 1.0
C      1  0.4540570000000  0.5609200000000  0.4328980000000 1.0
C      1  0.4785830000000  0.5041080000000  0.4050740000000 1.0
C      1  0.5737240000000  0.5718500000000  0.5357080000000 1.0
C      1  0.4267060000000  0.4887740000000  0.4408610000000 1.0
C      1  0.5485010000000  0.4281530000000  0.5459340000000 1.0
C      1  0.4254820000000  0.5097540000000  0.5115990000000 1.0
C      1  0.5435380000000  0.5036070000000  0.4938160000000 1.0
C      1  0.4943760000000  0.4448870000000  0.4833400000000 1.0
C      1  0.4564460000000  0.5243120000000  0.5185270000000 1.0
C      1  0.4284060000000  0.5534850000000  0.4777680000000 1.0
C      1  0.5327170000000  0.4851480000000  0.5183070000000 1.0
C      1  0.4430220000000  0.4765400000000  0.5752650000000 1.0
C      1  0.5208480000000  0.4538060000000  0.5248250000000 1.0
C      1  0.4714200000000  0.5934460000000  0.5023940000000 1.0
C      1  0.5850920000000  0.5431260000000  0.4728880000000 1.0
C      1  0.5051610000000  0.5675940000000  0.4767240000000 1.0
C      1  0.5676350000000  0.5638780000000  0.4597340000000 1.0
C      1  0.5588740000000  0.5203710000000  0.4113330000000 1.0
C      1  0.4637840000000  0.5174570000000  0.4895740000000 1.0
C      1  0.5922740000000  0.5096700000000  0.5310690000000 1.0
C      1  0.4337140000000  0.5439270000000  0.4454750000000 1.0
C      1  0.4990010000000  0.5814090000000  0.5351810000000 1.0
C      1  0.5881500000000  0.5411290000000  0.5353620000000 1.0
C      1  0.5244070000000  0.5786040000000  0.5463100000000 1.0
C      1  0.4757910000000  0.4665070000000  0.5780870000000 1.0
C      1  0.4390980000000  0.4371590000000  0.4860510000000 1.0
C      1  0.4675190000000  0.5235850000000  0.5901320000000 1.0
C      1  0.5187590000000  0.5180200000000  0.4839510000000 1.0
C      1  0.5871240000000  0.4766100000000  0.5248170000000 1.0
C      1  0.4393770000000  0.4141460000000  0.5234780000000 1.0
C      1  0.5488630000000  0.4672620000000  0.5536820000000 1.0
C      1  0.4690390000000  0.4517610000000  0.4645330000000 1.0
C      1  0.5582300000000  0.5818340000000  0.5144920000000 1.0
C      1  0.4290140000000  0.5168410000000  0.4320900000000 1.0
C      1  0.5008830000000  0.5027410000000  0.5707120000000 1.0
C      1  0.5399620000000  0.4999680000000  0.5981670000000 1.0
C      1  0.4888870000000  0.4831530000000  0.4290630000000 1.0
C      1  0.4671470000000  0.4992010000000  0.5662170000000 1.0
C      1  0.5433800000000  0.4637380000000  0.4939190000000 1.0
C      1  0.5039290000000  0.5494540000000  0.4115320000000 1.0
C      1  0.5444200000000  0.4128870000000  0.5196340000000 1.0
C      1  0.4449490000000  0.4867090000000  0.5074830000000 1.0
C      1  0.4252860000000  0.5329660000000  0.5419640000000 1.0
C      1  0.5830580000000  0.4647510000000  0.4980980000000 1.0
C      1  0.5337830000000  0.4969660000000  0.5487240000000 1.0
C      1  0.3914740000000  0.4893060000000  0.5156640000000 1.0
C      1  0.5868730000000  0.4846070000000  0.4710610000000 1.0
C      1  0.4169920000000  0.4510090000000  0.5033720000000 1.0
C      1  0.4149420000000  0.4829880000000  0.5599670000000 1.0
C      1  0.4967140000000  0.4949230000000  0.4904000000000 1.0
C      1  0.4483680000000  0.4746200000000  0.4757210000000 1.0
C      1  0.4098380000000  0.4904600000000  0.4703950000000 1.0
C      1  0.4496760000000  0.5570800000000  0.5250950000000 1.0
C      1  0.5433870000000  0.5587830000000  0.4981020000000 1.0
C      1  0.5338710000000  0.5203560000000  0.4470920000000 1.0
C      1  0.4938060000000  0.5812970000000  0.4497550000000 1.0
C      1  0.4793800000000  0.5560270000000  0.4911120000000 1.0
C      1  0.5634840000000  0.5474920000000  0.5571520000000 1.0
C      1  0.4743210000000  0.5764170000000  0.5541430000000 1.0
C      1  0.4745470000000  0.4935860000000  0.4662780000000 1.0
C      1  0.4660430000000  0.4188710000000  0.4731140000000 1.0
C      1  0.4602140000000  0.5867720000000  0.5279670000000 1.0
C      1  0.5729290000000  0.4914970000000  0.5523430000000 1.0
C      1  0.5716840000000  0.4536370000000  0.4677160000000 1.0
C      1  0.4636690000000  0.4032190000000  0.5021020000000 1.0
C      1  0.5342970000000  0.5902740000000  0.4916440000000 1.0
C      1  0.5673010000000  0.5394820000000  0.4373200000000 1.0
C      1  0.4293600000000  0.4528810000000  0.5540670000000 1.0
C      1  0.5150290000000  0.4954840000000  0.5969470000000 1.0
C      1  0.5950040000000  0.5378480000000  0.5029830000000 1.0
C      1  0.5962100000000  0.5040180000000  0.4973910000000 1.0
C      1  0.4078510000000  0.5037610000000  0.5399780000000 1.0
C      1  0.5021620000000  0.5312910000000  0.5280480000000 1.0
C      1  0.4739410000000  0.5528530000000  0.4115370000000 1.0
C      1  0.4942560000000  0.4050640000000  0.4868730000000 1.0
C      1  0.5809210000000  0.5153450000000  0.4576120000000 1.0
C      1  0.4588240000000  0.4431480000000  0.5608900000000 1.0
C      1  0.5315120000000  0.5396870000000  0.5145070000000 1.0
C      1  0.4766990000000  0.5503040000000  0.5709020000000 1.0
C      1  0.4834980000000  0.5549040000000  0.5216950000000 1.0
C      1  0.5137670000000  0.4040240000000  0.5148180000000 1.0
C      1  0.4312930000000  0.4430680000000  0.4549080000000 1.0
C      1  0.5029720000000  0.4600290000000  0.5830860000000 1.0
C      1  0.5357940000000  0.5434200000000  0.4224640000000 1.0
C      1  0.5418690000000  0.5416430000000  0.5829670000000 1.0
C      1  0.5167620000000  0.4348640000000  0.5014560000000 1.0
C      1  0.4034200000000  0.4744420000000  0.4956540000000 1.0
C      1  0.5023880000000  0.5155730000000  0.4479420000000 1.0
C      1  0.4655640000000  0.5795340000000  0.4508350000000 1.0
C      1  0.4415500000000  0.4631500000000  0.4380740000000 1.0
C      1  0.5033220000000  0.4818830000000  0.5468830000000 1.0
C      1  0.5297470000000  0.5043360000000  0.4058870000000 1.0
C      1  0.5665210000000  0.5197630000000  0.5025960000000 1.0
C      1  0.5147750000000  0.4355340000000  0.4615330000000 1.0
C      1  0.4232140000000  0.5437490000000  0.5092180000000 1.0
C      1  0.5056130000000  0.5181770000000  0.4153710000000 1.0
C      1  0.4674400000000  0.4439210000000  0.5037070000000 1.0
C      1  0.4575490000000  0.5290410000000  0.5521920000000 1.0
C      1  0.4721230000000  0.4350800000000  0.5324690000000 1.0
C      1  0.4553980000000  0.5259140000000  0.4136270000000 1.0
C      1  0.5519380000000  0.5013840000000  0.4614900000000 1.0
C      1  0.4755180000000  0.4735450000000  0.5045700000000 1.0
C      1  0.4983100000000  0.4508060000000  0.5445690000000 1.0
C      1  0.5051560000000  0.4238700000000  0.5634960000000 1.0
C      1  0.5264570000000  0.4724680000000  0.4718750000000 1.0
C      1  0.5297620000000  0.5727540000000  0.5756820000000 1.0
C      1  0.5081600000000  0.5496750000000  0.5842450000000 1.0
C      1  0.5102700000000  0.5292050000000  0.5596900000000 1.0
C      1  0.4665330000000  0.4888970000000  0.5336740000000 1.0
C      1  0.5488010000000  0.4308610000000  0.4928630000000 1.0
C      1  0.4233660000000  0.4374220000000  0.5281520000000 1.0
C      1  0.4747660000000  0.4561280000000  0.4333780000000 1.0
C      1  0.5530220000000  0.5116650000000  0.5712620000000 1.0
C      1  0.4548220000000  0.5741710000000  0.4796780000000 1.0
C      1  0.5147420000000  0.4838280000000  0.4491080000000 1.0
C      1  0.5236740000000  0.5735450000000  0.4423150000000 1.0
C      1  0.4991020000000  0.4022780000000  0.5412850000000 1.0
C      1  0.5262040000000  0.4742070000000  0.4184620000000 1.0
C      1  0.4774690000000  0.4266800000000  0.5792620000000 1.0
C      1  0.4384230000000  0.5073910000000  0.4740010000000 1.0
END
