TITL C-2778422-5617-755 0.00278962676211415 125000 -1084.70158130896 0 0 186 (C1) n - 1
REM
REM in /home/nfs/bkarasulu/CARBON/AIRSS/Generating-Clusters/REBO/Only-C1/SD-CG/HFTN-CG
REM
REM
REM
REM
REM
REM ./C.cell (11c1c37f851c82e70ff6c80c92926a4b)
REM
REM compiler GCC version 9.2.1 20190827 (Red Hat 9.2.1-1)
REM options -cpp -mtune=generic -march=x86-64 -g -O0 -fpre-include=/usr/include/finclude/math-vector-fortran.h
REM seed -940189630 -1429699624 -985560097 -144518426 1221711898 -1009806571 -305107385 2017405325 -150574860 748288266 -1734829021 -764035055 -283917617 1837190641 -236591921 -549356119 -1972488600 -341610553 1277114692 1439192356 1748967265 -478068736 238319821 -937131410 -285557167 -1960122615 -442787528 -1516786593 -542501419 838307494 1164548993 66154435 1106342400
REM
CELL 1.54180   50.00000   50.00000   50.00000   90.00000   90.00000   90.00000
LATT -1
SFAC C  
C      1  0.4707060000000  0.4261100000000  0.4268240000000 1.0
C      1  0.4375100000000  0.5109660000000  0.4185960000000 1.0
C      1  0.5379600000000  0.5198070000000  0.4604250000000 1.0
C      1  0.5404540000000  0.4744120000000  0.4472010000000 1.0
C      1  0.5527000000000  0.4521090000000  0.5307980000000 1.0
C      1  0.4220210000000  0.4972810000000  0.4538940000000 1.0
C      1  0.5071560000000  0.5945510000000  0.4640030000000 1.0
C      1  0.5098940000000  0.4324070000000  0.5485010000000 1.0
C      1  0.5192220000000  0.4776210000000  0.4962660000000 1.0
C      1  0.5717330000000  0.5239050000000  0.4133430000000 1.0
C      1  0.5764340000000  0.4988810000000  0.4975750000000 1.0
C      1  0.5449270000000  0.5624370000000  0.4895010000000 1.0
C      1  0.5278220000000  0.4965460000000  0.6097790000000 1.0
C      1  0.6084560000000  0.5392730000000  0.4882640000000 1.0
C      1  0.4419180000000  0.4713710000000  0.5762010000000 1.0
C      1  0.4617970000000  0.5090120000000  0.6193440000000 1.0
C      1  0.5507670000000  0.3983500000000  0.4621050000000 1.0
C      1  0.5079370000000  0.4730500000000  0.4064340000000 1.0
C      1  0.4853200000000  0.4366270000000  0.5963120000000 1.0
C      1  0.5378130000000  0.4573040000000  0.5808260000000 1.0
C      1  0.4115210000000  0.4506350000000  0.5548030000000 1.0
C      1  0.5449580000000  0.5571830000000  0.4480510000000 1.0
C      1  0.4687850000000  0.5820540000000  0.4294390000000 1.0
C      1  0.5779170000000  0.5641460000000  0.4432270000000 1.0
C      1  0.5343300000000  0.5668540000000  0.5707680000000 1.0
C      1  0.4684700000000  0.5841390000000  0.5235780000000 1.0
C      1  0.4334060000000  0.5489650000000  0.5205880000000 1.0
C      1  0.5194850000000  0.5176990000000  0.4843070000000 1.0
C      1  0.6140560000000  0.4859710000000  0.5016480000000 1.0
C      1  0.5316090000000  0.4322650000000  0.5034050000000 1.0
C      1  0.5360680000000  0.4483070000000  0.4649510000000 1.0
C      1  0.4991320000000  0.5646900000000  0.5521180000000 1.0
C      1  0.5614720000000  0.5329450000000  0.5116020000000 1.0
C      1  0.4478200000000  0.5214460000000  0.5704300000000 1.0
C      1  0.4315090000000  0.4754490000000  0.4786030000000 1.0
C      1  0.6078630000000  0.5253230000000  0.4626510000000 1.0
C      1  0.5472820000000  0.4874400000000  0.4843730000000 1.0
C      1  0.4703670000000  0.5124480000000  0.5042070000000 1.0
C      1  0.4601480000000  0.4015440000000  0.5262170000000 1.0
C      1  0.5003990000000  0.4836190000000  0.4760130000000 1.0
C      1  0.5270760000000  0.5922640000000  0.4410320000000 1.0
C      1  0.4699070000000  0.5615150000000  0.5001780000000 1.0
C      1  0.5332840000000  0.5631080000000  0.4020520000000 1.0
C      1  0.5508730000000  0.5310030000000  0.5669820000000 1.0
C      1  0.5527120000000  0.5938240000000  0.4838920000000 1.0
C      1  0.4636400000000  0.4604450000000  0.6000540000000 1.0
C      1  0.4436800000000  0.4994900000000  0.4938660000000 1.0
C      1  0.5261240000000  0.4268860000000  0.4296760000000 1.0
C      1  0.5722410000000  0.4900980000000  0.4085120000000 1.0
C      1  0.4800140000000  0.4825370000000  0.6202830000000 1.0
C      1  0.4309960000000  0.4429960000000  0.4682840000000 1.0
C      1  0.5000240000000  0.4417200000000  0.4186910000000 1.0
C      1  0.5652500000000  0.5000610000000  0.5641050000000 1.0
C      1  0.4471530000000  0.5330720000000  0.4386540000000 1.0
C      1  0.5564610000000  0.5884000000000  0.4535990000000 1.0
C      1  0.3905020000000  0.5059180000000  0.4997120000000 1.0
C      1  0.3997240000000  0.5313700000000  0.4810180000000 1.0
C      1  0.4186860000000  0.5289790000000  0.5605770000000 1.0
C      1  0.4338270000000  0.4126640000000  0.5260180000000 1.0
C      1  0.4416330000000  0.5991160000000  0.4933760000000 1.0
C      1  0.5179740000000  0.5399850000000  0.5663340000000 1.0
C      1  0.4122690000000  0.4571420000000  0.5003060000000 1.0
C      1  0.5232720000000  0.5856730000000  0.4147780000000 1.0
C      1  0.4825890000000  0.5527120000000  0.5793820000000 1.0
C      1  0.5199780000000  0.5544590000000  0.4687850000000 1.0
C      1  0.4824870000000  0.4439980000000  0.4836840000000 1.0
C      1  0.4271120000000  0.4266090000000  0.4979940000000 1.0
C      1  0.4586440000000  0.4344110000000  0.5558750000000 1.0
C      1  0.4876520000000  0.4562340000000  0.4460920000000 1.0
C      1  0.5433330000000  0.5065580000000  0.4129120000000 1.0
C      1  0.5844030000000  0.4578030000000  0.5399810000000 1.0
C      1  0.4806160000000  0.5741450000000  0.4702930000000 1.0
C      1  0.4373340000000  0.5580000000000  0.5591980000000 1.0
C      1  0.4440780000000  0.5254030000000  0.4718040000000 1.0
C      1  0.5017320000000  0.5945230000000  0.5464460000000 1.0
C      1  0.5833680000000  0.4301470000000  0.4832600000000 1.0
C      1  0.5499150000000  0.5860580000000  0.5334440000000 1.0
C      1  0.4088410000000  0.4674600000000  0.5281430000000 1.0
C      1  0.4100690000000  0.4772380000000  0.5721280000000 1.0
C      1  0.5420660000000  0.4734990000000  0.4074670000000 1.0
C      1  0.5320970000000  0.4700200000000  0.5227600000000 1.0
C      1  0.4696900000000  0.4895320000000  0.5841590000000 1.0
C      1  0.5318360000000  0.5204710000000  0.5080200000000 1.0
C      1  0.5605300000000  0.5369100000000  0.4788020000000 1.0
C      1  0.5966190000000  0.4835490000000  0.5281580000000 1.0
C      1  0.4534160000000  0.4129410000000  0.4810700000000 1.0
C      1  0.4002990000000  0.4729820000000  0.4539520000000 1.0
C      1  0.4929130000000  0.5282090000000  0.5986680000000 1.0
C      1  0.5916940000000  0.5365410000000  0.4367820000000 1.0
C      1  0.4810260000000  0.4204320000000  0.5732660000000 1.0
C      1  0.4777010000000  0.4744270000000  0.4220880000000 1.0
C      1  0.3920470000000  0.4764740000000  0.4827310000000 1.0
C      1  0.5901830000000  0.5165660000000  0.5557570000000 1.0
C      1  0.5781060000000  0.4334470000000  0.5169540000000 1.0
C      1  0.5510160000000  0.4540680000000  0.4913800000000 1.0
C      1  0.4958280000000  0.5054760000000  0.4056340000000 1.0
C      1  0.5125430000000  0.4592350000000  0.5643000000000 1.0
C      1  0.4603080000000  0.4524900000000  0.4634190000000 1.0
C      1  0.5215670000000  0.6014220000000  0.4913440000000 1.0
C      1  0.5123570000000  0.5193780000000  0.5318030000000 1.0
C      1  0.4444810000000  0.4816030000000  0.4208880000000 1.0
C      1  0.5083670000000  0.4432100000000  0.4672840000000 1.0
C      1  0.5652160000000  0.4672440000000  0.5655840000000 1.0
C      1  0.6114220000000  0.5189830000000  0.5090760000000 1.0
C      1  0.5186330000000  0.5138310000000  0.4263480000000 1.0
C      1  0.4939870000000  0.4634350000000  0.5291460000000 1.0
C      1  0.5335940000000  0.4108160000000  0.5574620000000 1.0
C      1  0.5924270000000  0.5603290000000  0.4977420000000 1.0
C      1  0.5696050000000  0.4467860000000  0.4567780000000 1.0
C      1  0.4541670000000  0.5752520000000  0.5454810000000 1.0
C      1  0.4497980000000  0.5738340000000  0.4557270000000 1.0
C      1  0.5013010000000  0.4011000000000  0.5550580000000 1.0
C      1  0.4288190000000  0.5010670000000  0.5203660000000 1.0
C      1  0.4448670000000  0.4189850000000  0.4484800000000 1.0
C      1  0.4761270000000  0.5620220000000  0.4124160000000 1.0
C      1  0.4728910000000  0.4566270000000  0.5101460000000 1.0
C      1  0.4793970000000  0.4178000000000  0.5030890000000 1.0
C      1  0.5502050000000  0.4476850000000  0.4281230000000 1.0
C      1  0.4278710000000  0.4283530000000  0.5505300000000 1.0
C      1  0.4209070000000  0.5816060000000  0.5013200000000 1.0
C      1  0.5007150000000  0.3925560000000  0.4960880000000 1.0
C      1  0.4171400000000  0.5773270000000  0.5306960000000 1.0
C      1  0.4625990000000  0.5376960000000  0.5235700000000 1.0
C      1  0.4117380000000  0.5559790000000  0.4878020000000 1.0
C      1  0.5170400000000  0.4942500000000  0.4520350000000 1.0
C      1  0.5267900000000  0.4679310000000  0.6066360000000 1.0
C      1  0.4100080000000  0.5259880000000  0.5192560000000 1.0
C      1  0.6055880000000  0.4535610000000  0.4946690000000 1.0
C      1  0.5025560000000  0.3995270000000  0.4664260000000 1.0
C      1  0.4897280000000  0.3887210000000  0.5281440000000 1.0
C      1  0.5223020000000  0.6009030000000  0.5251820000000 1.0
C      1  0.4221600000000  0.5186740000000  0.3982780000000 1.0
C      1  0.5898600000000  0.5298930000000  0.5279650000000 1.0
C      1  0.5661410000000  0.4979110000000  0.5299800000000 1.0
C      1  0.5646250000000  0.4903340000000  0.4569070000000 1.0
C      1  0.5604130000000  0.4138430000000  0.5385430000000 1.0
C      1  0.5258350000000  0.4067620000000  0.4508620000000 1.0
C      1  0.5079430000000  0.5400400000000  0.4435320000000 1.0
C      1  0.5719550000000  0.5855960000000  0.5076660000000 1.0
C      1  0.4072290000000  0.5233450000000  0.4548890000000 1.0
C      1  0.5015960000000  0.5509790000000  0.4971870000000 1.0
C      1  0.4320400000000  0.5607730000000  0.4323450000000 1.0
C      1  0.4921260000000  0.6029740000000  0.5085870000000 1.0
C      1  0.4882750000000  0.5232540000000  0.4820730000000 1.0
C      1  0.4372360000000  0.4789200000000  0.5430330000000 1.0
C      1  0.4746600000000  0.5053140000000  0.4314840000000 1.0
C      1  0.4761070000000  0.6038680000000  0.4546390000000 1.0
C      1  0.5010780000000  0.4574320000000  0.6130040000000 1.0
C      1  0.4203600000000  0.4622530000000  0.4347090000000 1.0
C      1  0.4087710000000  0.5436980000000  0.4352710000000 1.0
C      1  0.5479020000000  0.4087440000000  0.5089660000000 1.0
C      1  0.5566200000000  0.4339670000000  0.5659370000000 1.0
C      1  0.5936610000000  0.4769350000000  0.4220510000000 1.0
C      1  0.5407750000000  0.5581010000000  0.5204220000000 1.0
C      1  0.5646170000000  0.4049230000000  0.4860190000000 1.0
C      1  0.4712180000000  0.5355320000000  0.5520610000000 1.0
C      1  0.5122290000000  0.5496110000000  0.5269920000000 1.0
C      1  0.5696350000000  0.5202000000000  0.4529670000000 1.0
C      1  0.5793120000000  0.4673150000000  0.4960200000000 1.0
C      1  0.4784370000000  0.5302340000000  0.4521980000000 1.0
C      1  0.4515930000000  0.5211960000000  0.6005270000000 1.0
C      1  0.5051970000000  0.4895990000000  0.5566950000000 1.0
C      1  0.4954790000000  0.5173390000000  0.5677520000000 1.0
C      1  0.5460170000000  0.5121650000000  0.5947510000000 1.0
C      1  0.4026640000000  0.5506170000000  0.5410660000000 1.0
C      1  0.4551790000000  0.4981030000000  0.4556960000000 1.0
C      1  0.4516110000000  0.4482670000000  0.5253980000000 1.0
C      1  0.3911010000000  0.4933410000000  0.5307770000000 1.0
C      1  0.4842140000000  0.5033960000000  0.5321590000000 1.0
C      1  0.4805170000000  0.4584270000000  0.5567180000000 1.0
C      1  0.4022050000000  0.5013530000000  0.5577890000000 1.0
C      1  0.4761760000000  0.4087360000000  0.4557940000000 1.0
C      1  0.4898720000000  0.5381770000000  0.4147360000000 1.0
C      1  0.4468510000000  0.4476290000000  0.4220810000000 1.0
C      1  0.6003870000000  0.4965050000000  0.4731620000000 1.0
C      1  0.5814590000000  0.5618750000000  0.5302450000000 1.0
C      1  0.5055320000000  0.4348520000000  0.5175330000000 1.0
C      1  0.5339280000000  0.4962910000000  0.5397600000000 1.0
C      1  0.4723480000000  0.4810640000000  0.4732360000000 1.0
C      1  0.4667910000000  0.6074300000000  0.4871550000000 1.0
C      1  0.5015610000000  0.5074410000000  0.6156360000000 1.0
C      1  0.5902410000000  0.4730540000000  0.4508250000000 1.0
C      1  0.4431630000000  0.5552390000000  0.4811130000000 1.0
C      1  0.4621260000000  0.4967470000000  0.5531230000000 1.0
C      1  0.5607050000000  0.5615310000000  0.5548990000000 1.0
C      1  0.5475260000000  0.5459630000000  0.4181500000000 1.0
END
