TITL C-2778430-5657-933 0.00103777720545692 125000 -427.91524574224 0 0 75 (C1) n - 1
REM
REM in /home/nfs/bkarasulu/CARBON/AIRSS/Generating-Clusters/REBO/Only-C1/SD-CG/HFTN-CG
REM
REM
REM
REM
REM
REM ./C.cell (11c1c37f851c82e70ff6c80c92926a4b)
REM
REM compiler GCC version 9.2.1 20190827 (Red Hat 9.2.1-1)
REM options -cpp -mtune=generic -march=x86-64 -g -O0 -fpre-include=/usr/include/finclude/math-vector-fortran.h
REM seed 854983694 -873946339 -443820516 334362756 856489055 -687245826 -1886362326 -1900824154 1397686910 872648495 1480452264 -1206919537 -29284236 -1807363168 1515531907 888765195 1630351534 738438248 -734216716 2091931055 710982963 1533597576 881844797 -1745257704 813138796 2074121827 1102375814 -2086123077 -1789698222 1189683292 1163709487 -1240896829 1106842425
REM
CELL 1.54180   50.00000   50.00000   50.00000   90.00000   90.00000   90.00000
LATT -1
SFAC C  
C      1  0.4663760000000  0.5321100000000  0.4643510000000 1.0
C      1  0.5352520000000  0.4503150000000  0.5412780000000 1.0
C      1  0.5332770000000  0.5191360000000  0.5488270000000 1.0
C      1  0.5281450000000  0.5499480000000  0.5088640000000 1.0
C      1  0.5730780000000  0.4649680000000  0.4751220000000 1.0
C      1  0.4762540000000  0.5222240000000  0.5584970000000 1.0
C      1  0.5362710000000  0.4995320000000  0.4801820000000 1.0
C      1  0.4950350000000  0.5072110000000  0.5088410000000 1.0
C      1  0.5343450000000  0.5696740000000  0.4550850000000 1.0
C      1  0.4826780000000  0.5174780000000  0.4200990000000 1.0
C      1  0.4800740000000  0.4763850000000  0.5298520000000 1.0
C      1  0.4850300000000  0.4443420000000  0.5532750000000 1.0
C      1  0.4484270000000  0.4849280000000  0.4525580000000 1.0
C      1  0.4887440000000  0.5799670000000  0.4949140000000 1.0
C      1  0.5644910000000  0.5212370000000  0.5355070000000 1.0
C      1  0.5705960000000  0.5123150000000  0.4955900000000 1.0
C      1  0.4233520000000  0.4919670000000  0.5507670000000 1.0
C      1  0.5638660000000  0.4381330000000  0.4888900000000 1.0
C      1  0.5285040000000  0.4719430000000  0.4716340000000 1.0
C      1  0.5281940000000  0.5243700000000  0.4471490000000 1.0
C      1  0.5128400000000  0.4802130000000  0.5708770000000 1.0
C      1  0.4288230000000  0.4599660000000  0.5398330000000 1.0
C      1  0.4833230000000  0.4885690000000  0.4863440000000 1.0
C      1  0.5185820000000  0.5475530000000  0.5476090000000 1.0
C      1  0.5616960000000  0.4635130000000  0.5395850000000 1.0
C      1  0.4845990000000  0.5413720000000  0.4395400000000 1.0
C      1  0.5015590000000  0.5610980000000  0.5162320000000 1.0
C      1  0.4663810000000  0.5522580000000  0.5131070000000 1.0
C      1  0.5064560000000  0.5581710000000  0.4391160000000 1.0
C      1  0.5630230000000  0.4824430000000  0.4548390000000 1.0
C      1  0.4511920000000  0.4413300000000  0.4837320000000 1.0
C      1  0.4823180000000  0.5044640000000  0.4604020000000 1.0
C      1  0.5004730000000  0.4633190000000  0.4815510000000 1.0
C      1  0.4856480000000  0.5445800000000  0.5403230000000 1.0
C      1  0.5617860000000  0.4885670000000  0.5087370000000 1.0
C      1  0.4020870000000  0.5257210000000  0.5045650000000 1.0
C      1  0.4400670000000  0.5104960000000  0.4634010000000 1.0
C      1  0.4061000000000  0.5069930000000  0.5260160000000 1.0
C      1  0.5087810000000  0.5676180000000  0.4774840000000 1.0
C      1  0.4521010000000  0.5338030000000  0.4934450000000 1.0
C      1  0.5123820000000  0.4535220000000  0.5597170000000 1.0
C      1  0.4668960000000  0.5074380000000  0.5226580000000 1.0
C      1  0.4758860000000  0.4311600000000  0.4967720000000 1.0
C      1  0.5171550000000  0.5384490000000  0.4723140000000 1.0
C      1  0.5205760000000  0.5201480000000  0.4974570000000 1.0
C      1  0.5077610000000  0.5088080000000  0.4384760000000 1.0
C      1  0.5542180000000  0.5423670000000  0.4564600000000 1.0
C      1  0.4565010000000  0.4787330000000  0.4968730000000 1.0
C      1  0.5492270000000  0.5590420000000  0.4844130000000 1.0
C      1  0.4474260000000  0.4533320000000  0.5134610000000 1.0
C      1  0.4917060000000  0.4547290000000  0.5125700000000 1.0
C      1  0.4400810000000  0.5042190000000  0.5052610000000 1.0
C      1  0.5621870000000  0.5128350000000  0.4646850000000 1.0
C      1  0.4853570000000  0.4524320000000  0.4546550000000 1.0
C      1  0.4919260000000  0.4967480000000  0.5543840000000 1.0
C      1  0.5495500000000  0.5520900000000  0.5342030000000 1.0
C      1  0.4200320000000  0.5292470000000  0.4823560000000 1.0
C      1  0.5025340000000  0.4679300000000  0.4295380000000 1.0
C      1  0.5375830000000  0.4324250000000  0.4932070000000 1.0
C      1  0.4609090000000  0.5837130000000  0.5032160000000 1.0
C      1  0.4560870000000  0.4571550000000  0.4607250000000 1.0
C      1  0.4181870000000  0.4796770000000  0.5140900000000 1.0
C      1  0.5162700000000  0.4990400000000  0.5310630000000 1.0
C      1  0.4536690000000  0.4900470000000  0.5472770000000 1.0
C      1  0.5372840000000  0.4945670000000  0.5698240000000 1.0
C      1  0.4755800000000  0.4866680000000  0.4321070000000 1.0
C      1  0.5609770000000  0.4906100000000  0.5500710000000 1.0
C      1  0.5355280000000  0.4724870000000  0.4380520000000 1.0
C      1  0.4566520000000  0.5247770000000  0.5759070000000 1.0
C      1  0.5775340000000  0.4606100000000  0.5094780000000 1.0
C      1  0.5186320000000  0.4460270000000  0.4506990000000 1.0
C      1  0.5668760000000  0.5410670000000  0.5074510000000 1.0
C      1  0.5347620000000  0.4810990000000  0.5158970000000 1.0
C      1  0.4594760000000  0.4454760000000  0.5442390000000 1.0
C      1  0.5227700000000  0.4510990000000  0.5124280000000 1.0
END
