TITL C-2778422-5617-39 0.000645899043663601 125000 -804.582852140133 0 0 142 (C1) n - 1
REM
REM in /home/nfs/bkarasulu/CARBON/AIRSS/Generating-Clusters/REBO/Only-C1/SD-CG/HFTN-CG
REM
REM
REM
REM
REM
REM ./C.cell (11c1c37f851c82e70ff6c80c92926a4b)
REM
REM compiler GCC version 9.2.1 20190827 (Red Hat 9.2.1-1)
REM options -cpp -mtune=generic -march=x86-64 -g -O0 -fpre-include=/usr/include/finclude/math-vector-fortran.h
REM seed -1363656493 -1420598027 -1229450926 -704935207 1533011778 -935006016 -1323961779 -977737690 -1506544848 678086699 896746702 -1573340770 -829296751 42242950 -1651423345 -1872064770 -1272633692 -870088129 1230309290 477651511 -1540945289 -1113062406 1163739126 136391062 -1507972831 -79155899 -654279226 748653600 1284954628 -1254575476 451908399 -1871801926 -1027722814
REM
CELL 1.54180   50.00000   50.00000   50.00000   90.00000   90.00000   90.00000
LATT -1
SFAC C  
C      1  0.4668170000000  0.4888350000000  0.5589290000000 1.0
C      1  0.5641650000000  0.5185630000000  0.5014850000000 1.0
C      1  0.5128590000000  0.4390510000000  0.5076450000000 1.0
C      1  0.5523540000000  0.4408050000000  0.5577330000000 1.0
C      1  0.5459860000000  0.5139560000000  0.5274050000000 1.0
C      1  0.4949200000000  0.5042760000000  0.5554570000000 1.0
C      1  0.4506020000000  0.5553790000000  0.5475840000000 1.0
C      1  0.4690230000000  0.5901660000000  0.4761570000000 1.0
C      1  0.4490170000000  0.5652650000000  0.4635730000000 1.0
C      1  0.4689610000000  0.5811620000000  0.5360650000000 1.0
C      1  0.5334090000000  0.5402780000000  0.4537280000000 1.0
C      1  0.5021040000000  0.5412880000000  0.5422160000000 1.0
C      1  0.5340220000000  0.4842360000000  0.4011980000000 1.0
C      1  0.4817480000000  0.5401460000000  0.5672230000000 1.0
C      1  0.4693270000000  0.4259330000000  0.5269770000000 1.0
C      1  0.4243080000000  0.4802700000000  0.5295330000000 1.0
C      1  0.4869760000000  0.5609330000000  0.4517910000000 1.0
C      1  0.4828950000000  0.4735020000000  0.5106830000000 1.0
C      1  0.4421840000000  0.5062730000000  0.4835850000000 1.0
C      1  0.4472870000000  0.3978990000000  0.4971390000000 1.0
C      1  0.5086170000000  0.4704730000000  0.4037750000000 1.0
C      1  0.5328320000000  0.6306800000000  0.4869750000000 1.0
C      1  0.4024410000000  0.4426950000000  0.4670940000000 1.0
C      1  0.4403740000000  0.4429030000000  0.5479410000000 1.0
C      1  0.5508880000000  0.4632010000000  0.4198230000000 1.0
C      1  0.5477910000000  0.4685650000000  0.4930920000000 1.0
C      1  0.5004070000000  0.4092620000000  0.4975000000000 1.0
C      1  0.4892940000000  0.5145710000000  0.4356690000000 1.0
C      1  0.5095990000000  0.5483740000000  0.5946730000000 1.0
C      1  0.4536590000000  0.4826570000000  0.4710520000000 1.0
C      1  0.5838340000000  0.4539600000000  0.5180270000000 1.0
C      1  0.4820720000000  0.4177470000000  0.5638730000000 1.0
C      1  0.5584270000000  0.4917650000000  0.5738050000000 1.0
C      1  0.5531720000000  0.5784220000000  0.5392030000000 1.0
C      1  0.4724480000000  0.3920870000000  0.5064350000000 1.0
C      1  0.4081790000000  0.5511610000000  0.5269930000000 1.0
C      1  0.4330430000000  0.5044320000000  0.4298580000000 1.0
C      1  0.4222580000000  0.5444530000000  0.5505270000000 1.0
C      1  0.5573830000000  0.4375220000000  0.5262740000000 1.0
C      1  0.4642380000000  0.4674520000000  0.4241660000000 1.0
C      1  0.5668360000000  0.5899080000000  0.5128120000000 1.0
C      1  0.5093580000000  0.4871300000000  0.5158600000000 1.0
C      1  0.5079740000000  0.4444280000000  0.4166520000000 1.0
C      1  0.4442730000000  0.4825100000000  0.4416760000000 1.0
C      1  0.5408890000000  0.4117230000000  0.5143340000000 1.0
C      1  0.6000210000000  0.5149280000000  0.4842560000000 1.0
C      1  0.5189710000000  0.5123980000000  0.5133310000000 1.0
C      1  0.4017600000000  0.4659190000000  0.5114990000000 1.0
C      1  0.5792580000000  0.5687550000000  0.4959740000000 1.0
C      1  0.5578250000000  0.4925090000000  0.4322200000000 1.0
C      1  0.4999400000000  0.5846670000000  0.4817240000000 1.0
C      1  0.4841180000000  0.4877250000000  0.4709810000000 1.0
C      1  0.5458450000000  0.4871770000000  0.5426370000000 1.0
C      1  0.5254940000000  0.4858320000000  0.4399470000000 1.0
C      1  0.5673120000000  0.5244120000000  0.5721370000000 1.0
C      1  0.5821160000000  0.5009980000000  0.5521130000000 1.0
C      1  0.5063490000000  0.5178050000000  0.6060360000000 1.0
C      1  0.4547470000000  0.4385030000000  0.4404360000000 1.0
C      1  0.4363840000000  0.4177490000000  0.5299870000000 1.0
C      1  0.5110160000000  0.4621310000000  0.4847060000000 1.0
C      1  0.5155270000000  0.5148000000000  0.4514870000000 1.0
C      1  0.4889170000000  0.4011470000000  0.5349010000000 1.0
C      1  0.5230810000000  0.5867610000000  0.5253400000000 1.0
C      1  0.5965560000000  0.4816740000000  0.4865040000000 1.0
C      1  0.4841830000000  0.5097780000000  0.4946430000000 1.0
C      1  0.5450760000000  0.4619200000000  0.5734670000000 1.0
C      1  0.5339270000000  0.5334500000000  0.5494130000000 1.0
C      1  0.4831310000000  0.4447970000000  0.4924170000000 1.0
C      1  0.5246390000000  0.5720320000000  0.4145790000000 1.0
C      1  0.5481630000000  0.4952050000000  0.4636340000000 1.0
C      1  0.4740550000000  0.4642700000000  0.5753840000000 1.0
C      1  0.5180610000000  0.6018840000000  0.4976850000000 1.0
C      1  0.4425940000000  0.5335130000000  0.4648150000000 1.0
C      1  0.5003900000000  0.5774600000000  0.4251690000000 1.0
C      1  0.4495230000000  0.4521390000000  0.5152130000000 1.0
C      1  0.5605210000000  0.5514550000000  0.5542130000000 1.0
C      1  0.4948050000000  0.5703110000000  0.5899010000000 1.0
C      1  0.4215450000000  0.5194160000000  0.5633580000000 1.0
C      1  0.5111590000000  0.4496590000000  0.5461830000000 1.0
C      1  0.4756090000000  0.4182540000000  0.4764800000000 1.0
C      1  0.5668470000000  0.4930270000000  0.4877520000000 1.0
C      1  0.5773100000000  0.4396700000000  0.4706880000000 1.0
C      1  0.5167490000000  0.5222710000000  0.5739410000000 1.0
C      1  0.5334450000000  0.5567210000000  0.5171290000000 1.0
C      1  0.4215190000000  0.5503200000000  0.5032610000000 1.0
C      1  0.4245590000000  0.4185280000000  0.5025270000000 1.0
C      1  0.5045730000000  0.4665040000000  0.4529710000000 1.0
C      1  0.5309310000000  0.4111100000000  0.4855530000000 1.0
C      1  0.5621400000000  0.5482320000000  0.5146900000000 1.0
C      1  0.4649740000000  0.5853930000000  0.4424880000000 1.0
C      1  0.4421660000000  0.4371330000000  0.4653790000000 1.0
C      1  0.5670180000000  0.5391290000000  0.4469450000000 1.0
C      1  0.4480320000000  0.5270230000000  0.4232320000000 1.0
C      1  0.4577650000000  0.4805340000000  0.5296820000000 1.0
C      1  0.5988830000000  0.5081020000000  0.5172550000000 1.0
C      1  0.4586860000000  0.5909000000000  0.5086340000000 1.0
C      1  0.5171380000000  0.4948670000000  0.4776090000000 1.0
C      1  0.5319320000000  0.4167500000000  0.4588570000000 1.0
C      1  0.5372420000000  0.5453930000000  0.4210570000000 1.0
C      1  0.4156980000000  0.5265850000000  0.4845740000000 1.0
C      1  0.5202930000000  0.4837020000000  0.5649450000000 1.0
C      1  0.4851120000000  0.4517110000000  0.5333620000000 1.0
C      1  0.5508860000000  0.4506560000000  0.4693460000000 1.0
C      1  0.4851580000000  0.4885190000000  0.4138160000000 1.0
C      1  0.5207920000000  0.4012570000000  0.5309590000000 1.0
C      1  0.4959500000000  0.5192190000000  0.4035470000000 1.0
C      1  0.5812480000000  0.5308370000000  0.5356920000000 1.0
C      1  0.4623590000000  0.4397680000000  0.5666160000000 1.0
C      1  0.4070810000000  0.4970880000000  0.4991440000000 1.0
C      1  0.4813770000000  0.4387610000000  0.4236170000000 1.0
C      1  0.4457510000000  0.4561760000000  0.4848490000000 1.0
C      1  0.5592500000000  0.5199250000000  0.4194240000000 1.0
C      1  0.4490450000000  0.5618970000000  0.4957680000000 1.0
C      1  0.4097950000000  0.4413050000000  0.4939330000000 1.0
C      1  0.5095120000000  0.4294730000000  0.5661740000000 1.0
C      1  0.5290660000000  0.5176240000000  0.4030500000000 1.0
C      1  0.5113120000000  0.5543100000000  0.4717330000000 1.0
C      1  0.5899720000000  0.4790800000000  0.5296740000000 1.0
C      1  0.4706310000000  0.5715940000000  0.5686720000000 1.0
C      1  0.4972540000000  0.5681790000000  0.5288880000000 1.0
C      1  0.4822480000000  0.5187950000000  0.5273690000000 1.0
C      1  0.4333460000000  0.5014330000000  0.6078130000000 1.0
C      1  0.4702110000000  0.5356680000000  0.4471310000000 1.0
C      1  0.5939160000000  0.4528030000000  0.4902540000000 1.0
C      1  0.4343450000000  0.4963080000000  0.5574090000000 1.0
C      1  0.5309360000000  0.4462920000000  0.4417730000000 1.0
C      1  0.5951480000000  0.5191250000000  0.4508280000000 1.0
C      1  0.5755440000000  0.5672590000000  0.4348190000000 1.0
C      1  0.4557820000000  0.5115990000000  0.5988620000000 1.0
C      1  0.5108500000000  0.5410550000000  0.5028440000000 1.0
C      1  0.4530320000000  0.5275300000000  0.5310620000000 1.0
C      1  0.4703490000000  0.5404510000000  0.4075240000000 1.0
C      1  0.5327740000000  0.4628370000000  0.5231830000000 1.0
C      1  0.5003390000000  0.4655990000000  0.5833630000000 1.0
C      1  0.4829630000000  0.5606270000000  0.4992340000000 1.0
C      1  0.4343790000000  0.5097870000000  0.5156360000000 1.0
C      1  0.4796600000000  0.5224180000000  0.5893340000000 1.0
C      1  0.5512330000000  0.6089190000000  0.5002400000000 1.0
C      1  0.5780600000000  0.5406260000000  0.4793340000000 1.0
C      1  0.3768530000000  0.4623950000000  0.5241410000000 1.0
C      1  0.4732620000000  0.5674800000000  0.4147950000000 1.0
C      1  0.4634540000000  0.4039920000000  0.4586510000000 1.0
END
