TITL C-2778431-5191-260 0.00351882422596065 125000 -933.265295086328 0 0 160 (C1) n - 1
REM
REM in /home/nfs/bkarasulu/CARBON/AIRSS/Generating-Clusters/REBO/Only-C1/SD-CG/HFTN-CG
REM
REM
REM
REM
REM
REM ./C.cell (11c1c37f851c82e70ff6c80c92926a4b)
REM
REM compiler GCC version 9.2.1 20190827 (Red Hat 9.2.1-1)
REM options -cpp -mtune=generic -march=x86-64 -g -O0 -fpre-include=/usr/include/finclude/math-vector-fortran.h
REM seed -1416749625 -908226610 -1225768918 -193316911 -1229049594 489672743 1980864814 893046107 -1359137605 293551712 1744256408 1651777367 71581546 -830240954 -917273149 2000460755 -429950017 81427589 1916056445 1574320799 -2004452494 -1997422336 261362002 1657764592 -413825291 -1000201361 -2071911032 -668507182 -1874582990 224264615 -365030422 -777919019 -1884773752
REM
CELL 1.54180   50.00000   50.00000   50.00000   90.00000   90.00000   90.00000
LATT -1
SFAC C  
C      1  0.4997590000000  0.6012140000000  0.5185540000000 1.0
C      1  0.4965210000000  0.4566570000000  0.5468720000000 1.0
C      1  0.4546060000000  0.4636170000000  0.5147320000000 1.0
C      1  0.5910420000000  0.5300270000000  0.5522270000000 1.0
C      1  0.5060260000000  0.4486370000000  0.4632860000000 1.0
C      1  0.3992780000000  0.5419880000000  0.4871030000000 1.0
C      1  0.5053040000000  0.4430530000000  0.5166800000000 1.0
C      1  0.5672520000000  0.4504040000000  0.4363650000000 1.0
C      1  0.4922740000000  0.4961750000000  0.5334900000000 1.0
C      1  0.5276410000000  0.5130170000000  0.4089870000000 1.0
C      1  0.4792750000000  0.5176230000000  0.3951720000000 1.0
C      1  0.5422610000000  0.4614990000000  0.5017240000000 1.0
C      1  0.4519620000000  0.5222870000000  0.5571810000000 1.0
C      1  0.5140830000000  0.4972440000000  0.5602610000000 1.0
C      1  0.5857920000000  0.4455570000000  0.5211350000000 1.0
C      1  0.4376920000000  0.5816560000000  0.4702720000000 1.0
C      1  0.4338820000000  0.5271960000000  0.5920290000000 1.0
C      1  0.5399170000000  0.4439660000000  0.4173030000000 1.0
C      1  0.4809690000000  0.4053160000000  0.5052440000000 1.0
C      1  0.5666450000000  0.4947550000000  0.5329230000000 1.0
C      1  0.4464410000000  0.4617700000000  0.6008590000000 1.0
C      1  0.4246670000000  0.5620180000000  0.5293920000000 1.0
C      1  0.5395410000000  0.4358740000000  0.5688470000000 1.0
C      1  0.4426140000000  0.5449930000000  0.3748040000000 1.0
C      1  0.4044590000000  0.4963270000000  0.4529110000000 1.0
C      1  0.4757960000000  0.5584630000000  0.5331390000000 1.0
C      1  0.4666400000000  0.4324930000000  0.5577240000000 1.0
C      1  0.4786860000000  0.5877730000000  0.4333270000000 1.0
C      1  0.4901010000000  0.4137170000000  0.4739310000000 1.0
C      1  0.4132730000000  0.5138410000000  0.5480060000000 1.0
C      1  0.4964030000000  0.4171610000000  0.5529870000000 1.0
C      1  0.5301640000000  0.4192560000000  0.5203270000000 1.0
C      1  0.5510530000000  0.4231430000000  0.4492300000000 1.0
C      1  0.4578070000000  0.5103360000000  0.5999560000000 1.0
C      1  0.4026470000000  0.4839850000000  0.4268420000000 1.0
C      1  0.4362610000000  0.4906520000000  0.4640210000000 1.0
C      1  0.4767470000000  0.5308070000000  0.5460680000000 1.0
C      1  0.4335250000000  0.4239610000000  0.4907370000000 1.0
C      1  0.5108160000000  0.4999240000000  0.4841620000000 1.0
C      1  0.5593330000000  0.4632520000000  0.5284150000000 1.0
C      1  0.5459750000000  0.4686420000000  0.5904840000000 1.0
C      1  0.6034550000000  0.5192280000000  0.5228070000000 1.0
C      1  0.5168000000000  0.4752510000000  0.5755340000000 1.0
C      1  0.5405810000000  0.4806120000000  0.4562900000000 1.0
C      1  0.5433370000000  0.3947490000000  0.4919110000000 1.0
C      1  0.5020300000000  0.4216130000000  0.4430150000000 1.0
C      1  0.6056220000000  0.4905690000000  0.5176340000000 1.0
C      1  0.4536850000000  0.5308450000000  0.3949420000000 1.0
C      1  0.5220200000000  0.5280250000000  0.4950660000000 1.0
C      1  0.4066770000000  0.4501810000000  0.5295550000000 1.0
C      1  0.4387880000000  0.4999040000000  0.5140130000000 1.0
C      1  0.4590530000000  0.5455200000000  0.4420200000000 1.0
C      1  0.6008430000000  0.4948520000000  0.4865030000000 1.0
C      1  0.5782100000000  0.4794590000000  0.4443750000000 1.0
C      1  0.5401630000000  0.5716420000000  0.5677190000000 1.0
C      1  0.4643080000000  0.5099460000000  0.4653820000000 1.0
C      1  0.5423320000000  0.4936320000000  0.4955690000000 1.0
C      1  0.5197110000000  0.5304610000000  0.4355780000000 1.0
C      1  0.4761180000000  0.4896120000000  0.4019530000000 1.0
C      1  0.5827320000000  0.5276350000000  0.4504600000000 1.0
C      1  0.5521520000000  0.5523510000000  0.5048780000000 1.0
C      1  0.5493230000000  0.5295720000000  0.4796430000000 1.0
C      1  0.4848400000000  0.5589370000000  0.5031930000000 1.0
C      1  0.5198230000000  0.4470690000000  0.5937310000000 1.0
C      1  0.5236030000000  0.4221550000000  0.5501180000000 1.0
C      1  0.4340150000000  0.4762800000000  0.4905710000000 1.0
C      1  0.4497350000000  0.4824370000000  0.5412150000000 1.0
C      1  0.4726280000000  0.4402880000000  0.4622020000000 1.0
C      1  0.4929820000000  0.4493610000000  0.4051730000000 1.0
C      1  0.5876520000000  0.5358390000000  0.4973280000000 1.0
C      1  0.5024140000000  0.5756900000000  0.5348580000000 1.0
C      1  0.5041550000000  0.5161510000000  0.5938770000000 1.0
C      1  0.4554800000000  0.5751300000000  0.4438130000000 1.0
C      1  0.4765290000000  0.5836570000000  0.5641440000000 1.0
C      1  0.5131100000000  0.6102260000000  0.4686130000000 1.0
C      1  0.5119310000000  0.4773930000000  0.4498960000000 1.0
C      1  0.4531290000000  0.4288780000000  0.4388830000000 1.0
C      1  0.5437160000000  0.5466510000000  0.5897130000000 1.0
C      1  0.5722570000000  0.5056520000000  0.5018250000000 1.0
C      1  0.5532740000000  0.4606140000000  0.4723210000000 1.0
C      1  0.5265500000000  0.4873870000000  0.4017930000000 1.0
C      1  0.4324110000000  0.4698090000000  0.5749470000000 1.0
C      1  0.4876140000000  0.5371110000000  0.4448200000000 1.0
C      1  0.5324510000000  0.5778450000000  0.4816610000000 1.0
C      1  0.4209310000000  0.5668930000000  0.4959280000000 1.0
C      1  0.5201210000000  0.4602360000000  0.4051250000000 1.0
C      1  0.5048270000000  0.5269860000000  0.5554140000000 1.0
C      1  0.4095710000000  0.5138280000000  0.5032480000000 1.0
C      1  0.4889880000000  0.4822540000000  0.4821770000000 1.0
C      1  0.5982250000000  0.4694960000000  0.5349400000000 1.0
C      1  0.4155690000000  0.4812560000000  0.5406140000000 1.0
C      1  0.4376630000000  0.5482310000000  0.5685860000000 1.0
C      1  0.5662620000000  0.4537090000000  0.5702730000000 1.0
C      1  0.5050880000000  0.5651010000000  0.4223420000000 1.0
C      1  0.5755620000000  0.5026280000000  0.5651530000000 1.0
C      1  0.5513000000000  0.5700690000000  0.4594420000000 1.0
C      1  0.5115780000000  0.5465590000000  0.5795350000000 1.0
C      1  0.5601420000000  0.5269920000000  0.4249060000000 1.0
C      1  0.5333800000000  0.5744290000000  0.4311250000000 1.0
C      1  0.5898080000000  0.4341760000000  0.4900770000000 1.0
C      1  0.5856520000000  0.4724340000000  0.5599360000000 1.0
C      1  0.5259630000000  0.5601620000000  0.5252970000000 1.0
C      1  0.4383110000000  0.5303480000000  0.4610370000000 1.0
C      1  0.4313700000000  0.4994670000000  0.5722070000000 1.0
C      1  0.4396410000000  0.4453220000000  0.5515990000000 1.0
C      1  0.5781190000000  0.4453880000000  0.4683000000000 1.0
C      1  0.4919570000000  0.5055060000000  0.4498340000000 1.0
C      1  0.4853530000000  0.4812920000000  0.4288850000000 1.0
C      1  0.4078690000000  0.4510620000000  0.5627450000000 1.0
C      1  0.5536910000000  0.4986740000000  0.5874740000000 1.0
C      1  0.5023390000000  0.5922840000000  0.4514870000000 1.0
C      1  0.4069740000000  0.4582760000000  0.4964360000000 1.0
C      1  0.4895360000000  0.4465410000000  0.5788290000000 1.0
C      1  0.4130370000000  0.5386530000000  0.5385590000000 1.0
C      1  0.4016440000000  0.4855790000000  0.5121380000000 1.0
C      1  0.5288500000000  0.4183860000000  0.4296560000000 1.0
C      1  0.4498150000000  0.5707870000000  0.5477770000000 1.0
C      1  0.5586140000000  0.5047690000000  0.4580030000000 1.0
C      1  0.4699640000000  0.4538590000000  0.6019900000000 1.0
C      1  0.5830040000000  0.4140220000000  0.5142710000000 1.0
C      1  0.5277300000000  0.4668310000000  0.5382660000000 1.0
C      1  0.4748010000000  0.4168650000000  0.5291910000000 1.0
C      1  0.5064340000000  0.5762480000000  0.5670400000000 1.0
C      1  0.4800130000000  0.4315480000000  0.4239310000000 1.0
C      1  0.4289180000000  0.4820480000000  0.4112330000000 1.0
C      1  0.5418970000000  0.4192210000000  0.4754960000000 1.0
C      1  0.4352470000000  0.4385140000000  0.5181980000000 1.0
C      1  0.5100100000000  0.5549140000000  0.4877140000000 1.0
C      1  0.4600400000000  0.5608160000000  0.4849370000000 1.0
C      1  0.5499360000000  0.5867730000000  0.5078820000000 1.0
C      1  0.5631720000000  0.5461370000000  0.5638430000000 1.0
C      1  0.5443680000000  0.5406410000000  0.4491720000000 1.0
C      1  0.5587430000000  0.4011720000000  0.5166870000000 1.0
C      1  0.5977840000000  0.4989050000000  0.4588690000000 1.0
C      1  0.4771740000000  0.4820600000000  0.5594890000000 1.0
C      1  0.4837140000000  0.4670620000000  0.5076930000000 1.0
C      1  0.4511980000000  0.4771310000000  0.3941250000000 1.0
C      1  0.4330920000000  0.5363930000000  0.5002050000000 1.0
C      1  0.4376860000000  0.5024710000000  0.4320410000000 1.0
C      1  0.5057200000000  0.5608020000000  0.4574320000000 1.0
C      1  0.5532740000000  0.5754210000000  0.5384100000000 1.0
C      1  0.4811780000000  0.5012170000000  0.5865380000000 1.0
C      1  0.4738750000000  0.4716260000000  0.4596760000000 1.0
C      1  0.4370970000000  0.4221020000000  0.4638800000000 1.0
C      1  0.5224120000000  0.4404240000000  0.4873850000000 1.0
C      1  0.5790840000000  0.5527670000000  0.4691860000000 1.0
C      1  0.5248030000000  0.5268370000000  0.5290250000000 1.0
C      1  0.4116060000000  0.5234110000000  0.4645220000000 1.0
C      1  0.5540570000000  0.5242950000000  0.5393520000000 1.0
C      1  0.4720080000000  0.5017390000000  0.5123310000000 1.0
C      1  0.5227710000000  0.4935580000000  0.5216530000000 1.0
C      1  0.4575180000000  0.5935650000000  0.4944160000000 1.0
C      1  0.5343590000000  0.5177230000000  0.5950390000000 1.0
C      1  0.4439250000000  0.5277350000000  0.4217280000000 1.0
C      1  0.4747990000000  0.6067350000000  0.5093740000000 1.0
C      1  0.5120850000000  0.4029130000000  0.4965400000000 1.0
C      1  0.5760920000000  0.5474730000000  0.5262670000000 1.0
C      1  0.5228910000000  0.6050780000000  0.4993210000000 1.0
C      1  0.5021100000000  0.5350750000000  0.4065710000000 1.0
C      1  0.4622930000000  0.5276060000000  0.4927480000000 1.0
END
