TITL C-2778437-8639-231 -0.000459344912911324 125000 -816.521788485031 0 0 138 (C1) n - 1
REM
REM in /home/nfs/bkarasulu/CARBON/AIRSS/Generating-Clusters/REBO/Only-C1/SD-CG/HFTN-CG
REM
REM
REM
REM
REM
REM ./C.cell (11c1c37f851c82e70ff6c80c92926a4b)
REM
REM compiler GCC version 9.2.1 20190827 (Red Hat 9.2.1-1)
REM options -cpp -mtune=generic -march=x86-64 -g -O0 -fpre-include=/usr/include/finclude/math-vector-fortran.h
REM seed -974267492 126848491 -1855208738 149494173 -1083014085 974698784 -655076961 -1992429324 -187179969 -247130719 -1546804192 -1418432827 -1838231613 -270930453 -759007429 -2132185937 -714856067 1106680883 534091956 -1128412218 1005794775 1983718681 -164010329 -1221881517 1753866430 -988124267 555891794 1358257694 1954570394 -1759401323 -1336996881 -921918666 -1816845016
REM
CELL 1.54180   50.00000   50.00000   50.00000   90.00000   90.00000   90.00000
LATT -1
SFAC C  
C      1  0.4927670000000  0.4072570000000  0.5720900000000 1.0
C      1  0.5310760000000  0.5891380000000  0.5354740000000 1.0
C      1  0.6012650000000  0.4955200000000  0.4592180000000 1.0
C      1  0.5076250000000  0.5484530000000  0.5162000000000 1.0
C      1  0.4723150000000  0.5829970000000  0.4521550000000 1.0
C      1  0.5857450000000  0.4260150000000  0.4197070000000 1.0
C      1  0.4496140000000  0.4721820000000  0.5605160000000 1.0
C      1  0.5048250000000  0.5190700000000  0.5298360000000 1.0
C      1  0.5584750000000  0.5810460000000  0.5324720000000 1.0
C      1  0.5337510000000  0.5513740000000  0.4949930000000 1.0
C      1  0.5359750000000  0.4325920000000  0.4435180000000 1.0
C      1  0.4654960000000  0.5598880000000  0.5855620000000 1.0
C      1  0.5878230000000  0.4884570000000  0.5481560000000 1.0
C      1  0.5111580000000  0.5670530000000  0.5417620000000 1.0
C      1  0.4937950000000  0.4930290000000  0.5191460000000 1.0
C      1  0.4891710000000  0.3980990000000  0.5045340000000 1.0
C      1  0.4882110000000  0.4623040000000  0.4456380000000 1.0
C      1  0.5858220000000  0.4439730000000  0.4747770000000 1.0
C      1  0.5097200000000  0.5407190000000  0.5799820000000 1.0
C      1  0.5752010000000  0.4965890000000  0.4406910000000 1.0
C      1  0.5359680000000  0.5399100000000  0.4452450000000 1.0
C      1  0.4184110000000  0.4916580000000  0.4716280000000 1.0
C      1  0.5320510000000  0.4926380000000  0.5786480000000 1.0
C      1  0.5487770000000  0.6016680000000  0.4895490000000 1.0
C      1  0.5190440000000  0.4149900000000  0.5724710000000 1.0
C      1  0.5665470000000  0.4686740000000  0.4267860000000 1.0
C      1  0.5438300000000  0.5261280000000  0.5025530000000 1.0
C      1  0.5984160000000  0.5151980000000  0.4799620000000 1.0
C      1  0.5167640000000  0.5637730000000  0.4603690000000 1.0
C      1  0.4505560000000  0.4482980000000  0.4783890000000 1.0
C      1  0.4352790000000  0.5451990000000  0.5615470000000 1.0
C      1  0.5549640000000  0.5171050000000  0.5711830000000 1.0
C      1  0.4323300000000  0.4380090000000  0.5238660000000 1.0
C      1  0.4828100000000  0.5584280000000  0.4303290000000 1.0
C      1  0.4488580000000  0.5547700000000  0.5104060000000 1.0
C      1  0.4748170000000  0.4556810000000  0.5171490000000 1.0
C      1  0.5309870000000  0.5569420000000  0.5792480000000 1.0
C      1  0.4251040000000  0.5384680000000  0.5160320000000 1.0
C      1  0.4514080000000  0.5294430000000  0.5855490000000 1.0
C      1  0.5595380000000  0.4396480000000  0.4893170000000 1.0
C      1  0.5192540000000  0.4739320000000  0.5186790000000 1.0
C      1  0.4301380000000  0.5042210000000  0.4481940000000 1.0
C      1  0.5048470000000  0.6017030000000  0.5229500000000 1.0
C      1  0.5125100000000  0.4192450000000  0.5114650000000 1.0
C      1  0.5007810000000  0.5995490000000  0.4943170000000 1.0
C      1  0.4568520000000  0.4479700000000  0.5771370000000 1.0
C      1  0.4216110000000  0.4502400000000  0.4943370000000 1.0
C      1  0.4395280000000  0.4980600000000  0.5796810000000 1.0
C      1  0.4382060000000  0.5718330000000  0.5522950000000 1.0
C      1  0.5355540000000  0.5192740000000  0.5273850000000 1.0
C      1  0.5253880000000  0.4891900000000  0.4094840000000 1.0
C      1  0.4340370000000  0.5322970000000  0.4485020000000 1.0
C      1  0.4395630000000  0.4866440000000  0.4271990000000 1.0
C      1  0.5348350000000  0.4529670000000  0.4707990000000 1.0
C      1  0.4339670000000  0.4590550000000  0.4320820000000 1.0
C      1  0.6070630000000  0.4294090000000  0.4808760000000 1.0
C      1  0.4859480000000  0.4948700000000  0.5712550000000 1.0
C      1  0.4745510000000  0.5938940000000  0.4843300000000 1.0
C      1  0.4572850000000  0.5483060000000  0.4397500000000 1.0
C      1  0.4726580000000  0.5635330000000  0.5312930000000 1.0
C      1  0.5019460000000  0.5116850000000  0.4467390000000 1.0
C      1  0.4270230000000  0.4885450000000  0.5035650000000 1.0
C      1  0.4885170000000  0.5754140000000  0.5658310000000 1.0
C      1  0.4819490000000  0.5937740000000  0.5382550000000 1.0
C      1  0.4241500000000  0.5000980000000  0.5497720000000 1.0
C      1  0.4244860000000  0.5272340000000  0.5418340000000 1.0
C      1  0.4510390000000  0.5618910000000  0.4692850000000 1.0
C      1  0.5500990000000  0.5043760000000  0.5452440000000 1.0
C      1  0.5344920000000  0.4189000000000  0.4913680000000 1.0
C      1  0.3960170000000  0.4720660000000  0.4654630000000 1.0
C      1  0.5892710000000  0.5476850000000  0.4437130000000 1.0
C      1  0.4233480000000  0.4536810000000  0.4601510000000 1.0
C      1  0.4631480000000  0.4193760000000  0.4832620000000 1.0
C      1  0.5628860000000  0.4290360000000  0.4306430000000 1.0
C      1  0.4807280000000  0.4945340000000  0.4889990000000 1.0
C      1  0.5290470000000  0.4806350000000  0.4874430000000 1.0
C      1  0.4934870000000  0.4668130000000  0.5693310000000 1.0
C      1  0.4546200000000  0.5875500000000  0.5030820000000 1.0
C      1  0.5967580000000  0.5543930000000  0.5456570000000 1.0
C      1  0.4873520000000  0.4373410000000  0.4970480000000 1.0
C      1  0.5524620000000  0.5110900000000  0.4531860000000 1.0
C      1  0.5780130000000  0.5059430000000  0.4982860000000 1.0
C      1  0.4906320000000  0.4872620000000  0.4307710000000 1.0
C      1  0.4999870000000  0.5267440000000  0.3974610000000 1.0
C      1  0.5374330000000  0.4770360000000  0.5472880000000 1.0
C      1  0.4570460000000  0.4830360000000  0.5072170000000 1.0
C      1  0.4675880000000  0.3974130000000  0.5208500000000 1.0
C      1  0.4728770000000  0.4668930000000  0.4743100000000 1.0
C      1  0.4796260000000  0.4380650000000  0.4283900000000 1.0
C      1  0.4940270000000  0.4957770000000  0.3983750000000 1.0
C      1  0.4932380000000  0.5223320000000  0.5565570000000 1.0
C      1  0.4812890000000  0.5540580000000  0.4999210000000 1.0
C      1  0.5489080000000  0.4475290000000  0.5454120000000 1.0
C      1  0.4386260000000  0.4148210000000  0.4996750000000 1.0
C      1  0.4533530000000  0.4147960000000  0.5366850000000 1.0
C      1  0.3757290000000  0.4704780000000  0.4873700000000 1.0
C      1  0.5637160000000  0.5564190000000  0.4344760000000 1.0
C      1  0.5199870000000  0.4626010000000  0.5800360000000 1.0
C      1  0.5022140000000  0.5406190000000  0.3738220000000 1.0
C      1  0.3985900000000  0.4697910000000  0.5052620000000 1.0
C      1  0.4636960000000  0.4928350000000  0.4138330000000 1.0
C      1  0.5112730000000  0.4267020000000  0.4261130000000 1.0
C      1  0.5065880000000  0.5108890000000  0.5922230000000 1.0
C      1  0.5446860000000  0.4699080000000  0.4107310000000 1.0
C      1  0.5957520000000  0.5433430000000  0.4717300000000 1.0
C      1  0.5685510000000  0.5870230000000  0.5059060000000 1.0
C      1  0.4528480000000  0.4826490000000  0.6070130000000 1.0
C      1  0.5331880000000  0.4394480000000  0.5691200000000 1.0
C      1  0.5112470000000  0.4448720000000  0.5287670000000 1.0
C      1  0.5554690000000  0.5460370000000  0.5698180000000 1.0
C      1  0.4994180000000  0.5369330000000  0.4240660000000 1.0
C      1  0.5290150000000  0.5109680000000  0.4303910000000 1.0
C      1  0.5036390000000  0.4530660000000  0.4735090000000 1.0
C      1  0.5524660000000  0.5637110000000  0.4779870000000 1.0
C      1  0.5594070000000  0.4404940000000  0.5216510000000 1.0
C      1  0.4907990000000  0.4044570000000  0.4712220000000 1.0
C      1  0.4504770000000  0.4406730000000  0.4203890000000 1.0
C      1  0.4692160000000  0.4245250000000  0.5604620000000 1.0
C      1  0.5472610000000  0.5772310000000  0.4509440000000 1.0
C      1  0.5235590000000  0.5912870000000  0.4794300000000 1.0
C      1  0.4206750000000  0.5475300000000  0.4704660000000 1.0
C      1  0.4085100000000  0.5379700000000  0.4935980000000 1.0
C      1  0.4861280000000  0.4475710000000  0.5482220000000 1.0
C      1  0.5065000000000  0.5016070000000  0.4746300000000 1.0
C      1  0.5823960000000  0.5638200000000  0.4882720000000 1.0
C      1  0.4748890000000  0.5458180000000  0.5567410000000 1.0
C      1  0.4414910000000  0.5884580000000  0.5306180000000 1.0
C      1  0.5216430000000  0.4151820000000  0.4668260000000 1.0
C      1  0.5501110000000  0.5035290000000  0.4826680000000 1.0
C      1  0.4861210000000  0.5583700000000  0.4701540000000 1.0
C      1  0.5706030000000  0.5611980000000  0.5499480000000 1.0
C      1  0.4565370000000  0.4556430000000  0.6035100000000 1.0
C      1  0.5830390000000  0.4969830000000  0.5238410000000 1.0
C      1  0.4681390000000  0.4816140000000  0.5380940000000 1.0
C      1  0.4887180000000  0.4085030000000  0.4405920000000 1.0
C      1  0.4731370000000  0.5071340000000  0.5988670000000 1.0
C      1  0.4292870000000  0.4707100000000  0.5330380000000 1.0
C      1  0.5869500000000  0.4650000000000  0.4539120000000 1.0
END
