TITL C-2778436-5916-501 0.000720379317909802 125000 -392.059622747231 0 0 69 (C1) n - 1
REM
REM in /home/nfs/bkarasulu/CARBON/AIRSS/Generating-Clusters/REBO/Only-C1/SD-CG/HFTN-CG
REM
REM
REM
REM
REM
REM ./C.cell (11c1c37f851c82e70ff6c80c92926a4b)
REM
REM compiler GCC version 9.2.1 20190827 (Red Hat 9.2.1-1)
REM options -cpp -mtune=generic -march=x86-64 -g -O0 -fpre-include=/usr/include/finclude/math-vector-fortran.h
REM seed 162089827 245860665 1103707589 1817204147 385326471 -1766434442 -423294185 -2050574575 -880100894 -2130929042 1983713856 800387984 -1959739357 -1397261898 -772823968 729997303 -1177858773 1252269705 -1478976928 70539287 810684724 -275585269 -1907918023 -206623511 977925970 -93770617 -1442829853 -1357523147 1772195564 1347191268 -975933504 398807594 -174827819
REM
CELL 1.54180   50.00000   50.00000   50.00000   90.00000   90.00000   90.00000
LATT -1
SFAC C  
C      1  0.4567150000000  0.5617330000000  0.4696610000000 1.0
C      1  0.5274800000000  0.5213650000000  0.4557140000000 1.0
C      1  0.5086250000000  0.4482500000000  0.4874360000000 1.0
C      1  0.5029880000000  0.5021720000000  0.4476270000000 1.0
C      1  0.4961190000000  0.5113180000000  0.4783050000000 1.0
C      1  0.5592830000000  0.5200330000000  0.4161070000000 1.0
C      1  0.5259560000000  0.4811270000000  0.5019290000000 1.0
C      1  0.4677920000000  0.4967020000000  0.5597380000000 1.0
C      1  0.4957020000000  0.5603970000000  0.4997870000000 1.0
C      1  0.4900180000000  0.4551220000000  0.5151290000000 1.0
C      1  0.4825480000000  0.5306650000000  0.5005920000000 1.0
C      1  0.4740560000000  0.5509570000000  0.4509330000000 1.0
C      1  0.5513830000000  0.5107670000000  0.4393640000000 1.0
C      1  0.4878410000000  0.4478820000000  0.4533260000000 1.0
C      1  0.4581120000000  0.4510940000000  0.4696660000000 1.0
C      1  0.5132950000000  0.4697540000000  0.4471470000000 1.0
C      1  0.4717430000000  0.4782290000000  0.4734560000000 1.0
C      1  0.5191790000000  0.5130180000000  0.5734830000000 1.0
C      1  0.4523500000000  0.5355140000000  0.5125950000000 1.0
C      1  0.4777900000000  0.4463700000000  0.5589260000000 1.0
C      1  0.4821810000000  0.5738190000000  0.5267510000000 1.0
C      1  0.4613280000000  0.5642730000000  0.5014490000000 1.0
C      1  0.4744880000000  0.4148890000000  0.5011780000000 1.0
C      1  0.4741350000000  0.4819000000000  0.5130790000000 1.0
C      1  0.4996120000000  0.4579720000000  0.5711260000000 1.0
C      1  0.5280160000000  0.5525670000000  0.4471900000000 1.0
C      1  0.5434870000000  0.5320000000000  0.5373600000000 1.0
C      1  0.5155210000000  0.4934210000000  0.5383110000000 1.0
C      1  0.4498710000000  0.5197300000000  0.5421390000000 1.0
C      1  0.4319990000000  0.4562360000000  0.5133690000000 1.0
C      1  0.4580210000000  0.5043530000000  0.4683080000000 1.0
C      1  0.4874740000000  0.4258610000000  0.4791940000000 1.0
C      1  0.4645150000000  0.4924920000000  0.4308420000000 1.0
C      1  0.5583080000000  0.4858840000000  0.5539440000000 1.0
C      1  0.4940990000000  0.5057980000000  0.5178690000000 1.0
C      1  0.5465590000000  0.4944390000000  0.5241200000000 1.0
C      1  0.4456430000000  0.4475290000000  0.5357580000000 1.0
C      1  0.5397640000000  0.4457820000000  0.4894110000000 1.0
C      1  0.5683740000000  0.5388200000000  0.4893240000000 1.0
C      1  0.4389200000000  0.4853350000000  0.4388160000000 1.0
C      1  0.5007780000000  0.4799220000000  0.4835860000000 1.0
C      1  0.4435550000000  0.4850080000000  0.5025820000000 1.0
C      1  0.5665400000000  0.4620760000000  0.5364810000000 1.0
C      1  0.4731600000000  0.4311760000000  0.5288400000000 1.0
C      1  0.5657320000000  0.5117750000000  0.5110380000000 1.0
C      1  0.5207950000000  0.5292260000000  0.4890500000000 1.0
C      1  0.5637530000000  0.4881440000000  0.4548690000000 1.0
C      1  0.5138430000000  0.5669960000000  0.4782410000000 1.0
C      1  0.5437390000000  0.5505880000000  0.4774200000000 1.0
C      1  0.4840350000000  0.4718870000000  0.4299270000000 1.0
C      1  0.5440320000000  0.5130400000000  0.5593590000000 1.0
C      1  0.4321770000000  0.4826970000000  0.4704330000000 1.0
C      1  0.5400960000000  0.4643460000000  0.4607660000000 1.0
C      1  0.4789940000000  0.5995200000000  0.5412730000000 1.0
C      1  0.4317590000000  0.4522280000000  0.4833830000000 1.0
C      1  0.5762320000000  0.5070050000000  0.4799980000000 1.0
C      1  0.5528300000000  0.4831930000000  0.4862680000000 1.0
C      1  0.4743580000000  0.5302020000000  0.5594650000000 1.0
C      1  0.5187850000000  0.4616670000000  0.5280350000000 1.0
C      1  0.5475310000000  0.4514970000000  0.5177360000000 1.0
C      1  0.4988090000000  0.5642300000000  0.4494650000000 1.0
C      1  0.4957070000000  0.5485260000000  0.5403610000000 1.0
C      1  0.4552650000000  0.4678500000000  0.5569870000000 1.0
C      1  0.4744170000000  0.5208260000000  0.4461040000000 1.0
C      1  0.5682470000000  0.5428160000000  0.5229490000000 1.0
C      1  0.5002720000000  0.4889030000000  0.5661940000000 1.0
C      1  0.5165750000000  0.5322700000000  0.5214330000000 1.0
C      1  0.5036640000000  0.5372570000000  0.5714510000000 1.0
C      1  0.4330260000000  0.5095570000000  0.5158510000000 1.0
END
