TITL C-2778424-3986-271 -4.23751708905531e-05 125000 -1056.3858982222 0 0 180 (C1) n - 1
REM
REM in /home/nfs/bkarasulu/CARBON/AIRSS/Generating-Clusters/REBO/Only-C1/SD-CG/HFTN-CG
REM
REM
REM
REM
REM
REM ./C.cell (11c1c37f851c82e70ff6c80c92926a4b)
REM
REM compiler GCC version 9.2.1 20190827 (Red Hat 9.2.1-1)
REM options -cpp -mtune=generic -march=x86-64 -g -O0 -fpre-include=/usr/include/finclude/math-vector-fortran.h
REM seed -1441939066 1766765851 2099357649 2108707693 1646109737 -917842703 -411051661 844414168 1390886120 104457461 -1533532843 785834669 -554613641 -463141622 2111299724 -1472480057 887385820 1170016216 1099359804 -244995057 305599712 1500841518 1043500385 -299225274 293403304 482381400 223144487 -322471089 -1562823714 850346009 -1653977179 731751215 95776188
REM
CELL 1.54180   50.00000   50.00000   50.00000   90.00000   90.00000   90.00000
LATT -1
SFAC C  
C      1  0.4346240000000  0.4843880000000  0.4951740000000 1.0
C      1  0.5188590000000  0.4669790000000  0.5551600000000 1.0
C      1  0.5486480000000  0.4241730000000  0.5642990000000 1.0
C      1  0.4974370000000  0.4743950000000  0.4026060000000 1.0
C      1  0.5180840000000  0.4269170000000  0.5583880000000 1.0
C      1  0.5408850000000  0.6107310000000  0.5084350000000 1.0
C      1  0.5042010000000  0.4925220000000  0.5156430000000 1.0
C      1  0.4425270000000  0.4116150000000  0.5006380000000 1.0
C      1  0.4705470000000  0.6041350000000  0.5034310000000 1.0
C      1  0.4233470000000  0.4989410000000  0.5643660000000 1.0
C      1  0.5198590000000  0.3935490000000  0.4719400000000 1.0
C      1  0.4642440000000  0.4974260000000  0.4346560000000 1.0
C      1  0.5744740000000  0.5382400000000  0.5071720000000 1.0
C      1  0.4633200000000  0.5641340000000  0.5651770000000 1.0
C      1  0.4875460000000  0.5464770000000  0.4758090000000 1.0
C      1  0.4791690000000  0.5967630000000  0.5296690000000 1.0
C      1  0.5888580000000  0.5105950000000  0.5770120000000 1.0
C      1  0.5405980000000  0.6066530000000  0.5407070000000 1.0
C      1  0.4030470000000  0.4452780000000  0.5207760000000 1.0
C      1  0.4653900000000  0.4447190000000  0.4417430000000 1.0
C      1  0.6121950000000  0.4874090000000  0.5142010000000 1.0
C      1  0.4673640000000  0.4885590000000  0.6089390000000 1.0
C      1  0.4334800000000  0.4672570000000  0.5695260000000 1.0
C      1  0.4512720000000  0.4865000000000  0.5389050000000 1.0
C      1  0.5397010000000  0.5531350000000  0.5466870000000 1.0
C      1  0.4690370000000  0.5078080000000  0.5516390000000 1.0
C      1  0.4462850000000  0.4329920000000  0.5163800000000 1.0
C      1  0.4872440000000  0.4293320000000  0.5200060000000 1.0
C      1  0.5009450000000  0.4964500000000  0.5562390000000 1.0
C      1  0.4221320000000  0.4426490000000  0.4603120000000 1.0
C      1  0.4526870000000  0.4424390000000  0.5564410000000 1.0
C      1  0.4247090000000  0.5371540000000  0.4313240000000 1.0
C      1  0.4133940000000  0.5403420000000  0.4578980000000 1.0
C      1  0.5548370000000  0.4370860000000  0.5921690000000 1.0
C      1  0.4185040000000  0.4152000000000  0.4788220000000 1.0
C      1  0.6031900000000  0.4778510000000  0.4639950000000 1.0
C      1  0.5360340000000  0.4887900000000  0.5734670000000 1.0
C      1  0.5301440000000  0.4233170000000  0.4356120000000 1.0
C      1  0.4987240000000  0.4155830000000  0.4732870000000 1.0
C      1  0.4624420000000  0.4711640000000  0.4845960000000 1.0
C      1  0.5200010000000  0.5597770000000  0.5812340000000 1.0
C      1  0.5737160000000  0.4843540000000  0.5856020000000 1.0
C      1  0.5894030000000  0.5265160000000  0.4524730000000 1.0
C      1  0.5216440000000  0.4730000000000  0.6071030000000 1.0
C      1  0.5419610000000  0.4960780000000  0.4032960000000 1.0
C      1  0.4161610000000  0.4675600000000  0.5411890000000 1.0
C      1  0.5613760000000  0.4174310000000  0.4822940000000 1.0
C      1  0.4424230000000  0.5473250000000  0.5739780000000 1.0
C      1  0.4546380000000  0.4440700000000  0.4702190000000 1.0
C      1  0.4573960000000  0.5137760000000  0.6020190000000 1.0
C      1  0.5640550000000  0.5936590000000  0.5232040000000 1.0
C      1  0.4391800000000  0.4926950000000  0.4039850000000 1.0
C      1  0.3951010000000  0.5486400000000  0.5115220000000 1.0
C      1  0.3784640000000  0.5237370000000  0.5092060000000 1.0
C      1  0.5630640000000  0.4300690000000  0.5140670000000 1.0
C      1  0.4913970000000  0.5519380000000  0.5681230000000 1.0
C      1  0.5093260000000  0.4893130000000  0.4828470000000 1.0
C      1  0.4448830000000  0.5679340000000  0.5214840000000 1.0
C      1  0.5522430000000  0.5379690000000  0.5724210000000 1.0
C      1  0.5069610000000  0.4449510000000  0.4891990000000 1.0
C      1  0.5896660000000  0.5586200000000  0.4633230000000 1.0
C      1  0.5626920000000  0.4411030000000  0.4578940000000 1.0
C      1  0.5750240000000  0.5747830000000  0.4802830000000 1.0
C      1  0.5139740000000  0.5006920000000  0.3990910000000 1.0
C      1  0.4830490000000  0.5530050000000  0.4373380000000 1.0
C      1  0.4549900000000  0.4965870000000  0.4631400000000 1.0
C      1  0.4970070000000  0.5175040000000  0.6006080000000 1.0
C      1  0.4137470000000  0.5102650000000  0.4183510000000 1.0
C      1  0.4285280000000  0.5112680000000  0.5102380000000 1.0
C      1  0.4633770000000  0.4185360000000  0.5653730000000 1.0
C      1  0.5632070000000  0.5721440000000  0.4135390000000 1.0
C      1  0.5800210000000  0.5696270000000  0.5136640000000 1.0
C      1  0.5207330000000  0.5763020000000  0.5057540000000 1.0
C      1  0.4579130000000  0.4691220000000  0.4190760000000 1.0
C      1  0.4351080000000  0.5668500000000  0.4782200000000 1.0
C      1  0.5700980000000  0.4820150000000  0.4406670000000 1.0
C      1  0.5255350000000  0.5874890000000  0.5614130000000 1.0
C      1  0.5145310000000  0.4468520000000  0.5310300000000 1.0
C      1  0.5304590000000  0.3794570000000  0.4937860000000 1.0
C      1  0.4607470000000  0.5803560000000  0.5427060000000 1.0
C      1  0.5547550000000  0.5282580000000  0.5337170000000 1.0
C      1  0.4339110000000  0.5333910000000  0.4847910000000 1.0
C      1  0.5800980000000  0.5058670000000  0.5291750000000 1.0
C      1  0.5641260000000  0.4785540000000  0.4721880000000 1.0
C      1  0.4743340000000  0.4545450000000  0.5349660000000 1.0
C      1  0.4022460000000  0.4379150000000  0.4945730000000 1.0
C      1  0.4865040000000  0.4088360000000  0.4460100000000 1.0
C      1  0.4528160000000  0.5529970000000  0.4300280000000 1.0
C      1  0.4540140000000  0.4360510000000  0.4110350000000 1.0
C      1  0.5608340000000  0.4507860000000  0.3988740000000 1.0
C      1  0.5134740000000  0.5768320000000  0.4270390000000 1.0
C      1  0.5094590000000  0.4072950000000  0.5327090000000 1.0
C      1  0.5032110000000  0.4200000000000  0.4259510000000 1.0
C      1  0.5654450000000  0.5132420000000  0.4406560000000 1.0
C      1  0.5435100000000  0.4097070000000  0.5332680000000 1.0
C      1  0.4865000000000  0.5114140000000  0.4949830000000 1.0
C      1  0.5930390000000  0.4597450000000  0.5435010000000 1.0
C      1  0.5914850000000  0.5516410000000  0.5405310000000 1.0
C      1  0.5288390000000  0.5662350000000  0.4851640000000 1.0
C      1  0.5546930000000  0.5906950000000  0.4670920000000 1.0
C      1  0.5072230000000  0.5977430000000  0.4733350000000 1.0
C      1  0.4597590000000  0.4676290000000  0.5885130000000 1.0
C      1  0.5884160000000  0.4558820000000  0.4499470000000 1.0
C      1  0.5416010000000  0.5097480000000  0.5980830000000 1.0
C      1  0.4389460000000  0.4626370000000  0.5185440000000 1.0
C      1  0.5909140000000  0.4760200000000  0.4935670000000 1.0
C      1  0.4759920000000  0.4305130000000  0.4898560000000 1.0
C      1  0.3776310000000  0.4794310000000  0.4822190000000 1.0
C      1  0.5102740000000  0.5560950000000  0.5420680000000 1.0
C      1  0.4021950000000  0.5148650000000  0.4692040000000 1.0
C      1  0.5040650000000  0.5620530000000  0.4048070000000 1.0
C      1  0.5510370000000  0.3939810000000  0.5050570000000 1.0
C      1  0.4229430000000  0.5445420000000  0.5311030000000 1.0
C      1  0.4055120000000  0.4888950000000  0.4394870000000 1.0
C      1  0.5513070000000  0.4702050000000  0.4166540000000 1.0
C      1  0.5213000000000  0.5304720000000  0.5982660000000 1.0
C      1  0.5273660000000  0.5178220000000  0.5608580000000 1.0
C      1  0.4885480000000  0.4103980000000  0.5596720000000 1.0
C      1  0.5582820000000  0.5178800000000  0.4113480000000 1.0
C      1  0.4221940000000  0.4911330000000  0.4662560000000 1.0
C      1  0.6019670000000  0.5076770000000  0.4716330000000 1.0
C      1  0.4305360000000  0.5230130000000  0.5739290000000 1.0
C      1  0.5514560000000  0.5708360000000  0.5738080000000 1.0
C      1  0.4757660000000  0.5255410000000  0.5774820000000 1.0
C      1  0.5970890000000  0.5146490000000  0.5012710000000 1.0
C      1  0.4940300000000  0.4894010000000  0.4318680000000 1.0
C      1  0.5675910000000  0.4781990000000  0.5302590000000 1.0
C      1  0.5015130000000  0.5715720000000  0.4568090000000 1.0
C      1  0.4977870000000  0.4901320000000  0.6131590000000 1.0
C      1  0.5427740000000  0.4846630000000  0.5092760000000 1.0
C      1  0.5339050000000  0.6056030000000  0.4811550000000 1.0
C      1  0.4131790000000  0.5758390000000  0.5213990000000 1.0
C      1  0.5524220000000  0.4649150000000  0.6007810000000 1.0
C      1  0.5323260000000  0.4541730000000  0.5060120000000 1.0
C      1  0.3957310000000  0.4590630000000  0.4746240000000 1.0
C      1  0.5069090000000  0.5325190000000  0.4511260000000 1.0
C      1  0.3983270000000  0.5662760000000  0.4625930000000 1.0
C      1  0.5646910000000  0.4549880000000  0.4949660000000 1.0
C      1  0.5668030000000  0.4404830000000  0.5434560000000 1.0
C      1  0.5405730000000  0.4079470000000  0.4573660000000 1.0
C      1  0.5143570000000  0.4757920000000  0.4555150000000 1.0
C      1  0.5208890000000  0.5306710000000  0.5014990000000 1.0
C      1  0.3806810000000  0.5079020000000  0.4854090000000 1.0
C      1  0.5385750000000  0.5205880000000  0.4581890000000 1.0
C      1  0.4446710000000  0.3963290000000  0.4719220000000 1.0
C      1  0.5583960000000  0.4689810000000  0.5602760000000 1.0
C      1  0.3810780000000  0.5084070000000  0.5319790000000 1.0
C      1  0.5126030000000  0.4555660000000  0.5845240000000 1.0
C      1  0.4615400000000  0.3963760000000  0.4497600000000 1.0
C      1  0.5397630000000  0.4970220000000  0.4779220000000 1.0
C      1  0.4841850000000  0.4461540000000  0.5854650000000 1.0
C      1  0.6041140000000  0.5522520000000  0.4359450000000 1.0
C      1  0.4769670000000  0.5950440000000  0.4772920000000 1.0
C      1  0.4516820000000  0.5213060000000  0.4177550000000 1.0
C      1  0.4624250000000  0.5232420000000  0.4763270000000 1.0
C      1  0.4945660000000  0.4569150000000  0.4382480000000 1.0
C      1  0.4041270000000  0.5740790000000  0.4903870000000 1.0
C      1  0.5467570000000  0.5321540000000  0.4950160000000 1.0
C      1  0.6161110000000  0.4714680000000  0.5356460000000 1.0
C      1  0.5302100000000  0.5048790000000  0.5304500000000 1.0
C      1  0.5905130000000  0.5253250000000  0.5513870000000 1.0
C      1  0.5291690000000  0.5404860000000  0.4264500000000 1.0
C      1  0.5455070000000  0.5812500000000  0.4372180000000 1.0
C      1  0.5547070000000  0.5467620000000  0.4068490000000 1.0
C      1  0.4098240000000  0.4988710000000  0.5352130000000 1.0
C      1  0.5069490000000  0.5870030000000  0.5329160000000 1.0
C      1  0.5684350000000  0.5228050000000  0.5952020000000 1.0
C      1  0.4614790000000  0.5721850000000  0.4572490000000 1.0
C      1  0.4180210000000  0.4708280000000  0.4191960000000 1.0
C      1  0.5077170000000  0.5294720000000  0.4025110000000 1.0
C      1  0.4854100000000  0.4662510000000  0.5050150000000 1.0
C      1  0.5384090000000  0.4580420000000  0.4442540000000 1.0
C      1  0.4511050000000  0.5254040000000  0.5304470000000 1.0
C      1  0.4270600000000  0.4458110000000  0.4289740000000 1.0
C      1  0.5025720000000  0.5385210000000  0.5194220000000 1.0
C      1  0.4873830000000  0.4424040000000  0.4084300000000 1.0
C      1  0.4625120000000  0.5593630000000  0.4950580000000 1.0
C      1  0.5386380000000  0.5551150000000  0.4581320000000 1.0
C      1  0.4729650000000  0.5357830000000  0.5126360000000 1.0
C      1  0.4799770000000  0.4707360000000  0.5616420000000 1.0
END
