TITL C-2778431-5191-1154 -0.00301023465712031 125000 -331.898651536861 0 0 58 (C1) n - 1
REM
REM in /home/nfs/bkarasulu/CARBON/AIRSS/Generating-Clusters/REBO/Only-C1/SD-CG/HFTN-CG
REM
REM
REM
REM
REM
REM ./C.cell (11c1c37f851c82e70ff6c80c92926a4b)
REM
REM compiler GCC version 9.2.1 20190827 (Red Hat 9.2.1-1)
REM options -cpp -mtune=generic -march=x86-64 -g -O0 -fpre-include=/usr/include/finclude/math-vector-fortran.h
REM seed -1703978347 -1592273721 -1839673976 -1628995292 -1815105276 1788662563 -552848623 -664543285 -160742693 -625348289 598209276 1976783410 -576606343 -2109156211 337118993 550865163 262835891 -1293273313 -1298911176 -2114785363 265742362 -135180073 1899875037 -30013226 498876437 -323603190 -1836989240 -1625881487 -427288369 -352665930 790930270 -932605648 694776043
REM
CELL 1.54180   50.00000   50.00000   50.00000   90.00000   90.00000   90.00000
LATT -1
SFAC C  
C      1  0.4292030000000  0.5117440000000  0.4986900000000 1.0
C      1  0.5606740000000  0.5008700000000  0.4863790000000 1.0
C      1  0.4985850000000  0.4851960000000  0.4718920000000 1.0
C      1  0.4483950000000  0.4894520000000  0.5473800000000 1.0
C      1  0.4857420000000  0.5697370000000  0.5383430000000 1.0
C      1  0.4812030000000  0.5368580000000  0.5305510000000 1.0
C      1  0.5539050000000  0.4635870000000  0.4739930000000 1.0
C      1  0.4446280000000  0.4679130000000  0.5065070000000 1.0
C      1  0.4910370000000  0.5104190000000  0.4903360000000 1.0
C      1  0.5480530000000  0.4613280000000  0.5256910000000 1.0
C      1  0.5567000000000  0.4830790000000  0.5480070000000 1.0
C      1  0.5160980000000  0.4903590000000  0.4465680000000 1.0
C      1  0.5104780000000  0.4769230000000  0.5002160000000 1.0
C      1  0.4773410000000  0.4330390000000  0.4989730000000 1.0
C      1  0.4439290000000  0.5405780000000  0.5678000000000 1.0
C      1  0.5369930000000  0.5298020000000  0.4374050000000 1.0
C      1  0.4933240000000  0.4895700000000  0.5243560000000 1.0
C      1  0.5257590000000  0.4724650000000  0.5529890000000 1.0
C      1  0.5715470000000  0.4886690000000  0.4606900000000 1.0
C      1  0.5102770000000  0.4983900000000  0.5594950000000 1.0
C      1  0.5084740000000  0.5594410000000  0.4679740000000 1.0
C      1  0.5481860000000  0.5653430000000  0.5107760000000 1.0
C      1  0.5543750000000  0.5273850000000  0.4849370000000 1.0
C      1  0.4793930000000  0.5283040000000  0.4450760000000 1.0
C      1  0.5153120000000  0.5288140000000  0.4926700000000 1.0
C      1  0.5035950000000  0.5167870000000  0.5362800000000 1.0
C      1  0.4828930000000  0.5544070000000  0.4577210000000 1.0
C      1  0.4337040000000  0.5164420000000  0.5579890000000 1.0
C      1  0.5318720000000  0.5365770000000  0.4636480000000 1.0
C      1  0.4738870000000  0.4692560000000  0.4636980000000 1.0
C      1  0.5063500000000  0.4196040000000  0.5084100000000 1.0
C      1  0.4306670000000  0.5095660000000  0.5266730000000 1.0
C      1  0.5768360000000  0.4770280000000  0.5661300000000 1.0
C      1  0.4841690000000  0.4424620000000  0.4697920000000 1.0
C      1  0.5550230000000  0.5420430000000  0.5259690000000 1.0
C      1  0.5489750000000  0.4414760000000  0.4980210000000 1.0
C      1  0.4494520000000  0.5865880000000  0.4786960000000 1.0
C      1  0.4569740000000  0.5154560000000  0.4575710000000 1.0
C      1  0.4497680000000  0.4416240000000  0.5077250000000 1.0
C      1  0.4660740000000  0.4928600000000  0.5075490000000 1.0
C      1  0.4994650000000  0.4507480000000  0.5170030000000 1.0
C      1  0.4658890000000  0.5256230000000  0.5061610000000 1.0
C      1  0.5404650000000  0.4799850000000  0.5005730000000 1.0
C      1  0.4723230000000  0.4750870000000  0.5467700000000 1.0
C      1  0.5290980000000  0.4593510000000  0.4525020000000 1.0
C      1  0.4994140000000  0.4575350000000  0.5466700000000 1.0
C      1  0.4460620000000  0.5349900000000  0.4825340000000 1.0
C      1  0.5125070000000  0.4376030000000  0.4648690000000 1.0
C      1  0.5256930000000  0.5617310000000  0.4939420000000 1.0
C      1  0.4513250000000  0.4876760000000  0.4629030000000 1.0
C      1  0.4650400000000  0.5531040000000  0.5551300000000 1.0
C      1  0.5559560000000  0.5114040000000  0.5369310000000 1.0
C      1  0.4333360000000  0.4861780000000  0.4857220000000 1.0
C      1  0.5007000000000  0.5135440000000  0.4332610000000 1.0
C      1  0.5265310000000  0.4252060000000  0.4881790000000 1.0
C      1  0.5489000000000  0.4842800000000  0.4403820000000 1.0
C      1  0.4586940000000  0.5615650000000  0.4721410000000 1.0
C      1  0.5287490000000  0.5229480000000  0.5207580000000 1.0
END
