TITL C-2778431-5191-859 0.00132997967922486 125000 -281.687342163122 0 0 50 (C1) n - 1
REM
REM in /home/nfs/bkarasulu/CARBON/AIRSS/Generating-Clusters/REBO/Only-C1/SD-CG/HFTN-CG
REM
REM
REM
REM
REM
REM ./C.cell (11c1c37f851c82e70ff6c80c92926a4b)
REM
REM compiler GCC version 9.2.1 20190827 (Red Hat 9.2.1-1)
REM options -cpp -mtune=generic -march=x86-64 -g -O0 -fpre-include=/usr/include/finclude/math-vector-fortran.h
REM seed -1383394959 -1848972942 1383982437 -612753795 -1310419740 1488001222 -2126791922 1220574226 -997472387 -449168338 -1397116168 -2130423150 -1880407143 288803386 1341407729 1129831579 -449450558 -1087165633 -1893983408 1751903943 842920663 -790680932 -806315463 -1384337548 -582404838 -753422517 977576555 -1130810200 1169883260 1933042940 -1540766864 -1028110847 2066661269
REM
CELL 1.54180   50.00000   50.00000   50.00000   90.00000   90.00000   90.00000
LATT -1
SFAC C  
C      1  0.4812810000000  0.5427520000000  0.4509300000000 1.0
C      1  0.5036080000000  0.4674810000000  0.5649180000000 1.0
C      1  0.4463350000000  0.4446910000000  0.4550510000000 1.0
C      1  0.5272590000000  0.4644640000000  0.4326470000000 1.0
C      1  0.4847600000000  0.4706860000000  0.5156070000000 1.0
C      1  0.4593990000000  0.4904210000000  0.5390160000000 1.0
C      1  0.5515240000000  0.4786620000000  0.5363580000000 1.0
C      1  0.5397710000000  0.5244890000000  0.5537340000000 1.0
C      1  0.5701340000000  0.4578640000000  0.5222610000000 1.0
C      1  0.5194780000000  0.5063510000000  0.5033460000000 1.0
C      1  0.4996090000000  0.4940240000000  0.5355850000000 1.0
C      1  0.5027890000000  0.4968380000000  0.5700860000000 1.0
C      1  0.4671020000000  0.5380190000000  0.5459490000000 1.0
C      1  0.4842430000000  0.5758610000000  0.5072510000000 1.0
C      1  0.4550050000000  0.4463600000000  0.4818550000000 1.0
C      1  0.4777890000000  0.4630820000000  0.5480260000000 1.0
C      1  0.5238700000000  0.4774140000000  0.5189230000000 1.0
C      1  0.4611130000000  0.5558810000000  0.4995700000000 1.0
C      1  0.5125690000000  0.5626100000000  0.4651940000000 1.0
C      1  0.4611830000000  0.5231960000000  0.4516970000000 1.0
C      1  0.4943040000000  0.5450200000000  0.5418060000000 1.0
C      1  0.4801420000000  0.4351830000000  0.4951830000000 1.0
C      1  0.5345090000000  0.5235600000000  0.4488060000000 1.0
C      1  0.4837970000000  0.4610020000000  0.4583790000000 1.0
C      1  0.5583560000000  0.4442970000000  0.5039810000000 1.0
C      1  0.5122480000000  0.5406000000000  0.4445850000000 1.0
C      1  0.4522700000000  0.4707650000000  0.4363810000000 1.0
C      1  0.4737300000000  0.4739970000000  0.4884610000000 1.0
C      1  0.4416260000000  0.5198360000000  0.4759450000000 1.0
C      1  0.5299320000000  0.5603510000000  0.5141250000000 1.0
C      1  0.4813720000000  0.4383860000000  0.5255010000000 1.0
C      1  0.4820420000000  0.5660850000000  0.4751170000000 1.0
C      1  0.5456260000000  0.5103350000000  0.5250270000000 1.0
C      1  0.5439350000000  0.5148140000000  0.4731390000000 1.0
C      1  0.4952400000000  0.5181420000000  0.4964500000000 1.0
C      1  0.4706340000000  0.4430370000000  0.4325720000000 1.0
C      1  0.4492630000000  0.5303240000000  0.5029090000000 1.0
C      1  0.4551840000000  0.5176380000000  0.5290240000000 1.0
C      1  0.5334220000000  0.5603070000000  0.4834180000000 1.0
C      1  0.5339080000000  0.4857660000000  0.4811830000000 1.0
C      1  0.5302920000000  0.4553610000000  0.4961030000000 1.0
C      1  0.5475080000000  0.5341080000000  0.5006000000000 1.0
C      1  0.4738110000000  0.5044900000000  0.4842590000000 1.0
C      1  0.5290060000000  0.4616080000000  0.5552880000000 1.0
C      1  0.5041130000000  0.5659560000000  0.5250530000000 1.0
C      1  0.4699540000000  0.4918290000000  0.4528790000000 1.0
C      1  0.5233670000000  0.4652650000000  0.4584320000000 1.0
C      1  0.5113090000000  0.5228990000000  0.5411900000000 1.0
C      1  0.5054200000000  0.4445790000000  0.4786910000000 1.0
C      1  0.5248580000000  0.5133160000000  0.5775120000000 1.0
END
