TITL C-2778422-5617-135 -0.00147457557138075 125000 -947.447941278769 0 0 162 (C1) n - 1
REM
REM in /home/nfs/bkarasulu/CARBON/AIRSS/Generating-Clusters/REBO/Only-C1/SD-CG/HFTN-CG
REM
REM
REM
REM
REM
REM ./C.cell (11c1c37f851c82e70ff6c80c92926a4b)
REM
REM compiler GCC version 9.2.1 20190827 (Red Hat 9.2.1-1)
REM options -cpp -mtune=generic -march=x86-64 -g -O0 -fpre-include=/usr/include/finclude/math-vector-fortran.h
REM seed -528881397 1645613638 -77365081 1188822479 -490313772 -1663001873 -1482434605 318840284 -427372925 -1354894247 -757137401 1975659040 -2121930806 -1322371773 -538416406 1364323778 1927615704 1135308445 -1681300784 387009150 669293971 1478062280 -1233925947 837290948 -497878513 -1234098427 1065122110 297733087 869236880 -1631331292 1511449015 -1570716952 891299284
REM
CELL 1.54180   50.00000   50.00000   50.00000   90.00000   90.00000   90.00000
LATT -1
SFAC C  
C      1  0.4702380000000  0.5007410000000  0.5281730000000 1.0
C      1  0.4956500000000  0.4660800000000  0.5076480000000 1.0
C      1  0.4919270000000  0.4056040000000  0.4542280000000 1.0
C      1  0.4886180000000  0.5847980000000  0.4992570000000 1.0
C      1  0.4450100000000  0.4351130000000  0.4177230000000 1.0
C      1  0.6064440000000  0.4756820000000  0.5280240000000 1.0
C      1  0.4515650000000  0.4640990000000  0.5728020000000 1.0
C      1  0.6030510000000  0.5016240000000  0.4909000000000 1.0
C      1  0.5729770000000  0.4793350000000  0.4242660000000 1.0
C      1  0.4256480000000  0.4930070000000  0.4889740000000 1.0
C      1  0.4066370000000  0.5359550000000  0.4646800000000 1.0
C      1  0.4447800000000  0.4826850000000  0.4212520000000 1.0
C      1  0.5417060000000  0.4674410000000  0.5455910000000 1.0
C      1  0.5491750000000  0.4603980000000  0.4943320000000 1.0
C      1  0.4441260000000  0.5480040000000  0.4274260000000 1.0
C      1  0.4417220000000  0.4951110000000  0.3932680000000 1.0
C      1  0.5785880000000  0.5369950000000  0.5694730000000 1.0
C      1  0.4557150000000  0.5291430000000  0.5654580000000 1.0
C      1  0.5304860000000  0.5290670000000  0.4815510000000 1.0
C      1  0.4954040000000  0.4309050000000  0.4770370000000 1.0
C      1  0.4750550000000  0.4674450000000  0.3993360000000 1.0
C      1  0.5540510000000  0.5083980000000  0.5277650000000 1.0
C      1  0.5250940000000  0.5370910000000  0.4012080000000 1.0
C      1  0.4939860000000  0.5193280000000  0.6126220000000 1.0
C      1  0.5412690000000  0.4347110000000  0.4325940000000 1.0
C      1  0.4830710000000  0.4006050000000  0.4896020000000 1.0
C      1  0.5568310000000  0.4314990000000  0.5544850000000 1.0
C      1  0.5900670000000  0.5314320000000  0.4516130000000 1.0
C      1  0.4316880000000  0.5896070000000  0.4879520000000 1.0
C      1  0.5257760000000  0.5441460000000  0.5672540000000 1.0
C      1  0.4966300000000  0.5692350000000  0.4503350000000 1.0
C      1  0.4666930000000  0.5345770000000  0.4090360000000 1.0
C      1  0.5043600000000  0.5086710000000  0.4827740000000 1.0
C      1  0.5423600000000  0.4827610000000  0.5154540000000 1.0
C      1  0.4198960000000  0.4530140000000  0.5342800000000 1.0
C      1  0.5140950000000  0.5144330000000  0.5287800000000 1.0
C      1  0.4847340000000  0.4987110000000  0.5576190000000 1.0
C      1  0.4791940000000  0.5868950000000  0.4415490000000 1.0
C      1  0.4891880000000  0.5675340000000  0.5746280000000 1.0
C      1  0.5386980000000  0.4789750000000  0.4626750000000 1.0
C      1  0.5541200000000  0.4220660000000  0.4572110000000 1.0
C      1  0.4694070000000  0.5247100000000  0.5894130000000 1.0
C      1  0.5119980000000  0.4604180000000  0.4716220000000 1.0
C      1  0.5814450000000  0.5551030000000  0.5427890000000 1.0
C      1  0.4367790000000  0.5355950000000  0.5074850000000 1.0
C      1  0.5231930000000  0.4940650000000  0.5485400000000 1.0
C      1  0.5388400000000  0.4313490000000  0.5003010000000 1.0
C      1  0.5204510000000  0.5867250000000  0.4891800000000 1.0
C      1  0.5376190000000  0.4107850000000  0.4773610000000 1.0
C      1  0.4894130000000  0.5452450000000  0.4693740000000 1.0
C      1  0.4225610000000  0.5658120000000  0.4684170000000 1.0
C      1  0.5106430000000  0.4366550000000  0.5052830000000 1.0
C      1  0.4486220000000  0.4301010000000  0.4675410000000 1.0
C      1  0.5503450000000  0.5318770000000  0.5518950000000 1.0
C      1  0.5556270000000  0.4196310000000  0.5223840000000 1.0
C      1  0.4598220000000  0.4064330000000  0.5139620000000 1.0
C      1  0.5798160000000  0.4385140000000  0.5059130000000 1.0
C      1  0.5712100000000  0.4723890000000  0.5612350000000 1.0
C      1  0.4806210000000  0.4303420000000  0.5156480000000 1.0
C      1  0.5131120000000  0.4892330000000  0.3964930000000 1.0
C      1  0.5084360000000  0.5302480000000  0.4486050000000 1.0
C      1  0.5582090000000  0.5359820000000  0.5969070000000 1.0
C      1  0.4580900000000  0.4192780000000  0.5458860000000 1.0
C      1  0.5910340000000  0.5592580000000  0.4571690000000 1.0
C      1  0.5373240000000  0.4900910000000  0.5780690000000 1.0
C      1  0.4407680000000  0.5107880000000  0.5268100000000 1.0
C      1  0.4291010000000  0.4571870000000  0.4262240000000 1.0
C      1  0.5002140000000  0.4446190000000  0.5804710000000 1.0
C      1  0.4392180000000  0.5994610000000  0.4562850000000 1.0
C      1  0.4602350000000  0.5693040000000  0.5611110000000 1.0
C      1  0.6036050000000  0.5195770000000  0.5136780000000 1.0
C      1  0.5626430000000  0.5182020000000  0.4774990000000 1.0
C      1  0.4578760000000  0.5911430000000  0.5390310000000 1.0
C      1  0.5122300000000  0.4061970000000  0.5469940000000 1.0
C      1  0.4845240000000  0.4995980000000  0.4565310000000 1.0
C      1  0.4911830000000  0.5533810000000  0.4981520000000 1.0
C      1  0.4399190000000  0.5026490000000  0.4439550000000 1.0
C      1  0.5542400000000  0.4528530000000  0.5811020000000 1.0
C      1  0.4153890000000  0.5014150000000  0.5474880000000 1.0
C      1  0.5356890000000  0.4009830000000  0.5397740000000 1.0
C      1  0.4118750000000  0.4364160000000  0.5057630000000 1.0
C      1  0.5060560000000  0.5811160000000  0.5556770000000 1.0
C      1  0.4595050000000  0.4239100000000  0.4399200000000 1.0
C      1  0.5272000000000  0.5694890000000  0.4431230000000 1.0
C      1  0.5213490000000  0.5907470000000  0.5204280000000 1.0
C      1  0.4369370000000  0.4177530000000  0.4922490000000 1.0
C      1  0.4741720000000  0.5097630000000  0.4958810000000 1.0
C      1  0.4317220000000  0.5607890000000  0.5674560000000 1.0
C      1  0.4129530000000  0.4567240000000  0.4478010000000 1.0
C      1  0.4618020000000  0.4614670000000  0.4674390000000 1.0
C      1  0.5126890000000  0.4906390000000  0.6092520000000 1.0
C      1  0.4412650000000  0.5724170000000  0.4411100000000 1.0
C      1  0.5768980000000  0.5021810000000  0.5501750000000 1.0
C      1  0.5299880000000  0.5169840000000  0.5963140000000 1.0
C      1  0.4242070000000  0.5298240000000  0.5575470000000 1.0
C      1  0.4682420000000  0.4856070000000  0.5811410000000 1.0
C      1  0.3982550000000  0.4978580000000  0.5181090000000 1.0
C      1  0.4914290000000  0.4317170000000  0.4357490000000 1.0
C      1  0.4340660000000  0.4806190000000  0.5192540000000 1.0
C      1  0.5320790000000  0.5088610000000  0.4540090000000 1.0
C      1  0.5902290000000  0.4704790000000  0.4985940000000 1.0
C      1  0.5882880000000  0.5431470000000  0.5175990000000 1.0
C      1  0.4743220000000  0.4693970000000  0.5318470000000 1.0
C      1  0.5464020000000  0.5837110000000  0.4673480000000 1.0
C      1  0.4920790000000  0.5461820000000  0.5919520000000 1.0
C      1  0.5091950000000  0.5169880000000  0.5690400000000 1.0
C      1  0.4930450000000  0.4660430000000  0.5566070000000 1.0
C      1  0.4679220000000  0.4386330000000  0.5707300000000 1.0
C      1  0.4178400000000  0.5570110000000  0.5369670000000 1.0
C      1  0.4368480000000  0.5384880000000  0.4782890000000 1.0
C      1  0.4519210000000  0.5172470000000  0.3871250000000 1.0
C      1  0.4774220000000  0.4806130000000  0.4290480000000 1.0
C      1  0.5648160000000  0.5071910000000  0.5797810000000 1.0
C      1  0.4542570000000  0.4943930000000  0.4724210000000 1.0
C      1  0.4672260000000  0.5378210000000  0.5138580000000 1.0
C      1  0.5252160000000  0.4633050000000  0.5932780000000 1.0
C      1  0.4517180000000  0.4489110000000  0.5358760000000 1.0
C      1  0.5144600000000  0.4622150000000  0.4029910000000 1.0
C      1  0.6015530000000  0.5072570000000  0.4629120000000 1.0
C      1  0.5167990000000  0.4394890000000  0.4198900000000 1.0
C      1  0.4279660000000  0.4727760000000  0.5583680000000 1.0
C      1  0.4896000000000  0.5965440000000  0.5314560000000 1.0
C      1  0.4675830000000  0.4517700000000  0.4966870000000 1.0
C      1  0.5870380000000  0.4341250000000  0.5389480000000 1.0
C      1  0.4134380000000  0.4637560000000  0.4766140000000 1.0
C      1  0.4313490000000  0.5797560000000  0.5206700000000 1.0
C      1  0.5583440000000  0.5031070000000  0.4179970000000 1.0
C      1  0.5585480000000  0.4595970000000  0.4450480000000 1.0
C      1  0.5291690000000  0.5627310000000  0.5381540000000 1.0
C      1  0.5906030000000  0.4830720000000  0.4481950000000 1.0
C      1  0.4862770000000  0.5193270000000  0.4298980000000 1.0
C      1  0.5711790000000  0.4452920000000  0.4734720000000 1.0
C      1  0.5610540000000  0.5741430000000  0.5427690000000 1.0
C      1  0.5664990000000  0.5460570000000  0.4947220000000 1.0
C      1  0.5355340000000  0.5087930000000  0.4020200000000 1.0
C      1  0.4381340000000  0.4567890000000  0.4991420000000 1.0
C      1  0.5722070000000  0.5683570000000  0.4751200000000 1.0
C      1  0.5043540000000  0.5417040000000  0.5273580000000 1.0
C      1  0.5963920000000  0.4591690000000  0.5485810000000 1.0
C      1  0.5350170000000  0.5563030000000  0.5925850000000 1.0
C      1  0.5484510000000  0.5405210000000  0.5194590000000 1.0
C      1  0.5704650000000  0.4852120000000  0.4748760000000 1.0
C      1  0.4617810000000  0.4434010000000  0.3958240000000 1.0
C      1  0.4875890000000  0.4596010000000  0.4505100000000 1.0
C      1  0.4793580000000  0.4898900000000  0.6064380000000 1.0
C      1  0.4612400000000  0.5331740000000  0.4655820000000 1.0
C      1  0.5140690000000  0.3957210000000  0.4762270000000 1.0
C      1  0.5251200000000  0.4426040000000  0.5568220000000 1.0
C      1  0.4433920000000  0.6251210000000  0.4476700000000 1.0
C      1  0.4281820000000  0.5280410000000  0.4406720000000 1.0
C      1  0.5169320000000  0.4839410000000  0.4957620000000 1.0
C      1  0.5270700000000  0.5570710000000  0.4752630000000 1.0
C      1  0.5608780000000  0.5218210000000  0.4430820000000 1.0
C      1  0.4957640000000  0.4346190000000  0.5422890000000 1.0
C      1  0.4970020000000  0.5190860000000  0.3999670000000 1.0
C      1  0.4066400000000  0.5308530000000  0.5212190000000 1.0
C      1  0.4746290000000  0.5436880000000  0.5439580000000 1.0
C      1  0.6036550000000  0.5028280000000  0.5362190000000 1.0
C      1  0.5323940000000  0.5583350000000  0.4156310000000 1.0
C      1  0.4053680000000  0.5170960000000  0.4904490000000 1.0
C      1  0.3982850000000  0.4680830000000  0.5066710000000 1.0
C      1  0.4594280000000  0.5926020000000  0.5056470000000 1.0
END
