TITL C-2778430-5657-1387 0.0016972961519282 125000 -680.115511441107 0 0 118 (C1) n - 1
REM
REM in /home/nfs/bkarasulu/CARBON/AIRSS/Generating-Clusters/REBO/Only-C1/SD-CG/HFTN-CG
REM
REM
REM
REM
REM
REM ./C.cell (11c1c37f851c82e70ff6c80c92926a4b)
REM
REM compiler GCC version 9.2.1 20190827 (Red Hat 9.2.1-1)
REM options -cpp -mtune=generic -march=x86-64 -g -O0 -fpre-include=/usr/include/finclude/math-vector-fortran.h
REM seed -980231448 -833176429 -1315665140 963163631 -2057055262 -1300461568 -31282989 -1226182541 1157446509 1545002339 1688247853 1396866642 -421389383 -446993098 -594198195 -1917135223 -866167033 1804659538 -217556408 46431516 -203161233 -20555263 130309254 1959371543 326848534 2042819090 445212751 741591977 -2127378630 -2100419073 -320556544 1777212887 1412313927
REM
CELL 1.54180   50.00000   50.00000   50.00000   90.00000   90.00000   90.00000
LATT -1
SFAC C  
C      1  0.5391040000000  0.5779580000000  0.5618530000000 1.0
C      1  0.5310610000000  0.4975830000000  0.5504050000000 1.0
C      1  0.5133260000000  0.4270760000000  0.4408500000000 1.0
C      1  0.4896690000000  0.5298650000000  0.4813020000000 1.0
C      1  0.5789180000000  0.5283390000000  0.4852380000000 1.0
C      1  0.5565290000000  0.5561040000000  0.5388280000000 1.0
C      1  0.5794160000000  0.5708850000000  0.4986770000000 1.0
C      1  0.4568470000000  0.4427580000000  0.5410410000000 1.0
C      1  0.4398330000000  0.5667700000000  0.4546970000000 1.0
C      1  0.4585980000000  0.4420080000000  0.5743750000000 1.0
C      1  0.5061470000000  0.4780500000000  0.4267970000000 1.0
C      1  0.4742730000000  0.4829480000000  0.5950300000000 1.0
C      1  0.5808190000000  0.4612820000000  0.5280940000000 1.0
C      1  0.5792670000000  0.5529700000000  0.5196820000000 1.0
C      1  0.4455010000000  0.5336250000000  0.5499630000000 1.0
C      1  0.5446280000000  0.5277480000000  0.5484060000000 1.0
C      1  0.4364160000000  0.4883500000000  0.4511800000000 1.0
C      1  0.5255470000000  0.4850130000000  0.6049080000000 1.0
C      1  0.5914090000000  0.5225860000000  0.5159340000000 1.0
C      1  0.4608870000000  0.4806310000000  0.4619900000000 1.0
C      1  0.4955220000000  0.5927050000000  0.5745910000000 1.0
C      1  0.4831980000000  0.5660440000000  0.5308170000000 1.0
C      1  0.4486760000000  0.4057820000000  0.5039130000000 1.0
C      1  0.5341100000000  0.5596170000000  0.4704420000000 1.0
C      1  0.4130080000000  0.4486530000000  0.4960710000000 1.0
C      1  0.5464520000000  0.5451590000000  0.4111310000000 1.0
C      1  0.4866960000000  0.4904440000000  0.4478140000000 1.0
C      1  0.4309370000000  0.4881790000000  0.5646060000000 1.0
C      1  0.4806170000000  0.4563760000000  0.5857050000000 1.0
C      1  0.4535490000000  0.5587220000000  0.5565070000000 1.0
C      1  0.5776850000000  0.4435090000000  0.4992040000000 1.0
C      1  0.5499390000000  0.4754640000000  0.5663210000000 1.0
C      1  0.4774730000000  0.4118400000000  0.4684360000000 1.0
C      1  0.5831130000000  0.4918470000000  0.4634030000000 1.0
C      1  0.5212300000000  0.4477300000000  0.4865190000000 1.0
C      1  0.5347350000000  0.5171390000000  0.4572450000000 1.0
C      1  0.4550400000000  0.4950710000000  0.5780910000000 1.0
C      1  0.4853770000000  0.4216950000000  0.4427160000000 1.0
C      1  0.4266150000000  0.5092640000000  0.5446520000000 1.0
C      1  0.5345850000000  0.4565510000000  0.5783140000000 1.0
C      1  0.5948940000000  0.4899210000000  0.5159600000000 1.0
C      1  0.5117970000000  0.4984610000000  0.4001780000000 1.0
C      1  0.5662160000000  0.5512330000000  0.4664530000000 1.0
C      1  0.4629260000000  0.4443620000000  0.4950990000000 1.0
C      1  0.4222910000000  0.5491970000000  0.4860130000000 1.0
C      1  0.4400190000000  0.4694260000000  0.5305610000000 1.0
C      1  0.4253160000000  0.5326460000000  0.4336300000000 1.0
C      1  0.4598080000000  0.5365970000000  0.4913590000000 1.0
C      1  0.4607250000000  0.5589630000000  0.5153520000000 1.0
C      1  0.5690990000000  0.4836980000000  0.5454400000000 1.0
C      1  0.5233220000000  0.4487820000000  0.4239070000000 1.0
C      1  0.5041970000000  0.5065850000000  0.5097960000000 1.0
C      1  0.4410700000000  0.4194660000000  0.4231640000000 1.0
C      1  0.5525930000000  0.5206850000000  0.4283810000000 1.0
C      1  0.5401190000000  0.4955890000000  0.4150920000000 1.0
C      1  0.4809430000000  0.4993770000000  0.5293200000000 1.0
C      1  0.5739790000000  0.5225330000000  0.4519600000000 1.0
C      1  0.5040730000000  0.5437320000000  0.5744550000000 1.0
C      1  0.5363890000000  0.5800030000000  0.5302840000000 1.0
C      1  0.4991550000000  0.4972720000000  0.4771440000000 1.0
C      1  0.5086100000000  0.5699860000000  0.5158790000000 1.0
C      1  0.5451000000000  0.4703390000000  0.4293380000000 1.0
C      1  0.5313860000000  0.4290070000000  0.5301860000000 1.0
C      1  0.5640680000000  0.5097140000000  0.5316020000000 1.0
C      1  0.4616460000000  0.5518520000000  0.4631560000000 1.0
C      1  0.5058770000000  0.4549720000000  0.5669910000000 1.0
C      1  0.4837570000000  0.5485950000000  0.4464590000000 1.0
C      1  0.5223110000000  0.4020080000000  0.5322700000000 1.0
C      1  0.5277040000000  0.5215990000000  0.4902980000000 1.0
C      1  0.4162550000000  0.5330700000000  0.4608210000000 1.0
C      1  0.5129250000000  0.4181160000000  0.4930390000000 1.0
C      1  0.5569720000000  0.4373170000000  0.5236160000000 1.0
C      1  0.5585740000000  0.5817440000000  0.4765080000000 1.0
C      1  0.5501020000000  0.4859850000000  0.4848520000000 1.0
C      1  0.5049170000000  0.4566220000000  0.3988430000000 1.0
C      1  0.4971520000000  0.5282670000000  0.6028810000000 1.0
C      1  0.4822820000000  0.4814220000000  0.3951050000000 1.0
C      1  0.4204870000000  0.5018200000000  0.5179030000000 1.0
C      1  0.5186950000000  0.4947470000000  0.5819790000000 1.0
C      1  0.5222950000000  0.4764570000000  0.4916630000000 1.0
C      1  0.5009720000000  0.5282740000000  0.4044240000000 1.0
C      1  0.4853050000000  0.5658410000000  0.5630160000000 1.0
C      1  0.5493960000000  0.5428530000000  0.5975380000000 1.0
C      1  0.4808360000000  0.4379740000000  0.5222260000000 1.0
C      1  0.5080710000000  0.4499370000000  0.5344110000000 1.0
C      1  0.4676420000000  0.5130510000000  0.5566380000000 1.0
C      1  0.5561260000000  0.6106030000000  0.4702270000000 1.0
C      1  0.5204880000000  0.5970210000000  0.5754650000000 1.0
C      1  0.4728630000000  0.4497740000000  0.4037100000000 1.0
C      1  0.4351330000000  0.5679300000000  0.5025300000000 1.0
C      1  0.4168780000000  0.5013730000000  0.4705050000000 1.0
C      1  0.4318300000000  0.4569000000000  0.5604630000000 1.0
C      1  0.4148510000000  0.4720940000000  0.5120320000000 1.0
C      1  0.5115220000000  0.5394180000000  0.4570500000000 1.0
C      1  0.5239230000000  0.5469330000000  0.3997900000000 1.0
C      1  0.5812470000000  0.4746300000000  0.4906040000000 1.0
C      1  0.5130950000000  0.5507230000000  0.4949410000000 1.0
C      1  0.4985420000000  0.3906090000000  0.5237700000000 1.0
C      1  0.4355650000000  0.4310530000000  0.4947110000000 1.0
C      1  0.4770580000000  0.5038580000000  0.4180710000000 1.0
C      1  0.4635530000000  0.4722970000000  0.4889510000000 1.0
C      1  0.5179080000000  0.4805850000000  0.5251680000000 1.0
C      1  0.5267340000000  0.4245260000000  0.4652980000000 1.0
C      1  0.4927560000000  0.4824230000000  0.5555440000000 1.0
C      1  0.3936260000000  0.4874290000000  0.4764870000000 1.0
C      1  0.5521550000000  0.4890770000000  0.4526770000000 1.0
C      1  0.4820020000000  0.4099900000000  0.5023300000000 1.0
C      1  0.4315150000000  0.5178520000000  0.4942730000000 1.0
C      1  0.4526100000000  0.5273230000000  0.4144980000000 1.0
C      1  0.5344500000000  0.5482620000000  0.5711910000000 1.0
C      1  0.4981760000000  0.5146770000000  0.5653770000000 1.0
C      1  0.5561310000000  0.5125770000000  0.5006620000000 1.0
C      1  0.4346730000000  0.5025870000000  0.4268600000000 1.0
C      1  0.4594740000000  0.4857910000000  0.5138350000000 1.0
C      1  0.4662220000000  0.4300850000000  0.4226680000000 1.0
C      1  0.5212540000000  0.6013890000000  0.5116680000000 1.0
C      1  0.4788050000000  0.5431950000000  0.4191830000000 1.0
C      1  0.4898090000000  0.5025750000000  0.6085180000000 1.0
END
