TITL C-2778437-8639-741 0.0898708915783509 125000 -663.434082832821 0 0 113 (C1) n - 1
REM
REM in /home/nfs/bkarasulu/CARBON/AIRSS/Generating-Clusters/REBO/Only-C1/SD-CG/HFTN-CG
REM
REM
REM
REM
REM
REM ./C.cell (11c1c37f851c82e70ff6c80c92926a4b)
REM
REM compiler GCC version 9.2.1 20190827 (Red Hat 9.2.1-1)
REM options -cpp -mtune=generic -march=x86-64 -g -O0 -fpre-include=/usr/include/finclude/math-vector-fortran.h
REM seed -1956568828 -2026002529 -127303944 354741478 1065720251 1115187350 -709215482 1501866597 -1210399808 -997698627 -1761462050 258257045 -2030782683 353868572 -524954079 -1536686746 534027130 795034980 1321378123 -814405803 126689010 2001101046 -1434702904 965206078 1941313989 -1630098172 -1121083794 -2047829985 865718756 932886009 1361406606 1770451359 -443275114
REM
CELL 1.54180   50.00000   50.00000   50.00000   90.00000   90.00000   90.00000
LATT -1
SFAC C  
C      1  0.5007570000000  0.4051680000000  0.5488750000000 1.0
C      1  0.4503930000000  0.4873970000000  0.4944400000000 1.0
C      1  0.4786170000000  0.5015050000000  0.4077040000000 1.0
C      1  0.5216230000000  0.5200810000000  0.4919110000000 1.0
C      1  0.4285370000000  0.5342290000000  0.5456190000000 1.0
C      1  0.5720990000000  0.4457230000000  0.5006100000000 1.0
C      1  0.4204990000000  0.4804140000000  0.4251550000000 1.0
C      1  0.4880590000000  0.5598810000000  0.4914410000000 1.0
C      1  0.5212870000000  0.5768330000000  0.5461140000000 1.0
C      1  0.5415890000000  0.5372210000000  0.4318740000000 1.0
C      1  0.5376840000000  0.4072400000000  0.4697790000000 1.0
C      1  0.5588470000000  0.4513670000000  0.4736130000000 1.0
C      1  0.5263120000000  0.4612930000000  0.4697230000000 1.0
C      1  0.5088060000000  0.5201120000000  0.5886580000000 1.0
C      1  0.4396850000000  0.4384700000000  0.5579990000000 1.0
C      1  0.4437470000000  0.4446470000000  0.5056830000000 1.0
C      1  0.5228540000000  0.6056870000000  0.4555390000000 1.0
C      1  0.5231210000000  0.5084220000000  0.4383380000000 1.0
C      1  0.4483180000000  0.4581590000000  0.4525030000000 1.0
C      1  0.5039620000000  0.5466080000000  0.5163880000000 1.0
C      1  0.4649210000000  0.5330080000000  0.5692500000000 1.0
C      1  0.5526590000000  0.4314260000000  0.5407820000000 1.0
C      1  0.5235130000000  0.4714220000000  0.5355900000000 1.0
C      1  0.5070030000000  0.4765860000000  0.5057940000000 1.0
C      1  0.5489650000000  0.5820800000000  0.4970760000000 1.0
C      1  0.4840170000000  0.5933580000000  0.4875040000000 1.0
C      1  0.4914880000000  0.4402310000000  0.5079430000000 1.0
C      1  0.5291380000000  0.5324770000000  0.4694950000000 1.0
C      1  0.5539250000000  0.4971980000000  0.5002840000000 1.0
C      1  0.4915360000000  0.5397780000000  0.5779900000000 1.0
C      1  0.4660220000000  0.5295370000000  0.4176440000000 1.0
C      1  0.5066710000000  0.4416110000000  0.4782600000000 1.0
C      1  0.5626710000000  0.4767510000000  0.4559450000000 1.0
C      1  0.5175280000000  0.4847770000000  0.4571390000000 1.0
C      1  0.4656780000000  0.5740500000000  0.4694650000000 1.0
C      1  0.4848080000000  0.4681170000000  0.5268370000000 1.0
C      1  0.5143270000000  0.4525920000000  0.5601630000000 1.0
C      1  0.4364830000000  0.5727620000000  0.4805790000000 1.0
C      1  0.4632980000000  0.5604290000000  0.4426320000000 1.0
C      1  0.5916950000000  0.4890730000000  0.5105950000000 1.0
C      1  0.4736930000000  0.4651560000000  0.4447270000000 1.0
C      1  0.4494880000000  0.4140760000000  0.5525880000000 1.0
C      1  0.4406480000000  0.4709770000000  0.5478960000000 1.0
C      1  0.4740310000000  0.4863280000000  0.5772560000000 1.0
C      1  0.4335790000000  0.5552840000000  0.5280810000000 1.0
C      1  0.5589870000000  0.5315630000000  0.4997160000000 1.0
C      1  0.5403850000000  0.5874580000000  0.4452450000000 1.0
C      1  0.4525770000000  0.5081140000000  0.5740900000000 1.0
C      1  0.4816270000000  0.5372710000000  0.4694000000000 1.0
C      1  0.5390940000000  0.4727530000000  0.5720060000000 1.0
C      1  0.5183610000000  0.4722230000000  0.4180010000000 1.0
C      1  0.5545370000000  0.5227940000000  0.4584660000000 1.0
C      1  0.5375730000000  0.5429710000000  0.5209740000000 1.0
C      1  0.4191350000000  0.4654860000000  0.5058260000000 1.0
C      1  0.4632200000000  0.5029270000000  0.4377560000000 1.0
C      1  0.5092220000000  0.5016680000000  0.4084360000000 1.0
C      1  0.5471800000000  0.5680200000000  0.5382300000000 1.0
C      1  0.4554080000000  0.4712790000000  0.5210860000000 1.0
C      1  0.5390780000000  0.4671470000000  0.5067270000000 1.0
C      1  0.4398300000000  0.5455840000000  0.4451720000000 1.0
C      1  0.5219980000000  0.4269300000000  0.5451270000000 1.0
C      1  0.5501850000000  0.5619560000000  0.4528140000000 1.0
C      1  0.4620750000000  0.5694060000000  0.5296780000000 1.0
C      1  0.5610040000000  0.4230570000000  0.5142190000000 1.0
C      1  0.4644650000000  0.4261540000000  0.5046710000000 1.0
C      1  0.4256660000000  0.5489800000000  0.4991610000000 1.0
C      1  0.5765350000000  0.4668540000000  0.5207250000000 1.0
C      1  0.4627550000000  0.3990880000000  0.4999510000000 1.0
C      1  0.4273000000000  0.5360440000000  0.4676890000000 1.0
C      1  0.4290530000000  0.5008250000000  0.5518500000000 1.0
C      1  0.4890700000000  0.5498510000000  0.4249130000000 1.0
C      1  0.5526930000000  0.4994260000000  0.5810850000000 1.0
C      1  0.5103250000000  0.6064180000000  0.4806250000000 1.0
C      1  0.5095090000000  0.5936560000000  0.5267500000000 1.0
C      1  0.5436380000000  0.4969220000000  0.5327350000000 1.0
C      1  0.4982520000000  0.4265260000000  0.4330680000000 1.0
C      1  0.5349460000000  0.4447690000000  0.4310060000000 1.0
C      1  0.5032710000000  0.5524120000000  0.5502370000000 1.0
C      1  0.5160570000000  0.5350470000000  0.4108260000000 1.0
C      1  0.4349440000000  0.4944090000000  0.4421690000000 1.0
C      1  0.5564600000000  0.5589810000000  0.4811620000000 1.0
C      1  0.4592480000000  0.4588650000000  0.5739620000000 1.0
C      1  0.4678570000000  0.5381070000000  0.5385740000000 1.0
C      1  0.5085820000000  0.4876960000000  0.5781480000000 1.0
C      1  0.5442750000000  0.4296390000000  0.4535240000000 1.0
C      1  0.4901510000000  0.4500720000000  0.5740110000000 1.0
C      1  0.4958110000000  0.5191480000000  0.5440650000000 1.0
C      1  0.4522830000000  0.5227320000000  0.5145140000000 1.0
C      1  0.4907640000000  0.4891630000000  0.5496120000000 1.0
C      1  0.4852430000000  0.4911490000000  0.4600870000000 1.0
C      1  0.4226770000000  0.5151580000000  0.5010940000000 1.0
C      1  0.5487840000000  0.4732340000000  0.4317260000000 1.0
C      1  0.4982440000000  0.4985400000000  0.4892310000000 1.0
C      1  0.5733450000000  0.5070890000000  0.5409970000000 1.0
C      1  0.5634450000000  0.5000730000000  0.4706080000000 1.0
C      1  0.4932410000000  0.4538300000000  0.4275570000000 1.0
C      1  0.5344480000000  0.5201870000000  0.5744090000000 1.0
C      1  0.4739670000000  0.4024160000000  0.5502080000000 1.0
C      1  0.5282780000000  0.5220600000000  0.5431760000000 1.0
C      1  0.5013070000000  0.4204650000000  0.4598620000000 1.0
C      1  0.5381530000000  0.4112740000000  0.4977370000000 1.0
C      1  0.5777370000000  0.5034940000000  0.5684230000000 1.0
C      1  0.5596580000000  0.4597340000000  0.5478100000000 1.0
C      1  0.5844310000000  0.5180210000000  0.5151900000000 1.0
C      1  0.5055470000000  0.5357190000000  0.4490910000000 1.0
C      1  0.4236370000000  0.5042160000000  0.4701150000000 1.0
C      1  0.4622890000000  0.5146940000000  0.4827180000000 1.0
C      1  0.5266090000000  0.5991320000000  0.5034120000000 1.0
C      1  0.4850130000000  0.5229810000000  0.5061870000000 1.0
C      1  0.4184960000000  0.4907400000000  0.5211230000000 1.0
C      1  0.4305160000000  0.4712300000000  0.4742940000000 1.0
C      1  0.5237600000000  0.4372390000000  0.5138360000000 1.0
C      1  0.4812090000000  0.5873960000000  0.5196190000000 1.0
END
