TITL C-2778434-4341-1362 0.000410252172075104 125000 -549.963889438342 0 0 95 (C1) n - 1
REM
REM in /home/nfs/bkarasulu/CARBON/AIRSS/Generating-Clusters/REBO/Only-C1/SD-CG/HFTN-CG
REM
REM
REM
REM
REM
REM ./C.cell (11c1c37f851c82e70ff6c80c92926a4b)
REM
REM compiler GCC version 9.2.1 20190827 (Red Hat 9.2.1-1)
REM options -cpp -mtune=generic -march=x86-64 -g -O0 -fpre-include=/usr/include/finclude/math-vector-fortran.h
REM seed 1570608520 1652452844 -1896390006 -146551377 1343535639 1765880508 72662337 -1861526097 -1176619974 -1096270328 1339892627 1283660295 -1925096152 -1744220360 -356823675 1922704863 1512308756 1716989164 -924031025 1597545659 -2027568292 330637885 1683468771 -1563016596 -918293881 -258159603 1134904017 1792471197 6614149 -654333813 1908854281 67042383 -866619322
REM
CELL 1.54180   50.00000   50.00000   50.00000   90.00000   90.00000   90.00000
LATT -1
SFAC C  
C      1  0.4755550000000  0.4644720000000  0.5716970000000 1.0
C      1  0.4914920000000  0.5125310000000  0.5781430000000 1.0
C      1  0.4171010000000  0.5254140000000  0.5055990000000 1.0
C      1  0.5493570000000  0.4584190000000  0.4713070000000 1.0
C      1  0.4284700000000  0.5166690000000  0.5355140000000 1.0
C      1  0.5883730000000  0.5349430000000  0.4725580000000 1.0
C      1  0.4947410000000  0.5153260000000  0.4231100000000 1.0
C      1  0.5631240000000  0.5082800000000  0.5474460000000 1.0
C      1  0.4429040000000  0.5558450000000  0.4917500000000 1.0
C      1  0.4190020000000  0.4911280000000  0.5064300000000 1.0
C      1  0.4430030000000  0.4619770000000  0.4605740000000 1.0
C      1  0.5842150000000  0.5064050000000  0.4730280000000 1.0
C      1  0.4342850000000  0.5183250000000  0.4815370000000 1.0
C      1  0.4978530000000  0.4479950000000  0.5719490000000 1.0
C      1  0.4849910000000  0.5431200000000  0.4311650000000 1.0
C      1  0.4733140000000  0.5154230000000  0.5504660000000 1.0
C      1  0.5148830000000  0.5625510000000  0.5531960000000 1.0
C      1  0.5729020000000  0.4950690000000  0.4492560000000 1.0
C      1  0.4390480000000  0.4747990000000  0.5601710000000 1.0
C      1  0.4652780000000  0.5303310000000  0.4890880000000 1.0
C      1  0.5734790000000  0.5532330000000  0.4864520000000 1.0
C      1  0.4694700000000  0.5659970000000  0.5587890000000 1.0
C      1  0.5379170000000  0.4612250000000  0.4412420000000 1.0
C      1  0.5259050000000  0.4621490000000  0.5722200000000 1.0
C      1  0.4348390000000  0.4510190000000  0.5360640000000 1.0
C      1  0.5751170000000  0.5128070000000  0.5207600000000 1.0
C      1  0.5096000000000  0.4985920000000  0.4555400000000 1.0
C      1  0.4485160000000  0.5185910000000  0.4518810000000 1.0
C      1  0.5815250000000  0.4669220000000  0.5058570000000 1.0
C      1  0.5675590000000  0.4448010000000  0.4875230000000 1.0
C      1  0.5059370000000  0.4415060000000  0.5444810000000 1.0
C      1  0.4576150000000  0.4739820000000  0.4318800000000 1.0
C      1  0.4248290000000  0.4458750000000  0.5071370000000 1.0
C      1  0.5508740000000  0.4883220000000  0.4341630000000 1.0
C      1  0.5273170000000  0.5660920000000  0.4502230000000 1.0
C      1  0.5480860000000  0.4498940000000  0.5495000000000 1.0
C      1  0.5053050000000  0.4451480000000  0.5046690000000 1.0
C      1  0.5430830000000  0.5348820000000  0.5546180000000 1.0
C      1  0.5098800000000  0.4677500000000  0.5274120000000 1.0
C      1  0.5418460000000  0.4815750000000  0.4853400000000 1.0
C      1  0.4957890000000  0.4960570000000  0.5032340000000 1.0
C      1  0.4888280000000  0.4551950000000  0.4778870000000 1.0
C      1  0.4824520000000  0.4211870000000  0.5112410000000 1.0
C      1  0.5279410000000  0.5104760000000  0.4292670000000 1.0
C      1  0.4358110000000  0.5474650000000  0.5236720000000 1.0
C      1  0.4600760000000  0.4402520000000  0.5250150000000 1.0
C      1  0.4589500000000  0.5441380000000  0.4445220000000 1.0
C      1  0.5016530000000  0.5865620000000  0.5455010000000 1.0
C      1  0.5054870000000  0.4663870000000  0.4323610000000 1.0
C      1  0.5423400000000  0.5289810000000  0.4835130000000 1.0
C      1  0.5826830000000  0.4947560000000  0.5002090000000 1.0
C      1  0.4597760000000  0.4908420000000  0.4678790000000 1.0
C      1  0.4994330000000  0.5670340000000  0.4451110000000 1.0
C      1  0.4403560000000  0.4352190000000  0.4810670000000 1.0
C      1  0.4166460000000  0.4671280000000  0.4821190000000 1.0
C      1  0.4846820000000  0.4846870000000  0.4268050000000 1.0
C      1  0.4657620000000  0.4209240000000  0.4828840000000 1.0
C      1  0.4934050000000  0.5395790000000  0.4761750000000 1.0
C      1  0.4847450000000  0.4278090000000  0.4599370000000 1.0
C      1  0.5637750000000  0.4424900000000  0.5210020000000 1.0
C      1  0.5421100000000  0.5615010000000  0.4785150000000 1.0
C      1  0.5015190000000  0.4970770000000  0.5428020000000 1.0
C      1  0.5393620000000  0.5046300000000  0.4687610000000 1.0
C      1  0.4678700000000  0.4755420000000  0.5420650000000 1.0
C      1  0.5270420000000  0.5735520000000  0.5029620000000 1.0
C      1  0.5387040000000  0.4227980000000  0.5314830000000 1.0
C      1  0.5642620000000  0.5424910000000  0.5140570000000 1.0
C      1  0.4903860000000  0.4863570000000  0.4736680000000 1.0
C      1  0.4672070000000  0.4565670000000  0.5008600000000 1.0
C      1  0.5138630000000  0.4396430000000  0.4508700000000 1.0
C      1  0.5092280000000  0.5958090000000  0.5203970000000 1.0
C      1  0.4700580000000  0.4912720000000  0.5191530000000 1.0
C      1  0.5175260000000  0.4931990000000  0.5720720000000 1.0
C      1  0.5283150000000  0.4898570000000  0.5116150000000 1.0
C      1  0.5677470000000  0.5392300000000  0.4386900000000 1.0
C      1  0.4201920000000  0.4891520000000  0.5400090000000 1.0
C      1  0.5212150000000  0.4322470000000  0.4818020000000 1.0
C      1  0.4564580000000  0.5645150000000  0.4654130000000 1.0
C      1  0.5402590000000  0.5377730000000  0.4418580000000 1.0
C      1  0.4644690000000  0.5433160000000  0.5388910000000 1.0
C      1  0.5369020000000  0.5222300000000  0.5141650000000 1.0
C      1  0.4827480000000  0.5769370000000  0.4676930000000 1.0
C      1  0.5111100000000  0.5307950000000  0.4587450000000 1.0
C      1  0.5126170000000  0.5365320000000  0.5699710000000 1.0
C      1  0.4843290000000  0.5421420000000  0.5148660000000 1.0
C      1  0.5439240000000  0.5092910000000  0.5753450000000 1.0
C      1  0.5063610000000  0.5217530000000  0.5209860000000 1.0
C      1  0.4488920000000  0.4845780000000  0.4974710000000 1.0
C      1  0.5096750000000  0.4149490000000  0.5301320000000 1.0
C      1  0.4200940000000  0.4942280000000  0.4645680000000 1.0
C      1  0.4618640000000  0.4953970000000  0.5755880000000 1.0
C      1  0.5395710000000  0.5583420000000  0.5306830000000 1.0
C      1  0.4964980000000  0.5673600000000  0.4955670000000 1.0
C      1  0.4347210000000  0.4929400000000  0.4368480000000 1.0
C      1  0.5537220000000  0.4794470000000  0.5622920000000 1.0
END
