TITL C-2778432-5617-699 0.00319463103004455 125000 -619.290374373907 0 0 105 (C1) n - 1
REM
REM in /home/nfs/bkarasulu/CARBON/AIRSS/Generating-Clusters/REBO/Only-C1/SD-CG/HFTN-CG
REM
REM
REM
REM
REM
REM ./C.cell (11c1c37f851c82e70ff6c80c92926a4b)
REM
REM compiler GCC version 9.2.1 20190827 (Red Hat 9.2.1-1)
REM options -cpp -mtune=generic -march=x86-64 -g -O0 -fpre-include=/usr/include/finclude/math-vector-fortran.h
REM seed 41630021 949863240 1802672164 -1963421865 -1559498826 -683605872 1967307707 -1681064863 46928576 976497829 -1068480106 -611616139 -1095692954 -838979393 -998816917 647867537 -1430162408 -1512679273 1777927172 661511748 1386060338 -1243592560 -454631018 -1192099148 310180359 594150463 -1415914288 -201131912 119114924 325958882 -981246251 1636560896 736905405
REM
CELL 1.54180   50.00000   50.00000   50.00000   90.00000   90.00000   90.00000
LATT -1
SFAC C  
C      1  0.4512640000000  0.5633510000000  0.5137940000000 1.0
C      1  0.5110880000000  0.5964140000000  0.5050250000000 1.0
C      1  0.5331350000000  0.5909870000000  0.5218070000000 1.0
C      1  0.5102800000000  0.4949050000000  0.5859110000000 1.0
C      1  0.5780020000000  0.5771870000000  0.5201000000000 1.0
C      1  0.3716800000000  0.4966520000000  0.5419160000000 1.0
C      1  0.4732720000000  0.3971980000000  0.4821030000000 1.0
C      1  0.4427780000000  0.4385670000000  0.5150230000000 1.0
C      1  0.4573190000000  0.4737140000000  0.4801700000000 1.0
C      1  0.4433150000000  0.5707920000000  0.4885180000000 1.0
C      1  0.4305490000000  0.4566580000000  0.5530870000000 1.0
C      1  0.4578400000000  0.5209230000000  0.4753420000000 1.0
C      1  0.4896100000000  0.5422150000000  0.6057870000000 1.0
C      1  0.4609980000000  0.4084980000000  0.4309780000000 1.0
C      1  0.5294880000000  0.5672100000000  0.5441740000000 1.0
C      1  0.4870210000000  0.5974240000000  0.5619990000000 1.0
C      1  0.4350570000000  0.5430550000000  0.5254930000000 1.0
C      1  0.4819800000000  0.5085580000000  0.4794780000000 1.0
C      1  0.5889810000000  0.5317260000000  0.5147440000000 1.0
C      1  0.4595930000000  0.5461850000000  0.4445520000000 1.0
C      1  0.5412560000000  0.4821980000000  0.4948290000000 1.0
C      1  0.5701320000000  0.4531800000000  0.4925920000000 1.0
C      1  0.4852270000000  0.5260600000000  0.5594180000000 1.0
C      1  0.5637620000000  0.4601890000000  0.5404440000000 1.0
C      1  0.4342930000000  0.4669920000000  0.4990800000000 1.0
C      1  0.4191490000000  0.5254030000000  0.4837270000000 1.0
C      1  0.5572590000000  0.5910880000000  0.5071650000000 1.0
C      1  0.5419700000000  0.5631860000000  0.4280750000000 1.0
C      1  0.5529150000000  0.5911400000000  0.4788790000000 1.0
C      1  0.4535820000000  0.4548960000000  0.5682590000000 1.0
C      1  0.4839870000000  0.5312800000000  0.5310100000000 1.0
C      1  0.5304350000000  0.5326700000000  0.4645490000000 1.0
C      1  0.5174990000000  0.4319850000000  0.4329060000000 1.0
C      1  0.5309070000000  0.5133950000000  0.5424170000000 1.0
C      1  0.5599900000000  0.5146070000000  0.5589520000000 1.0
C      1  0.5544580000000  0.5013870000000  0.5104650000000 1.0
C      1  0.5584100000000  0.5446300000000  0.4592410000000 1.0
C      1  0.4199000000000  0.4815600000000  0.5433860000000 1.0
C      1  0.4979900000000  0.5735280000000  0.4943540000000 1.0
C      1  0.5424750000000  0.4416270000000  0.5334840000000 1.0
C      1  0.3911670000000  0.4782970000000  0.5386380000000 1.0
C      1  0.5296210000000  0.4185510000000  0.4901280000000 1.0
C      1  0.4929440000000  0.4325280000000  0.4564570000000 1.0
C      1  0.4834690000000  0.4572920000000  0.4683540000000 1.0
C      1  0.4106710000000  0.4439150000000  0.5044490000000 1.0
C      1  0.5252890000000  0.5043970000000  0.4527570000000 1.0
C      1  0.5182490000000  0.4654020000000  0.5104200000000 1.0
C      1  0.4463250000000  0.4993570000000  0.4378420000000 1.0
C      1  0.6166760000000  0.5158160000000  0.5056520000000 1.0
C      1  0.5728900000000  0.4834070000000  0.4490600000000 1.0
C      1  0.4718810000000  0.4342110000000  0.5127520000000 1.0
C      1  0.5224750000000  0.4204640000000  0.4635300000000 1.0
C      1  0.4622990000000  0.4314490000000  0.5789170000000 1.0
C      1  0.4842170000000  0.4094270000000  0.5059340000000 1.0
C      1  0.4934490000000  0.4964890000000  0.4184060000000 1.0
C      1  0.4707540000000  0.4253100000000  0.4110630000000 1.0
C      1  0.4355280000000  0.4927390000000  0.5192960000000 1.0
C      1  0.5425620000000  0.4429870000000  0.5013280000000 1.0
C      1  0.5027400000000  0.4719030000000  0.4082490000000 1.0
C      1  0.5508450000000  0.5141300000000  0.4355740000000 1.0
C      1  0.5059360000000  0.5664400000000  0.4679230000000 1.0
C      1  0.5275920000000  0.4599290000000  0.4215850000000 1.0
C      1  0.5379890000000  0.4800420000000  0.4676630000000 1.0
C      1  0.4902800000000  0.5084900000000  0.5121030000000 1.0
C      1  0.5825170000000  0.4632000000000  0.5158980000000 1.0
C      1  0.5464070000000  0.4749180000000  0.4361130000000 1.0
C      1  0.5058300000000  0.5701080000000  0.5681530000000 1.0
C      1  0.4858800000000  0.4995970000000  0.5718350000000 1.0
C      1  0.4680160000000  0.4832610000000  0.4518650000000 1.0
C      1  0.5246970000000  0.5365450000000  0.4917270000000 1.0
C      1  0.5448070000000  0.5275480000000  0.5078510000000 1.0
C      1  0.4935210000000  0.4419930000000  0.4115710000000 1.0
C      1  0.5748350000000  0.5147360000000  0.4599850000000 1.0
C      1  0.5694660000000  0.4937050000000  0.5376160000000 1.0
C      1  0.5799210000000  0.4634570000000  0.4683160000000 1.0
C      1  0.4264000000000  0.5204100000000  0.5106340000000 1.0
C      1  0.4682060000000  0.4784380000000  0.5704630000000 1.0
C      1  0.5742900000000  0.5503610000000  0.5279440000000 1.0
C      1  0.4675680000000  0.4863190000000  0.5094350000000 1.0
C      1  0.5228260000000  0.4204400000000  0.5379790000000 1.0
C      1  0.4066810000000  0.5071900000000  0.4663600000000 1.0
C      1  0.3889970000000  0.4512710000000  0.5287040000000 1.0
C      1  0.5140840000000  0.4122050000000  0.5622810000000 1.0
C      1  0.4809180000000  0.5593750000000  0.5180880000000 1.0
C      1  0.5163440000000  0.4963350000000  0.5223880000000 1.0
C      1  0.4973720000000  0.5772670000000  0.5371490000000 1.0
C      1  0.4926720000000  0.5459870000000  0.5785070000000 1.0
C      1  0.5371750000000  0.5715800000000  0.4596280000000 1.0
C      1  0.5481550000000  0.5431500000000  0.5440720000000 1.0
C      1  0.5127720000000  0.4093520000000  0.5120340000000 1.0
C      1  0.4867140000000  0.5386470000000  0.6315880000000 1.0
C      1  0.4966520000000  0.4994210000000  0.4502550000000 1.0
C      1  0.4729580000000  0.4100380000000  0.4566600000000 1.0
C      1  0.4775450000000  0.5176130000000  0.4083950000000 1.0
C      1  0.5885240000000  0.5128070000000  0.4861870000000 1.0
C      1  0.4384940000000  0.5472410000000  0.4691300000000 1.0
C      1  0.5478600000000  0.5373200000000  0.4210730000000 1.0
C      1  0.4563910000000  0.5241050000000  0.4264400000000 1.0
C      1  0.5331500000000  0.5023010000000  0.5744920000000 1.0
C      1  0.4167970000000  0.4329130000000  0.5364800000000 1.0
C      1  0.4195250000000  0.4957120000000  0.4451280000000 1.0
C      1  0.4873650000000  0.4595240000000  0.5021310000000 1.0
C      1  0.4743400000000  0.6180750000000  0.5701660000000 1.0
C      1  0.5932890000000  0.4923080000000  0.5132730000000 1.0
C      1  0.4853420000000  0.5570340000000  0.4506980000000 1.0
END
