TITL C-2778424-3986-755 -0.0019322009807271 125000 -759.909757757134 0 0 131 (C1) n - 1
REM
REM in /home/nfs/bkarasulu/CARBON/AIRSS/Generating-Clusters/REBO/Only-C1/SD-CG/HFTN-CG
REM
REM
REM
REM
REM
REM ./C.cell (11c1c37f851c82e70ff6c80c92926a4b)
REM
REM compiler GCC version 9.2.1 20190827 (Red Hat 9.2.1-1)
REM options -cpp -mtune=generic -march=x86-64 -g -O0 -fpre-include=/usr/include/finclude/math-vector-fortran.h
REM seed -541863381 273675447 -322087336 499759670 -113043522 1952945742 443515735 -1838823773 891767770 659588743 -456270201 830588274 486122057 1128387643 -1975750579 1484487369 923198957 -524562927 -2110477233 68319095 409468091 -98514048 -770687596 1998801665 -1332712186 2058393318 -1399659415 -745288250 2049248029 -100878670 765240651 -2018503856 807702117
REM
CELL 1.54180   50.00000   50.00000   50.00000   90.00000   90.00000   90.00000
LATT -1
SFAC C  
C      1  0.4626860000000  0.5377410000000  0.5804960000000 1.0
C      1  0.5182940000000  0.5106740000000  0.4602000000000 1.0
C      1  0.4490070000000  0.4496250000000  0.5143020000000 1.0
C      1  0.4441500000000  0.4652120000000  0.4275960000000 1.0
C      1  0.4615790000000  0.5212540000000  0.4489400000000 1.0
C      1  0.4582070000000  0.4755840000000  0.4793690000000 1.0
C      1  0.4539280000000  0.4149710000000  0.4950850000000 1.0
C      1  0.4716210000000  0.4011300000000  0.4779260000000 1.0
C      1  0.5114860000000  0.4099770000000  0.5477520000000 1.0
C      1  0.5445460000000  0.5704380000000  0.4488540000000 1.0
C      1  0.4896020000000  0.4393010000000  0.4750610000000 1.0
C      1  0.5724150000000  0.4881110000000  0.5416140000000 1.0
C      1  0.4184280000000  0.4686190000000  0.4429710000000 1.0
C      1  0.5754060000000  0.4303420000000  0.5340890000000 1.0
C      1  0.4960130000000  0.5283820000000  0.5345700000000 1.0
C      1  0.4086880000000  0.5053910000000  0.4917620000000 1.0
C      1  0.4849520000000  0.5404390000000  0.4221570000000 1.0
C      1  0.4608380000000  0.5426100000000  0.5227580000000 1.0
C      1  0.6041070000000  0.5752720000000  0.5029980000000 1.0
C      1  0.4777090000000  0.4731030000000  0.5602490000000 1.0
C      1  0.5847620000000  0.5433630000000  0.4612970000000 1.0
C      1  0.5070510000000  0.5592080000000  0.5386760000000 1.0
C      1  0.5455220000000  0.5179300000000  0.4320750000000 1.0
C      1  0.5010820000000  0.4417820000000  0.5259910000000 1.0
C      1  0.4628630000000  0.4351280000000  0.4592600000000 1.0
C      1  0.4194900000000  0.5627560000000  0.5129510000000 1.0
C      1  0.5688180000000  0.4615740000000  0.4420970000000 1.0
C      1  0.4881990000000  0.5876920000000  0.5367460000000 1.0
C      1  0.5478230000000  0.4953160000000  0.4674430000000 1.0
C      1  0.4652160000000  0.5901930000000  0.5214580000000 1.0
C      1  0.4507170000000  0.4903520000000  0.4092770000000 1.0
C      1  0.4949320000000  0.5269160000000  0.5838700000000 1.0
C      1  0.4048120000000  0.4588040000000  0.5350710000000 1.0
C      1  0.5910270000000  0.4454000000000  0.5211040000000 1.0
C      1  0.4481510000000  0.5677260000000  0.5227500000000 1.0
C      1  0.5452540000000  0.5397750000000  0.4581560000000 1.0
C      1  0.5320240000000  0.5194700000000  0.5486690000000 1.0
C      1  0.4725070000000  0.4792580000000  0.4409000000000 1.0
C      1  0.4784920000000  0.4859370000000  0.5120010000000 1.0
C      1  0.5154470000000  0.5275170000000  0.4307000000000 1.0
C      1  0.5725650000000  0.5155140000000  0.4610670000000 1.0
C      1  0.4657320000000  0.5576940000000  0.4333990000000 1.0
C      1  0.4170140000000  0.4962690000000  0.4538100000000 1.0
C      1  0.5289980000000  0.4518650000000  0.5242420000000 1.0
C      1  0.4367380000000  0.4356010000000  0.5604100000000 1.0
C      1  0.5199710000000  0.4814130000000  0.5971300000000 1.0
C      1  0.4322840000000  0.4617010000000  0.5745090000000 1.0
C      1  0.5868700000000  0.4655620000000  0.4698720000000 1.0
C      1  0.4750850000000  0.5296820000000  0.4985610000000 1.0
C      1  0.4231250000000  0.5012170000000  0.5476290000000 1.0
C      1  0.4753330000000  0.5721410000000  0.4578800000000 1.0
C      1  0.5579890000000  0.4681720000000  0.5621280000000 1.0
C      1  0.6020630000000  0.5032320000000  0.5103700000000 1.0
C      1  0.5186270000000  0.5903140000000  0.5472620000000 1.0
C      1  0.5174950000000  0.4919240000000  0.5414670000000 1.0
C      1  0.4955920000000  0.5116700000000  0.4110440000000 1.0
C      1  0.4473000000000  0.5281450000000  0.4855370000000 1.0
C      1  0.5479840000000  0.4341060000000  0.4458230000000 1.0
C      1  0.4950380000000  0.5540150000000  0.4684090000000 1.0
C      1  0.4124720000000  0.4767880000000  0.5567840000000 1.0
C      1  0.5225180000000  0.4764200000000  0.4803840000000 1.0
C      1  0.4461220000000  0.5085860000000  0.5597580000000 1.0
C      1  0.4981820000000  0.4098010000000  0.5171320000000 1.0
C      1  0.5650330000000  0.5062040000000  0.4093350000000 1.0
C      1  0.5048160000000  0.4611390000000  0.4132830000000 1.0
C      1  0.4639150000000  0.6017420000000  0.4952720000000 1.0
C      1  0.5061110000000  0.5399640000000  0.5041280000000 1.0
C      1  0.4481030000000  0.4940910000000  0.5062940000000 1.0
C      1  0.4960210000000  0.5036290000000  0.4922450000000 1.0
C      1  0.4893520000000  0.5268240000000  0.4604700000000 1.0
C      1  0.5270530000000  0.5182140000000  0.4922470000000 1.0
C      1  0.5019190000000  0.4062230000000  0.4850220000000 1.0
C      1  0.4423280000000  0.4453690000000  0.4818620000000 1.0
C      1  0.5001900000000  0.5025900000000  0.5986060000000 1.0
C      1  0.4814710000000  0.4541580000000  0.5045760000000 1.0
C      1  0.4453350000000  0.5010720000000  0.4672380000000 1.0
C      1  0.4280680000000  0.4414100000000  0.5314810000000 1.0
C      1  0.5515390000000  0.4844480000000  0.4291470000000 1.0
C      1  0.5372750000000  0.5898320000000  0.4637500000000 1.0
C      1  0.5495700000000  0.4414440000000  0.5468190000000 1.0
C      1  0.5255630000000  0.4702500000000  0.5595110000000 1.0
C      1  0.4833870000000  0.4470080000000  0.5508930000000 1.0
C      1  0.5357430000000  0.5829250000000  0.4970930000000 1.0
C      1  0.5709000000000  0.5277010000000  0.5499870000000 1.0
C      1  0.5586650000000  0.5504330000000  0.5276840000000 1.0
C      1  0.5281580000000  0.4839680000000  0.5127440000000 1.0
C      1  0.4566300000000  0.5123450000000  0.4194440000000 1.0
C      1  0.5708820000000  0.5102040000000  0.5006210000000 1.0
C      1  0.4901190000000  0.4789600000000  0.4700750000000 1.0
C      1  0.4352280000000  0.5468900000000  0.5617490000000 1.0
C      1  0.5507850000000  0.5047710000000  0.5241500000000 1.0
C      1  0.4876440000000  0.4951330000000  0.5399190000000 1.0
C      1  0.4675530000000  0.5282190000000  0.5483330000000 1.0
C      1  0.4540260000000  0.5057640000000  0.5899280000000 1.0
C      1  0.5234600000000  0.4304780000000  0.5615930000000 1.0
C      1  0.4879050000000  0.4376790000000  0.4211500000000 1.0
C      1  0.5922890000000  0.5289540000000  0.5286340000000 1.0
C      1  0.4150090000000  0.4581220000000  0.4706190000000 1.0
C      1  0.5471010000000  0.4884960000000  0.5875510000000 1.0
C      1  0.5672030000000  0.5825610000000  0.4890300000000 1.0
C      1  0.4156810000000  0.5274560000000  0.4673040000000 1.0
C      1  0.4340820000000  0.5590320000000  0.4833520000000 1.0
C      1  0.4030830000000  0.4787200000000  0.4869000000000 1.0
C      1  0.5312050000000  0.4593180000000  0.4300890000000 1.0
C      1  0.5447490000000  0.4253560000000  0.4845580000000 1.0
C      1  0.5366010000000  0.5711720000000  0.5265290000000 1.0
C      1  0.5638440000000  0.5067260000000  0.5691470000000 1.0
C      1  0.5552620000000  0.5363390000000  0.4983830000000 1.0
C      1  0.5794200000000  0.4341660000000  0.4589680000000 1.0
C      1  0.5835730000000  0.4748540000000  0.5140990000000 1.0
C      1  0.4231600000000  0.5397340000000  0.5360730000000 1.0
C      1  0.5246880000000  0.4165680000000  0.4638530000000 1.0
C      1  0.4844950000000  0.6499440000000  0.4822610000000 1.0
C      1  0.4900330000000  0.4851520000000  0.4177840000000 1.0
C      1  0.4619930000000  0.4403070000000  0.4318740000000 1.0
C      1  0.5121080000000  0.4527310000000  0.5817770000000 1.0
C      1  0.4238030000000  0.5107470000000  0.5182630000000 1.0
C      1  0.4555760000000  0.5820670000000  0.4760930000000 1.0
C      1  0.4658540000000  0.4142270000000  0.5218640000000 1.0
C      1  0.5728360000000  0.5569030000000  0.4817200000000 1.0
C      1  0.4622090000000  0.4277890000000  0.5472470000000 1.0
C      1  0.5611780000000  0.4731540000000  0.4896670000000 1.0
C      1  0.4391020000000  0.5468200000000  0.4517050000000 1.0
C      1  0.5087230000000  0.4397940000000  0.4467790000000 1.0
C      1  0.5908580000000  0.5566120000000  0.5173730000000 1.0
C      1  0.5921920000000  0.4954820000000  0.4785020000000 1.0
C      1  0.5242790000000  0.5558250000000  0.4799980000000 1.0
C      1  0.5403810000000  0.4508010000000  0.4948770000000 1.0
C      1  0.5179560000000  0.5338000000000  0.5674730000000 1.0
C      1  0.4745080000000  0.6265520000000  0.4885760000000 1.0
C      1  0.4572640000000  0.4765350000000  0.5805800000000 1.0
END
