TITL C-2778436-5916-743 -0.00461928952205094 125000 -282.12753439825 0 0 50 (C1) n - 1
REM
REM in /home/nfs/bkarasulu/CARBON/AIRSS/Generating-Clusters/REBO/Only-C1/SD-CG/HFTN-CG
REM
REM
REM
REM
REM
REM ./C.cell (11c1c37f851c82e70ff6c80c92926a4b)
REM
REM compiler GCC version 9.2.1 20190827 (Red Hat 9.2.1-1)
REM options -cpp -mtune=generic -march=x86-64 -g -O0 -fpre-include=/usr/include/finclude/math-vector-fortran.h
REM seed 856103437 1179258574 -1719024751 649768459 -576486725 6574450 -1500332361 -656404795 2056475113 1592952086 -635952903 -715504675 2064530369 697647909 -1199759090 1289189686 -109433381 782472974 1597274227 -906168549 -889615839 -185540451 406592021 1028033696 -2065413074 -897838752 42801224 1414454576 1420613037 -1056171502 -2026203588 -703272122 1484793918
REM
CELL 1.54180   50.00000   50.00000   50.00000   90.00000   90.00000   90.00000
LATT -1
SFAC C  
C      1  0.5419500000000  0.5476150000000  0.4709430000000 1.0
C      1  0.4831710000000  0.4898670000000  0.4411720000000 1.0
C      1  0.4679820000000  0.5147860000000  0.4463630000000 1.0
C      1  0.5218560000000  0.4728360000000  0.5694340000000 1.0
C      1  0.5353320000000  0.4953970000000  0.5345200000000 1.0
C      1  0.4468450000000  0.4679030000000  0.5015230000000 1.0
C      1  0.4462180000000  0.5099890000000  0.4647560000000 1.0
C      1  0.5245710000000  0.5363340000000  0.5628510000000 1.0
C      1  0.4952240000000  0.5299990000000  0.5580890000000 1.0
C      1  0.5471630000000  0.5109190000000  0.4998940000000 1.0
C      1  0.5227400000000  0.5501120000000  0.4918900000000 1.0
C      1  0.5354180000000  0.4972320000000  0.4538020000000 1.0
C      1  0.5205200000000  0.4593740000000  0.5428690000000 1.0
C      1  0.4665580000000  0.5401820000000  0.5565000000000 1.0
C      1  0.5183240000000  0.4847180000000  0.5069460000000 1.0
C      1  0.5330360000000  0.4540970000000  0.4780840000000 1.0
C      1  0.5074760000000  0.5086450000000  0.4667520000000 1.0
C      1  0.5361230000000  0.5301600000000  0.4493980000000 1.0
C      1  0.4436520000000  0.4791790000000  0.4700960000000 1.0
C      1  0.4472360000000  0.4749520000000  0.5348330000000 1.0
C      1  0.4562290000000  0.5405860000000  0.5057270000000 1.0
C      1  0.5363740000000  0.5447980000000  0.5392240000000 1.0
C      1  0.4698360000000  0.4936140000000  0.5743900000000 1.0
C      1  0.4993560000000  0.5640360000000  0.4871690000000 1.0
C      1  0.5362640000000  0.4593180000000  0.5175360000000 1.0
C      1  0.5634490000000  0.4628270000000  0.5022150000000 1.0
C      1  0.4770150000000  0.5640060000000  0.4631510000000 1.0
C      1  0.4963590000000  0.4789330000000  0.5392890000000 1.0
C      1  0.4745800000000  0.4643940000000  0.5294440000000 1.0
C      1  0.4790240000000  0.5429950000000  0.4438230000000 1.0
C      1  0.5618810000000  0.4899730000000  0.5179250000000 1.0
C      1  0.4472120000000  0.4889440000000  0.5592650000000 1.0
C      1  0.4408900000000  0.5261860000000  0.4869380000000 1.0
C      1  0.4697150000000  0.5282460000000  0.5277640000000 1.0
C      1  0.5474340000000  0.4835810000000  0.4795490000000 1.0
C      1  0.4972900000000  0.4921020000000  0.5770180000000 1.0
C      1  0.4719160000000  0.4868640000000  0.4883300000000 1.0
C      1  0.4820420000000  0.4485060000000  0.4686140000000 1.0
C      1  0.4687530000000  0.4677270000000  0.4533890000000 1.0
C      1  0.4682640000000  0.5641720000000  0.4946300000000 1.0
C      1  0.5113050000000  0.4849150000000  0.4348880000000 1.0
C      1  0.5074400000000  0.4493840000000  0.4872840000000 1.0
C      1  0.5186250000000  0.4675690000000  0.4145110000000 1.0
C      1  0.5475860000000  0.4340510000000  0.4654750000000 1.0
C      1  0.5051990000000  0.5291640000000  0.4435470000000 1.0
C      1  0.4980470000000  0.4943200000000  0.4887360000000 1.0
C      1  0.5248440000000  0.5280960000000  0.5140280000000 1.0
C      1  0.4993300000000  0.5115360000000  0.5297280000000 1.0
C      1  0.5259440000000  0.5052720000000  0.5641290000000 1.0
C      1  0.4764020000000  0.4495880000000  0.5015710000000 1.0
END
