TITL C-2778432-5617-1305 0.162086997054159 125000 -670.962125038743 0 0 112 (C1) n - 1
REM
REM in /home/nfs/bkarasulu/CARBON/AIRSS/Generating-Clusters/REBO/Only-C1/SD-CG/HFTN-CG
REM
REM
REM
REM
REM
REM ./C.cell (11c1c37f851c82e70ff6c80c92926a4b)
REM
REM compiler GCC version 9.2.1 20190827 (Red Hat 9.2.1-1)
REM options -cpp -mtune=generic -march=x86-64 -g -O0 -fpre-include=/usr/include/finclude/math-vector-fortran.h
REM seed 327634934 -1297079192 -284980804 -1049434995 295417990 -260738764 -795628569 1847229968 1250635228 895597531 763767156 141071760 116407206 -1072883589 -2114274698 1317671647 -1908583010 -566141289 895684397 789857959 1257771781 1142900768 -1375837211 1004048812 -451217216 639798158 -1792380397 1402521071 12330383 -807443164 -1974825171 1582083265 220070487
REM
CELL 1.54180   50.00000   50.00000   50.00000   90.00000   90.00000   90.00000
LATT -1
SFAC C  
C      1  0.4879870000000  0.4205070000000  0.4980410000000 1.0
C      1  0.4180700000000  0.4560620000000  0.5065400000000 1.0
C      1  0.4446760000000  0.4241310000000  0.4801950000000 1.0
C      1  0.5088110000000  0.5285370000000  0.5789850000000 1.0
C      1  0.5121720000000  0.4834240000000  0.5846000000000 1.0
C      1  0.5386540000000  0.4761560000000  0.4767440000000 1.0
C      1  0.5664140000000  0.5728300000000  0.4986180000000 1.0
C      1  0.5049200000000  0.4482790000000  0.5357060000000 1.0
C      1  0.5231940000000  0.5222580000000  0.5427400000000 1.0
C      1  0.4393480000000  0.5533710000000  0.4771400000000 1.0
C      1  0.5485990000000  0.5549170000000  0.4420070000000 1.0
C      1  0.4707910000000  0.4149390000000  0.4745390000000 1.0
C      1  0.4863640000000  0.5234270000000  0.4232770000000 1.0
C      1  0.5096180000000  0.5450360000000  0.4110670000000 1.0
C      1  0.4431570000000  0.4359980000000  0.5090590000000 1.0
C      1  0.5827870000000  0.4697980000000  0.5044250000000 1.0
C      1  0.5230850000000  0.5249480000000  0.4955920000000 1.0
C      1  0.4977160000000  0.4335790000000  0.5721000000000 1.0
C      1  0.4433560000000  0.5526770000000  0.5544400000000 1.0
C      1  0.5425360000000  0.5393160000000  0.5567410000000 1.0
C      1  0.4529960000000  0.4945620000000  0.5421630000000 1.0
C      1  0.5720200000000  0.5093660000000  0.4948090000000 1.0
C      1  0.4905700000000  0.5389720000000  0.4535950000000 1.0
C      1  0.4961180000000  0.5383000000000  0.4859990000000 1.0
C      1  0.4635950000000  0.4926710000000  0.4540670000000 1.0
C      1  0.5438910000000  0.4962050000000  0.4290530000000 1.0
C      1  0.5534640000000  0.4579160000000  0.5416420000000 1.0
C      1  0.5705320000000  0.5563520000000  0.4624840000000 1.0
C      1  0.5239640000000  0.5392190000000  0.4570030000000 1.0
C      1  0.4874150000000  0.5849380000000  0.5228250000000 1.0
C      1  0.4181320000000  0.5131390000000  0.4571490000000 1.0
C      1  0.4848330000000  0.4284160000000  0.5260230000000 1.0
C      1  0.5432920000000  0.5025650000000  0.4890280000000 1.0
C      1  0.5783390000000  0.4754710000000  0.4721690000000 1.0
C      1  0.4120050000000  0.4582170000000  0.4771040000000 1.0
C      1  0.5517880000000  0.4453180000000  0.4328110000000 1.0
C      1  0.5117200000000  0.4131290000000  0.5563230000000 1.0
C      1  0.5215240000000  0.4528540000000  0.4291330000000 1.0
C      1  0.5264980000000  0.5707800000000  0.5184330000000 1.0
C      1  0.4725710000000  0.4440000000000  0.5633720000000 1.0
C      1  0.5700540000000  0.5284380000000  0.5574220000000 1.0
C      1  0.5468190000000  0.5762710000000  0.4753590000000 1.0
C      1  0.5933580000000  0.5038290000000  0.4689120000000 1.0
C      1  0.4829020000000  0.4522020000000  0.4667230000000 1.0
C      1  0.4575330000000  0.5347000000000  0.4323900000000 1.0
C      1  0.4624930000000  0.5581550000000  0.4557400000000 1.0
C      1  0.5384090000000  0.5466370000000  0.5096110000000 1.0
C      1  0.5221680000000  0.5649560000000  0.4266640000000 1.0
C      1  0.5553870000000  0.5027450000000  0.5662100000000 1.0
C      1  0.4881050000000  0.5769430000000  0.4684790000000 1.0
C      1  0.5807290000000  0.4955870000000  0.5229950000000 1.0
C      1  0.5499010000000  0.5799780000000  0.5838930000000 1.0
C      1  0.5581050000000  0.4496360000000  0.4825320000000 1.0
C      1  0.5690440000000  0.5455770000000  0.5122800000000 1.0
C      1  0.5184120000000  0.5120430000000  0.4439930000000 1.0
C      1  0.5193540000000  0.5773580000000  0.5452140000000 1.0
C      1  0.4187300000000  0.5335300000000  0.4782290000000 1.0
C      1  0.5173710000000  0.4798830000000  0.4203160000000 1.0
C      1  0.4843330000000  0.6069770000000  0.4819490000000 1.0
C      1  0.5638550000000  0.4445270000000  0.5157130000000 1.0
C      1  0.4703110000000  0.5284530000000  0.5048590000000 1.0
C      1  0.5032170000000  0.4990350000000  0.4861950000000 1.0
C      1  0.4672080000000  0.5550000000000  0.5699740000000 1.0
C      1  0.4562010000000  0.4630460000000  0.4555540000000 1.0
C      1  0.4641570000000  0.5064940000000  0.4845310000000 1.0
C      1  0.4196380000000  0.4937230000000  0.4933220000000 1.0
C      1  0.4467070000000  0.4850020000000  0.4944310000000 1.0
C      1  0.4526880000000  0.5565430000000  0.5040800000000 1.0
C      1  0.4405030000000  0.5668800000000  0.5308700000000 1.0
C      1  0.5491460000000  0.4168400000000  0.5152160000000 1.0
C      1  0.4910230000000  0.4901920000000  0.4194440000000 1.0
C      1  0.5147860000000  0.4608640000000  0.4890730000000 1.0
C      1  0.5059650000000  0.4447840000000  0.4536380000000 1.0
C      1  0.4772820000000  0.5301640000000  0.5833370000000 1.0
C      1  0.4212910000000  0.5036500000000  0.5318960000000 1.0
C      1  0.4634220000000  0.4582280000000  0.4944340000000 1.0
C      1  0.4902090000000  0.4762310000000  0.5017910000000 1.0
C      1  0.5174260000000  0.4561140000000  0.5806500000000 1.0
C      1  0.4389150000000  0.4581030000000  0.5495070000000 1.0
C      1  0.4895580000000  0.5690330000000  0.5508930000000 1.0
C      1  0.5376040000000  0.5663840000000  0.5639950000000 1.0
C      1  0.5241820000000  0.5179140000000  0.4115360000000 1.0
C      1  0.4211730000000  0.4715130000000  0.5307140000000 1.0
C      1  0.5291350000000  0.5068530000000  0.5794720000000 1.0
C      1  0.4942650000000  0.5357780000000  0.5479190000000 1.0
C      1  0.5292490000000  0.4488470000000  0.5529550000000 1.0
C      1  0.5827590000000  0.5340820000000  0.4739390000000 1.0
C      1  0.4739530000000  0.4667840000000  0.4200370000000 1.0
C      1  0.4548420000000  0.4314070000000  0.5377840000000 1.0
C      1  0.5372940000000  0.4161830000000  0.4893260000000 1.0
C      1  0.5637080000000  0.4829750000000  0.5470120000000 1.0
C      1  0.4869640000000  0.6093250000000  0.5096410000000 1.0
C      1  0.5557710000000  0.4742460000000  0.4474090000000 1.0
C      1  0.4955410000000  0.4995970000000  0.4583250000000 1.0
C      1  0.4344610000000  0.4456390000000  0.4632390000000 1.0
C      1  0.4838440000000  0.4976920000000  0.5748850000000 1.0
C      1  0.5808120000000  0.5267430000000  0.5304380000000 1.0
C      1  0.4750260000000  0.4402630000000  0.4286950000000 1.0
C      1  0.4975100000000  0.4756820000000  0.5305240000000 1.0
C      1  0.5042060000000  0.4971390000000  0.5479100000000 1.0
C      1  0.5320640000000  0.4104040000000  0.5376400000000 1.0
C      1  0.4716340000000  0.5212770000000  0.5342820000000 1.0
C      1  0.4124100000000  0.5207860000000  0.5053710000000 1.0
C      1  0.5173730000000  0.5723410000000  0.4596870000000 1.0
C      1  0.4827640000000  0.5657800000000  0.4998620000000 1.0
C      1  0.4402680000000  0.5238730000000  0.5491300000000 1.0
C      1  0.5127340000000  0.4329570000000  0.4910870000000 1.0
C      1  0.4047480000000  0.4864680000000  0.4666420000000 1.0
C      1  0.4424770000000  0.5119040000000  0.4420070000000 1.0
C      1  0.5378020000000  0.4338490000000  0.4602490000000 1.0
C      1  0.4624210000000  0.4758340000000  0.5660880000000 1.0
C      1  0.4767700000000  0.4185490000000  0.4461390000000 1.0
END
