TITL C-2778430-5657-868 0.00116602233054723 125000 -293.302336944268 0 0 49 (C1) n - 1
REM
REM in /home/nfs/bkarasulu/CARBON/AIRSS/Generating-Clusters/REBO/Only-C1/SD-CG/HFTN-CG
REM
REM
REM
REM
REM
REM ./C.cell (11c1c37f851c82e70ff6c80c92926a4b)
REM
REM compiler GCC version 9.2.1 20190827 (Red Hat 9.2.1-1)
REM options -cpp -mtune=generic -march=x86-64 -g -O0 -fpre-include=/usr/include/finclude/math-vector-fortran.h
REM seed 1142029545 649408826 1125251383 -1762001530 -563532861 -2138683198 -1995045819 -668974733 2026431843 -835113593 696821366 -352044887 -706919241 1654834777 -1114260245 538820561 -1590067123 -2069186448 -1335578205 -1772397166 1958269522 -1402531534 701163865 1399210855 1175106399 70384386 936352962 -1344435615 571499474 -743422835 1098414820 503354559 2130162342
REM
CELL 1.54180   50.00000   50.00000   50.00000   90.00000   90.00000   90.00000
LATT -1
SFAC C  
C      1  0.4219230000000  0.4644660000000  0.4866310000000 1.0
C      1  0.5866530000000  0.5591410000000  0.5030720000000 1.0
C      1  0.4891930000000  0.4839480000000  0.5724930000000 1.0
C      1  0.5124750000000  0.4528600000000  0.5316800000000 1.0
C      1  0.5558560000000  0.4689670000000  0.4987040000000 1.0
C      1  0.5183250000000  0.4923360000000  0.5085640000000 1.0
C      1  0.4915780000000  0.5010390000000  0.5065320000000 1.0
C      1  0.5600050000000  0.5336290000000  0.4717250000000 1.0
C      1  0.5814010000000  0.4813060000000  0.5115190000000 1.0
C      1  0.5022280000000  0.4290290000000  0.5201850000000 1.0
C      1  0.4914820000000  0.5596190000000  0.4848870000000 1.0
C      1  0.5052300000000  0.5689170000000  0.5095250000000 1.0
C      1  0.5177790000000  0.5102980000000  0.4474170000000 1.0
C      1  0.5027070000000  0.5405030000000  0.4431610000000 1.0
C      1  0.4558050000000  0.5130220000000  0.5196550000000 1.0
C      1  0.5311870000000  0.4675850000000  0.5155640000000 1.0
C      1  0.4934500000000  0.5569500000000  0.5328810000000 1.0
C      1  0.4541740000000  0.4652460000000  0.5429520000000 1.0
C      1  0.4689900000000  0.5349320000000  0.5312270000000 1.0
C      1  0.4843940000000  0.4253880000000  0.4999190000000 1.0
C      1  0.4347830000000  0.5107140000000  0.5000020000000 1.0
C      1  0.4405660000000  0.4460120000000  0.5276690000000 1.0
C      1  0.4627380000000  0.4686400000000  0.5700940000000 1.0
C      1  0.6029340000000  0.5384450000000  0.5116590000000 1.0
C      1  0.4167320000000  0.4883730000000  0.5016960000000 1.0
C      1  0.5012830000000  0.4624070000000  0.4581960000000 1.0
C      1  0.4411400000000  0.5181570000000  0.4730400000000 1.0
C      1  0.4275200000000  0.4685560000000  0.4589180000000 1.0
C      1  0.4989120000000  0.5639400000000  0.4572000000000 1.0
C      1  0.5214020000000  0.5353920000000  0.4951860000000 1.0
C      1  0.4936230000000  0.4706170000000  0.5448620000000 1.0
C      1  0.5627120000000  0.5080360000000  0.5071960000000 1.0
C      1  0.4544960000000  0.4763710000000  0.4534330000000 1.0
C      1  0.5347610000000  0.5622400000000  0.4999780000000 1.0
C      1  0.5363470000000  0.5129820000000  0.5023270000000 1.0
C      1  0.4869060000000  0.5157960000000  0.4586730000000 1.0
C      1  0.5493890000000  0.4804110000000  0.4726870000000 1.0
C      1  0.4929540000000  0.5121280000000  0.5732260000000 1.0
C      1  0.5940520000000  0.5118330000000  0.5120710000000 1.0
C      1  0.4901090000000  0.5267800000000  0.4880750000000 1.0
C      1  0.4895880000000  0.5341830000000  0.5564340000000 1.0
C      1  0.4710580000000  0.4856480000000  0.5250890000000 1.0
C      1  0.4740580000000  0.4574410000000  0.4636380000000 1.0
C      1  0.5233080000000  0.4793950000000  0.4564370000000 1.0
C      1  0.4651060000000  0.4401280000000  0.4853300000000 1.0
C      1  0.4400070000000  0.4457940000000  0.4991480000000 1.0
C      1  0.4598720000000  0.5042700000000  0.4564140000000 1.0
C      1  0.5615400000000  0.5558290000000  0.4901170000000 1.0
C      1  0.5472700000000  0.5103040000000  0.4629130000000 1.0
END
