TITL C-2778434-4341-119 0.00302478695256295 125000 -298.056584433655 0 0 53 (C1) n - 1
REM
REM in /home/nfs/bkarasulu/CARBON/AIRSS/Generating-Clusters/REBO/Only-C1/SD-CG/HFTN-CG
REM
REM
REM
REM
REM
REM ./C.cell (11c1c37f851c82e70ff6c80c92926a4b)
REM
REM compiler GCC version 9.2.1 20190827 (Red Hat 9.2.1-1)
REM options -cpp -mtune=generic -march=x86-64 -g -O0 -fpre-include=/usr/include/finclude/math-vector-fortran.h
REM seed 265391327 -1561184963 1389119684 1898559121 -1691367608 -1907351262 325105352 1312593547 -911743767 -251253634 -1721237118 1644264975 -963612310 -1922934892 406080522 243093785 -234179186 506537949 -1626749821 1586829199 -2139340147 393160884 855550568 956180070 49800939 -80162730 325353554 741105333 1292608119 1728060625 221092698 1143633167 -404379048
REM
CELL 1.54180   50.00000   50.00000   50.00000   90.00000   90.00000   90.00000
LATT -1
SFAC C  
C      1  0.4599020000000  0.5574070000000  0.4617670000000 1.0
C      1  0.5500780000000  0.4482260000000  0.5013540000000 1.0
C      1  0.4435330000000  0.5244680000000  0.5260440000000 1.0
C      1  0.4696510000000  0.4791960000000  0.4510040000000 1.0
C      1  0.5706100000000  0.5038090000000  0.4737320000000 1.0
C      1  0.5601390000000  0.4884810000000  0.4969980000000 1.0
C      1  0.5336260000000  0.5100850000000  0.5266960000000 1.0
C      1  0.4981680000000  0.4436950000000  0.4718530000000 1.0
C      1  0.5126510000000  0.5479210000000  0.4633070000000 1.0
C      1  0.5543860000000  0.4838500000000  0.4577040000000 1.0
C      1  0.5325990000000  0.5375860000000  0.4868230000000 1.0
C      1  0.5155300000000  0.4823760000000  0.5253900000000 1.0
C      1  0.5321450000000  0.5047860000000  0.5662800000000 1.0
C      1  0.4682120000000  0.5477050000000  0.5291840000000 1.0
C      1  0.5020970000000  0.4821040000000  0.4426850000000 1.0
C      1  0.4413240000000  0.4775630000000  0.4982330000000 1.0
C      1  0.4896290000000  0.5615990000000  0.4773400000000 1.0
C      1  0.5139220000000  0.5112650000000  0.4978280000000 1.0
C      1  0.4950810000000  0.5395330000000  0.5530170000000 1.0
C      1  0.4944980000000  0.4491320000000  0.4428670000000 1.0
C      1  0.5607010000000  0.5303570000000  0.4710550000000 1.0
C      1  0.4504980000000  0.4733850000000  0.4657220000000 1.0
C      1  0.4835410000000  0.4873330000000  0.5271700000000 1.0
C      1  0.5492680000000  0.4869540000000  0.5462990000000 1.0
C      1  0.5501170000000  0.4572650000000  0.4738460000000 1.0
C      1  0.5232300000000  0.4415270000000  0.5208410000000 1.0
C      1  0.4531060000000  0.5015850000000  0.5487200000000 1.0
C      1  0.4517230000000  0.4728170000000  0.5303740000000 1.0
C      1  0.4877160000000  0.5647260000000  0.5100830000000 1.0
C      1  0.5055560000000  0.4650560000000  0.5511160000000 1.0
C      1  0.4560080000000  0.5277880000000  0.4519040000000 1.0
C      1  0.4753610000000  0.4513650000000  0.5425700000000 1.0
C      1  0.4952140000000  0.4410080000000  0.5199310000000 1.0
C      1  0.4848710000000  0.5083470000000  0.4928340000000 1.0
C      1  0.5390560000000  0.5322390000000  0.4480320000000 1.0
C      1  0.4695670000000  0.5375560000000  0.4880230000000 1.0
C      1  0.5707100000000  0.4890580000000  0.5220000000000 1.0
C      1  0.4301510000000  0.5070380000000  0.5000890000000 1.0
C      1  0.4844290000000  0.4491180000000  0.4951090000000 1.0
C      1  0.4764960000000  0.5191060000000  0.4354460000000 1.0
C      1  0.5147080000000  0.5222700000000  0.5670970000000 1.0
C      1  0.5038550000000  0.5220350000000  0.4427610000000 1.0
C      1  0.5476330000000  0.4583370000000  0.5328700000000 1.0
C      1  0.4650070000000  0.5306320000000  0.5580600000000 1.0
C      1  0.5301490000000  0.4996660000000  0.4433350000000 1.0
C      1  0.4738130000000  0.4775050000000  0.4977660000000 1.0
C      1  0.4532190000000  0.5107830000000  0.4794890000000 1.0
C      1  0.4765130000000  0.4806700000000  0.5602950000000 1.0
C      1  0.5296920000000  0.4837560000000  0.4953370000000 1.0
C      1  0.5077090000000  0.5534740000000  0.5289180000000 1.0
C      1  0.5304300000000  0.5407340000000  0.5185680000000 1.0
C      1  0.4125260000000  0.5283690000000  0.5164020000000 1.0
C      1  0.5196460000000  0.4673560000000  0.4678360000000 1.0
END
