TITL C-2778435-5768-1056 -0.000964424887912735 125000 -152.867388570225 0 0 28 (C1) n - 1
REM
REM in /home/nfs/bkarasulu/CARBON/AIRSS/Generating-Clusters/REBO/Only-C1/SD-CG/HFTN-CG
REM
REM
REM
REM
REM
REM ./C.cell (11c1c37f851c82e70ff6c80c92926a4b)
REM
REM compiler GCC version 9.2.1 20190827 (Red Hat 9.2.1-1)
REM options -cpp -mtune=generic -march=x86-64 -g -O0 -fpre-include=/usr/include/finclude/math-vector-fortran.h
REM seed 1307932624 -1533058972 1686294264 -675077462 -495818205 -1932332055 99246310 -1647511627 1749625502 1976074716 1308106544 1901220270 -1334377349 426519987 480462474 469001344 671531796 537572918 1443959044 413295559 1484025580 -1939938021 175670815 -1892661109 857559925 1244289992 -1300546231 722522575 538805570 1246871251 769636095 -1281761091 -739408956
REM
CELL 1.54180   50.00000   50.00000   50.00000   90.00000   90.00000   90.00000
LATT -1
SFAC C  
C      1  0.4055820000000  0.5349370000000  0.4224620000000 1.0
C      1  0.4726250000000  0.4842370000000  0.4754490000000 1.0
C      1  0.4414530000000  0.4967650000000  0.4366190000000 1.0
C      1  0.6385220000000  0.4771570000000  0.6103730000000 1.0
C      1  0.5214740000000  0.5149010000000  0.5327910000000 1.0
C      1  0.4586430000000  0.4214220000000  0.4403150000000 1.0
C      1  0.5382630000000  0.5254400000000  0.5525000000000 1.0
C      1  0.4344550000000  0.4191680000000  0.4182060000000 1.0
C      1  0.5981330000000  0.5058730000000  0.5920420000000 1.0
C      1  0.4577390000000  0.4447090000000  0.4166970000000 1.0
C      1  0.4412110000000  0.4729400000000  0.4232370000000 1.0
C      1  0.5767580000000  0.5210690000000  0.5823400000000 1.0
C      1  0.5054790000000  0.5048610000000  0.5140150000000 1.0
C      1  0.6184890000000  0.4914000000000  0.6012810000000 1.0
C      1  0.4660410000000  0.5559150000000  0.4699730000000 1.0
C      1  0.4626880000000  0.5301060000000  0.4643300000000 1.0
C      1  0.4699980000000  0.4563630000000  0.4740000000000 1.0
C      1  0.5645840000000  0.4848100000000  0.5526580000000 1.0
C      1  0.4894830000000  0.4948200000000  0.4952390000000 1.0
C      1  0.5719030000000  0.5461760000000  0.5917840000000 1.0
C      1  0.4229070000000  0.5165000000000  0.4293000000000 1.0
C      1  0.4246160000000  0.4490780000000  0.4082020000000 1.0
C      1  0.5298900000000  0.5751720000000  0.5722460000000 1.0
C      1  0.5339420000000  0.5511080000000  0.5626910000000 1.0
C      1  0.5599670000000  0.5098860000000  0.5622840000000 1.0
C      1  0.4666690000000  0.4310310000000  0.4650710000000 1.0
C      1  0.4591450000000  0.5028410000000  0.4583690000000 1.0
C      1  0.4693400000000  0.5813140000000  0.4755250000000 1.0
END
