TITL C-2778426-5645-303 -0.0807175496311127 125000 -288.1524247016 0 0 50 (C1) n - 1
REM
REM in /home/nfs/bkarasulu/CARBON/AIRSS/Generating-Clusters/REBO/Only-C1/SD-CG/HFTN-CG
REM
REM
REM
REM
REM
REM ./C.cell (11c1c37f851c82e70ff6c80c92926a4b)
REM
REM compiler GCC version 9.2.1 20190827 (Red Hat 9.2.1-1)
REM options -cpp -mtune=generic -march=x86-64 -g -O0 -fpre-include=/usr/include/finclude/math-vector-fortran.h
REM seed -2083731966 -667884580 -290723227 -1650346479 -1824870921 -1267804885 1542860088 -1669279458 1303515894 -1042568924 -606078150 76576159 -802810097 2070529713 1383586643 1525412521 -552401805 -1113636838 249028353 1246941659 360499002 416845565 -1562665011 351597719 129083497 -840905176 1522576482 -238259686 -219020370 936446445 2001552470 727697944 1326472526
REM
CELL 1.54180   50.00000   50.00000   50.00000   90.00000   90.00000   90.00000
LATT -1
SFAC C  
C      1  0.4904920000000  0.5479420000000  0.4434350000000 1.0
C      1  0.4430160000000  0.4375460000000  0.5113140000000 1.0
C      1  0.5614560000000  0.4743780000000  0.5208030000000 1.0
C      1  0.4640640000000  0.4178200000000  0.4735560000000 1.0
C      1  0.4932750000000  0.5745470000000  0.5119620000000 1.0
C      1  0.4869850000000  0.4461020000000  0.5393390000000 1.0
C      1  0.4958440000000  0.5153260000000  0.4972870000000 1.0
C      1  0.5488120000000  0.4638180000000  0.4959010000000 1.0
C      1  0.5015740000000  0.4594250000000  0.4523500000000 1.0
C      1  0.5396880000000  0.4936450000000  0.4553210000000 1.0
C      1  0.4682750000000  0.5283380000000  0.4613450000000 1.0
C      1  0.5120000000000  0.5410460000000  0.5007440000000 1.0
C      1  0.4444890000000  0.5329100000000  0.5662150000000 1.0
C      1  0.4915250000000  0.4171680000000  0.4726050000000 1.0
C      1  0.4861760000000  0.4601820000000  0.5637570000000 1.0
C      1  0.4638380000000  0.5277150000000  0.5468300000000 1.0
C      1  0.5870880000000  0.4660270000000  0.5259240000000 1.0
C      1  0.4535840000000  0.5232380000000  0.5189230000000 1.0
C      1  0.5638420000000  0.5463580000000  0.4973170000000 1.0
C      1  0.4476630000000  0.4389200000000  0.4835830000000 1.0
C      1  0.4708650000000  0.5043310000000  0.5022440000000 1.0
C      1  0.5159700000000  0.5322130000000  0.4452200000000 1.0
C      1  0.4917910000000  0.5104010000000  0.5565370000000 1.0
C      1  0.5612020000000  0.5605070000000  0.5207300000000 1.0
C      1  0.4732450000000  0.4617210000000  0.4472910000000 1.0
C      1  0.5231780000000  0.5032120000000  0.5039700000000 1.0
C      1  0.5137940000000  0.4845830000000  0.4483900000000 1.0
C      1  0.5096250000000  0.4391740000000  0.4714730000000 1.0
C      1  0.5502980000000  0.4941270000000  0.5384430000000 1.0
C      1  0.4452020000000  0.5298400000000  0.4864100000000 1.0
C      1  0.5247800000000  0.4471230000000  0.4953040000000 1.0
C      1  0.5084400000000  0.4512800000000  0.5211660000000 1.0
C      1  0.4918540000000  0.5084720000000  0.4464650000000 1.0
C      1  0.4624060000000  0.4359520000000  0.5302600000000 1.0
C      1  0.4726890000000  0.5734210000000  0.4984840000000 1.0
C      1  0.5194220000000  0.4793650000000  0.5181100000000 1.0
C      1  0.5411480000000  0.5514890000000  0.5386200000000 1.0
C      1  0.4503970000000  0.4969010000000  0.4783210000000 1.0
C      1  0.4831350000000  0.4855950000000  0.5723370000000 1.0
C      1  0.4686910000000  0.5663040000000  0.4495550000000 1.0
C      1  0.5386870000000  0.5221180000000  0.4589470000000 1.0
C      1  0.5554540000000  0.4767310000000  0.4714680000000 1.0
C      1  0.5451350000000  0.5251450000000  0.5481500000000 1.0
C      1  0.4513670000000  0.4641450000000  0.4704030000000 1.0
C      1  0.4930210000000  0.5428430000000  0.5491290000000 1.0
C      1  0.4642250000000  0.4924200000000  0.4492960000000 1.0
C      1  0.5401370000000  0.5287600000000  0.4886680000000 1.0
C      1  0.5120260000000  0.5555750000000  0.5295480000000 1.0
C      1  0.4571110000000  0.5592270000000  0.4774590000000 1.0
C      1  0.5210190000000  0.5045750000000  0.5490910000000 1.0
END
