TITL C-2778422-5617-909 0.00249302402124018 125000 -358.648303103443 0 0 62 (C1) n - 1
REM
REM in /home/nfs/bkarasulu/CARBON/AIRSS/Generating-Clusters/REBO/Only-C1/SD-CG/HFTN-CG
REM
REM
REM
REM
REM
REM ./C.cell (11c1c37f851c82e70ff6c80c92926a4b)
REM
REM compiler GCC version 9.2.1 20190827 (Red Hat 9.2.1-1)
REM options -cpp -mtune=generic -march=x86-64 -g -O0 -fpre-include=/usr/include/finclude/math-vector-fortran.h
REM seed -1622195498 979370789 1206724413 -997856372 -177304033 842334918 -638716184 -298493649 -1942959523 1727221801 1493716706 819656965 686282178 1201032671 1916389192 -1738903647 1218228518 1371156904 -22500931 -1304978054 536235193 -1071235185 1146051739 1794332515 85203652 185650791 892781129 -1910407630 -1088782902 -909787389 -2062656242 1355810651 -1257916675
REM
CELL 1.54180   50.00000   50.00000   50.00000   90.00000   90.00000   90.00000
LATT -1
SFAC C  
C      1  0.5258070000000  0.5700910000000  0.5318100000000 1.0
C      1  0.5523880000000  0.5343070000000  0.4573820000000 1.0
C      1  0.5124260000000  0.4510510000000  0.4988160000000 1.0
C      1  0.4511580000000  0.4981550000000  0.5159380000000 1.0
C      1  0.5072550000000  0.4203020000000  0.4687770000000 1.0
C      1  0.5577250000000  0.4860980000000  0.4027200000000 1.0
C      1  0.4796890000000  0.5555400000000  0.5634480000000 1.0
C      1  0.5223140000000  0.4524330000000  0.5286520000000 1.0
C      1  0.4927340000000  0.4873630000000  0.4677380000000 1.0
C      1  0.4850940000000  0.5475020000000  0.5197920000000 1.0
C      1  0.4691890000000  0.5007410000000  0.4571930000000 1.0
C      1  0.4791950000000  0.5502510000000  0.4652820000000 1.0
C      1  0.4652950000000  0.4345660000000  0.4960360000000 1.0
C      1  0.5540180000000  0.5258480000000  0.5338360000000 1.0
C      1  0.5017600000000  0.5466530000000  0.4980140000000 1.0
C      1  0.5384310000000  0.5921080000000  0.5430360000000 1.0
C      1  0.5178130000000  0.4643730000000  0.4467180000000 1.0
C      1  0.5375150000000  0.4737120000000  0.5370430000000 1.0
C      1  0.5311970000000  0.5407240000000  0.5433910000000 1.0
C      1  0.4396900000000  0.4537340000000  0.5036630000000 1.0
C      1  0.5612150000000  0.4957440000000  0.4956210000000 1.0
C      1  0.4306220000000  0.4657420000000  0.5271450000000 1.0
C      1  0.4965360000000  0.5603960000000  0.5421770000000 1.0
C      1  0.5215550000000  0.5026980000000  0.5357670000000 1.0
C      1  0.4465300000000  0.4623870000000  0.4745860000000 1.0
C      1  0.5625870000000  0.5433880000000  0.4845050000000 1.0
C      1  0.4535300000000  0.5437910000000  0.5201470000000 1.0
C      1  0.5175410000000  0.4918760000000  0.4306200000000 1.0
C      1  0.5629830000000  0.5246030000000  0.5063390000000 1.0
C      1  0.4448440000000  0.4904250000000  0.4683780000000 1.0
C      1  0.5080090000000  0.5236700000000  0.5546690000000 1.0
C      1  0.4922340000000  0.4654920000000  0.5651440000000 1.0
C      1  0.5117930000000  0.5038780000000  0.4844930000000 1.0
C      1  0.5522100000000  0.5260650000000  0.4306190000000 1.0
C      1  0.4758230000000  0.4881210000000  0.5701390000000 1.0
C      1  0.4480210000000  0.4810910000000  0.5715420000000 1.0
C      1  0.5578680000000  0.4933030000000  0.4559080000000 1.0
C      1  0.5547640000000  0.4980470000000  0.5460100000000 1.0
C      1  0.5041410000000  0.5018700000000  0.5114660000000 1.0
C      1  0.5392880000000  0.5118340000000  0.4768550000000 1.0
C      1  0.4321150000000  0.4847660000000  0.5483270000000 1.0
C      1  0.4933400000000  0.4154280000000  0.4918570000000 1.0
C      1  0.4823000000000  0.5156690000000  0.5631550000000 1.0
C      1  0.5249750000000  0.5686160000000  0.4992290000000 1.0
C      1  0.4775660000000  0.5280520000000  0.4469860000000 1.0
C      1  0.4973950000000  0.4435820000000  0.4549170000000 1.0
C      1  0.5428410000000  0.5012170000000  0.4197170000000 1.0
C      1  0.4614460000000  0.5510830000000  0.4878490000000 1.0
C      1  0.4346630000000  0.5052580000000  0.4902560000000 1.0
C      1  0.4262430000000  0.5279980000000  0.5095460000000 1.0
C      1  0.4711780000000  0.4476240000000  0.4648760000000 1.0
C      1  0.5076230000000  0.5628210000000  0.4705210000000 1.0
C      1  0.5592080000000  0.4687540000000  0.4916580000000 1.0
C      1  0.4891530000000  0.4701040000000  0.4924950000000 1.0
C      1  0.4889230000000  0.4326400000000  0.5198280000000 1.0
C      1  0.4345980000000  0.5150340000000  0.5398870000000 1.0
C      1  0.4991740000000  0.4460440000000  0.5464150000000 1.0
C      1  0.4568580000000  0.5341790000000  0.5530020000000 1.0
C      1  0.4977760000000  0.5120270000000  0.4317190000000 1.0
C      1  0.4769590000000  0.4873320000000  0.5147810000000 1.0
C      1  0.5492010000000  0.4675480000000  0.4529760000000 1.0
C      1  0.5336820000000  0.4542500000000  0.4785870000000 1.0
END
