TITL C-2778427-5640-72 0.00305118357991725 125000 -840.731905077595 0 0 148 (C1) n - 1
REM
REM in /home/nfs/bkarasulu/CARBON/AIRSS/Generating-Clusters/REBO/Only-C1/SD-CG/HFTN-CG
REM
REM
REM
REM
REM
REM ./C.cell (11c1c37f851c82e70ff6c80c92926a4b)
REM
REM compiler GCC version 9.2.1 20190827 (Red Hat 9.2.1-1)
REM options -cpp -mtune=generic -march=x86-64 -g -O0 -fpre-include=/usr/include/finclude/math-vector-fortran.h
REM seed 1367621045 285426648 -2056510898 17911347 1079512626 -1052239042 -643420412 1918652093 208111795 1889588239 1845306117 -1294988863 -292754500 399857982 938703005 242054443 652537439 -462823249 395049568 1508841206 -107426900 1471951386 -1771071853 2068874057 -486876528 -551926154 -1566704477 898579026 -1543900422 -2113813776 139217588 -1733286748 1023384152
REM
CELL 1.54180   50.00000   50.00000   50.00000   90.00000   90.00000   90.00000
LATT -1
SFAC C  
C      1  0.5907710000000  0.4792600000000  0.4545090000000 1.0
C      1  0.4797520000000  0.4414970000000  0.4886880000000 1.0
C      1  0.4953550000000  0.3976830000000  0.4849150000000 1.0
C      1  0.4150290000000  0.4803040000000  0.5339100000000 1.0
C      1  0.4191240000000  0.5646430000000  0.5104240000000 1.0
C      1  0.4731300000000  0.4250430000000  0.4455730000000 1.0
C      1  0.4455690000000  0.4046100000000  0.4872060000000 1.0
C      1  0.4194420000000  0.5793660000000  0.4799720000000 1.0
C      1  0.4634830000000  0.5349320000000  0.4245710000000 1.0
C      1  0.5088260000000  0.5033900000000  0.4596880000000 1.0
C      1  0.4314410000000  0.5040500000000  0.4851800000000 1.0
C      1  0.4502650000000  0.4518180000000  0.4641200000000 1.0
C      1  0.5242560000000  0.5748280000000  0.5650210000000 1.0
C      1  0.5682020000000  0.4571290000000  0.4414770000000 1.0
C      1  0.5067200000000  0.5055640000000  0.5196590000000 1.0
C      1  0.5105880000000  0.4343710000000  0.4881300000000 1.0
C      1  0.5650710000000  0.4438010000000  0.5089990000000 1.0
C      1  0.4954970000000  0.4119290000000  0.4590270000000 1.0
C      1  0.4678870000000  0.4976780000000  0.5864570000000 1.0
C      1  0.5393630000000  0.5499480000000  0.5829460000000 1.0
C      1  0.4235160000000  0.4373920000000  0.5436910000000 1.0
C      1  0.4941610000000  0.4424680000000  0.4164210000000 1.0
C      1  0.5313120000000  0.5363210000000  0.4599060000000 1.0
C      1  0.5443530000000  0.4627900000000  0.5237350000000 1.0
C      1  0.5622630000000  0.5636410000000  0.5616840000000 1.0
C      1  0.4276980000000  0.4982140000000  0.5500370000000 1.0
C      1  0.5396540000000  0.4682510000000  0.4554930000000 1.0
C      1  0.4429390000000  0.4620090000000  0.5571590000000 1.0
C      1  0.5543790000000  0.5087870000000  0.5455420000000 1.0
C      1  0.6009970000000  0.5493430000000  0.4727360000000 1.0
C      1  0.4822850000000  0.4551140000000  0.5571880000000 1.0
C      1  0.5844940000000  0.4734890000000  0.5369380000000 1.0
C      1  0.4541080000000  0.5128470000000  0.5603870000000 1.0
C      1  0.5709230000000  0.5098880000000  0.5752300000000 1.0
C      1  0.5938510000000  0.5348900000000  0.5186530000000 1.0
C      1  0.4431220000000  0.4887460000000  0.4321740000000 1.0
C      1  0.4819720000000  0.4646620000000  0.4638930000000 1.0
C      1  0.4372320000000  0.5533380000000  0.5342750000000 1.0
C      1  0.4627950000000  0.5734110000000  0.5405560000000 1.0
C      1  0.4865680000000  0.5260110000000  0.4468150000000 1.0
C      1  0.5666470000000  0.5104030000000  0.4913630000000 1.0
C      1  0.4840620000000  0.4711200000000  0.5033850000000 1.0
C      1  0.4655520000000  0.4531310000000  0.4273500000000 1.0
C      1  0.5329370000000  0.5204360000000  0.5670380000000 1.0
C      1  0.4852780000000  0.5954180000000  0.4899710000000 1.0
C      1  0.5818920000000  0.5518890000000  0.5452360000000 1.0
C      1  0.5470130000000  0.4062020000000  0.4797410000000 1.0
C      1  0.4544170000000  0.4766620000000  0.5295810000000 1.0
C      1  0.5204260000000  0.5449560000000  0.5486390000000 1.0
C      1  0.4833940000000  0.4468890000000  0.5280410000000 1.0
C      1  0.5550310000000  0.4238750000000  0.5420500000000 1.0
C      1  0.5172570000000  0.4823140000000  0.4255340000000 1.0
C      1  0.4328190000000  0.4618510000000  0.4409610000000 1.0
C      1  0.4020260000000  0.4514560000000  0.5213920000000 1.0
C      1  0.4532090000000  0.4712950000000  0.4901560000000 1.0
C      1  0.4809280000000  0.5115620000000  0.4981740000000 1.0
C      1  0.4480430000000  0.4200040000000  0.4618520000000 1.0
C      1  0.5168420000000  0.5503490000000  0.4384700000000 1.0
C      1  0.4529120000000  0.4325960000000  0.4994250000000 1.0
C      1  0.5219790000000  0.4584150000000  0.5563530000000 1.0
C      1  0.5061340000000  0.4783190000000  0.5362130000000 1.0
C      1  0.5063480000000  0.4630030000000  0.4484860000000 1.0
C      1  0.5553550000000  0.5731950000000  0.5238220000000 1.0
C      1  0.3773760000000  0.5089410000000  0.5365190000000 1.0
C      1  0.6025300000000  0.4985710000000  0.4786590000000 1.0
C      1  0.5723310000000  0.4476990000000  0.5479290000000 1.0
C      1  0.5506510000000  0.4685360000000  0.5575220000000 1.0
C      1  0.4210880000000  0.5406520000000  0.4881410000000 1.0
C      1  0.5392400000000  0.4942200000000  0.5215840000000 1.0
C      1  0.5060940000000  0.5432180000000  0.5880630000000 1.0
C      1  0.5775130000000  0.5679830000000  0.4837200000000 1.0
C      1  0.5864920000000  0.5566070000000  0.4466170000000 1.0
C      1  0.5499410000000  0.4389220000000  0.4839150000000 1.0
C      1  0.5882430000000  0.4880330000000  0.5062710000000 1.0
C      1  0.4877240000000  0.5280540000000  0.5336310000000 1.0
C      1  0.4000980000000  0.5168970000000  0.5280500000000 1.0
C      1  0.5212020000000  0.4940030000000  0.5848470000000 1.0
C      1  0.4492730000000  0.5790260000000  0.4302760000000 1.0
C      1  0.5092960000000  0.5307290000000  0.4123390000000 1.0
C      1  0.5437070000000  0.4994610000000  0.4161420000000 1.0
C      1  0.5250170000000  0.4265050000000  0.5513340000000 1.0
C      1  0.4744820000000  0.5819060000000  0.4261770000000 1.0
C      1  0.5253960000000  0.5370530000000  0.4932370000000 1.0
C      1  0.4936970000000  0.4173030000000  0.5626450000000 1.0
C      1  0.4902330000000  0.5543490000000  0.5624980000000 1.0
C      1  0.4041330000000  0.4578760000000  0.4880430000000 1.0
C      1  0.5459420000000  0.5909700000000  0.5488450000000 1.0
C      1  0.4513880000000  0.5043190000000  0.4598100000000 1.0
C      1  0.4354980000000  0.5502750000000  0.4362720000000 1.0
C      1  0.4596310000000  0.5136090000000  0.4056420000000 1.0
C      1  0.4800200000000  0.5378320000000  0.4764180000000 1.0
C      1  0.5277820000000  0.6015360000000  0.5231120000000 1.0
C      1  0.5402320000000  0.5469110000000  0.5223840000000 1.0
C      1  0.4124480000000  0.4970670000000  0.4581820000000 1.0
C      1  0.4247040000000  0.4777090000000  0.5029310000000 1.0
C      1  0.4947200000000  0.5857520000000  0.5611920000000 1.0
C      1  0.5229380000000  0.4001010000000  0.5033820000000 1.0
C      1  0.5015310000000  0.5447000000000  0.5135460000000 1.0
C      1  0.5229360000000  0.4277400000000  0.4566580000000 1.0
C      1  0.5571330000000  0.5647980000000  0.4497310000000 1.0
C      1  0.5518860000000  0.4876350000000  0.5793860000000 1.0
C      1  0.5324140000000  0.5872680000000  0.4862010000000 1.0
C      1  0.4950230000000  0.4816310000000  0.5743950000000 1.0
C      1  0.4890940000000  0.5555180000000  0.4200840000000 1.0
C      1  0.4666430000000  0.4339690000000  0.5762750000000 1.0
C      1  0.4942880000000  0.5029670000000  0.4224520000000 1.0
C      1  0.4561510000000  0.4657740000000  0.5845300000000 1.0
C      1  0.5099630000000  0.5830480000000  0.4400280000000 1.0
C      1  0.5600930000000  0.5835670000000  0.4982710000000 1.0
C      1  0.4294850000000  0.5188820000000  0.4381690000000 1.0
C      1  0.5630570000000  0.5261010000000  0.5214430000000 1.0
C      1  0.6047140000000  0.5273470000000  0.4913650000000 1.0
C      1  0.4441160000000  0.4475090000000  0.5205520000000 1.0
C      1  0.5111080000000  0.6111010000000  0.4961940000000 1.0
C      1  0.5115440000000  0.5741450000000  0.5104710000000 1.0
C      1  0.4479160000000  0.5825830000000  0.4894360000000 1.0
C      1  0.4167290000000  0.5541650000000  0.4609240000000 1.0
C      1  0.5229480000000  0.4429310000000  0.4267800000000 1.0
C      1  0.4594910000000  0.5434590000000  0.5567020000000 1.0
C      1  0.4717530000000  0.3976050000000  0.5009660000000 1.0
C      1  0.5538980000000  0.4116220000000  0.5126500000000 1.0
C      1  0.5463190000000  0.4655500000000  0.4166500000000 1.0
C      1  0.5898190000000  0.4557220000000  0.5019980000000 1.0
C      1  0.4525760000000  0.4214930000000  0.5496580000000 1.0
C      1  0.4811460000000  0.4981870000000  0.5488670000000 1.0
C      1  0.5335000000000  0.5066260000000  0.4909730000000 1.0
C      1  0.4747650000000  0.4143350000000  0.5273990000000 1.0
C      1  0.5346960000000  0.5810790000000  0.4567040000000 1.0
C      1  0.4685950000000  0.4846900000000  0.4144210000000 1.0
C      1  0.5278600000000  0.4598650000000  0.4818780000000 1.0
C      1  0.4829300000000  0.5214190000000  0.6013540000000 1.0
C      1  0.4773980000000  0.4952960000000  0.4700290000000 1.0
C      1  0.5146330000000  0.4501850000000  0.5180680000000 1.0
C      1  0.5064770000000  0.4076580000000  0.5321760000000 1.0
C      1  0.5049590000000  0.4437460000000  0.5810280000000 1.0
C      1  0.5108870000000  0.4833360000000  0.4873640000000 1.0
C      1  0.5339490000000  0.5213190000000  0.4001030000000 1.0
C      1  0.5569650000000  0.4276790000000  0.4545160000000 1.0
C      1  0.4730610000000  0.5664190000000  0.4787290000000 1.0
C      1  0.4540220000000  0.5936170000000  0.5148350000000 1.0
C      1  0.5144080000000  0.5161330000000  0.6051280000000 1.0
C      1  0.5624510000000  0.5392000000000  0.4732650000000 1.0
C      1  0.4275910000000  0.5265670000000  0.5177670000000 1.0
C      1  0.5623960000000  0.4919830000000  0.4629780000000 1.0
C      1  0.4526160000000  0.5043990000000  0.5125220000000 1.0
C      1  0.4864820000000  0.5917350000000  0.5244040000000 1.0
C      1  0.4063460000000  0.4670620000000  0.4598320000000 1.0
C      1  0.5392890000000  0.5072170000000  0.4475950000000 1.0
END
