TITL C-2778431-5191-357 0.00149668704688538 125000 -644.249448870747 0 0 112 (C1) n - 1
REM
REM in /home/nfs/bkarasulu/CARBON/AIRSS/Generating-Clusters/REBO/Only-C1/SD-CG/HFTN-CG
REM
REM
REM
REM
REM
REM ./C.cell (11c1c37f851c82e70ff6c80c92926a4b)
REM
REM compiler GCC version 9.2.1 20190827 (Red Hat 9.2.1-1)
REM options -cpp -mtune=generic -march=x86-64 -g -O0 -fpre-include=/usr/include/finclude/math-vector-fortran.h
REM seed -1744463007 -1214971210 -695700773 -1884185736 -1281142733 776978784 -720762444 -1349483714 1177067813 -349965277 -895048451 864496993 1290233531 884183149 67686832 -296507338 1437022790 -369307088 1550995698 -950814237 1319308425 1194050849 -478451569 -824103093 -121482480 975331301 -938069940 -111112387 1361015176 -1452571083 -1947425377 -374845178 1985712312
REM
CELL 1.54180   50.00000   50.00000   50.00000   90.00000   90.00000   90.00000
LATT -1
SFAC C  
C      1  0.5176350000000  0.4336870000000  0.5426190000000 1.0
C      1  0.5648140000000  0.5294200000000  0.4612680000000 1.0
C      1  0.5311700000000  0.4917680000000  0.4176230000000 1.0
C      1  0.5110910000000  0.5121480000000  0.4454880000000 1.0
C      1  0.5749630000000  0.4769140000000  0.5197110000000 1.0
C      1  0.4360720000000  0.4488660000000  0.5258580000000 1.0
C      1  0.5285170000000  0.4841240000000  0.4485540000000 1.0
C      1  0.5018550000000  0.5208040000000  0.5744660000000 1.0
C      1  0.5211270000000  0.5548790000000  0.5448990000000 1.0
C      1  0.4643260000000  0.5405040000000  0.4943610000000 1.0
C      1  0.4548790000000  0.4365580000000  0.4403510000000 1.0
C      1  0.5161570000000  0.5678030000000  0.4443130000000 1.0
C      1  0.4326030000000  0.5239700000000  0.4765580000000 1.0
C      1  0.5560210000000  0.5729940000000  0.4780680000000 1.0
C      1  0.5042300000000  0.6030670000000  0.4997830000000 1.0
C      1  0.5157200000000  0.4474150000000  0.4396030000000 1.0
C      1  0.5405260000000  0.5190180000000  0.4174170000000 1.0
C      1  0.5354390000000  0.5210580000000  0.4753040000000 1.0
C      1  0.5648610000000  0.5235240000000  0.4301710000000 1.0
C      1  0.5427770000000  0.4567860000000  0.4560390000000 1.0
C      1  0.5843500000000  0.4509320000000  0.4261820000000 1.0
C      1  0.4853290000000  0.5370900000000  0.4113970000000 1.0
C      1  0.4683330000000  0.5639920000000  0.4495390000000 1.0
C      1  0.5082830000000  0.4701800000000  0.4172890000000 1.0
C      1  0.4700210000000  0.4794010000000  0.5880510000000 1.0
C      1  0.4931600000000  0.4614040000000  0.4580920000000 1.0
C      1  0.5146730000000  0.5437020000000  0.4898940000000 1.0
C      1  0.5707880000000  0.5292220000000  0.4932540000000 1.0
C      1  0.5093520000000  0.5853740000000  0.5507720000000 1.0
C      1  0.5265480000000  0.5730800000000  0.4901770000000 1.0
C      1  0.5009830000000  0.5541940000000  0.5192030000000 1.0
C      1  0.4267420000000  0.5249120000000  0.5287050000000 1.0
C      1  0.4204960000000  0.5475660000000  0.5701850000000 1.0
C      1  0.4946440000000  0.5074000000000  0.4198700000000 1.0
C      1  0.4329370000000  0.5640620000000  0.5241750000000 1.0
C      1  0.5391690000000  0.4518900000000  0.4887740000000 1.0
C      1  0.4959820000000  0.5238830000000  0.4705370000000 1.0
C      1  0.4391330000000  0.4350930000000  0.4955660000000 1.0
C      1  0.4982040000000  0.5054600000000  0.5186430000000 1.0
C      1  0.4127110000000  0.4292600000000  0.4819670000000 1.0
C      1  0.5165940000000  0.4082920000000  0.4801520000000 1.0
C      1  0.4549660000000  0.4636360000000  0.5698520000000 1.0
C      1  0.4624620000000  0.5127160000000  0.4204330000000 1.0
C      1  0.5806400000000  0.4911480000000  0.5578370000000 1.0
C      1  0.5425310000000  0.4843270000000  0.5264750000000 1.0
C      1  0.4679570000000  0.4171120000000  0.4553100000000 1.0
C      1  0.4524370000000  0.4629700000000  0.4926680000000 1.0
C      1  0.5974850000000  0.4877510000000  0.4963040000000 1.0
C      1  0.5876270000000  0.5133790000000  0.5094920000000 1.0
C      1  0.5599000000000  0.4760420000000  0.4914290000000 1.0
C      1  0.4351060000000  0.4747000000000  0.5480850000000 1.0
C      1  0.5090860000000  0.4668730000000  0.4854260000000 1.0
C      1  0.5565670000000  0.4371660000000  0.5350450000000 1.0
C      1  0.4664480000000  0.5719510000000  0.4952370000000 1.0
C      1  0.4857580000000  0.5817360000000  0.5165900000000 1.0
C      1  0.5448570000000  0.4302510000000  0.5095820000000 1.0
C      1  0.5291830000000  0.5119550000000  0.5136460000000 1.0
C      1  0.5098920000000  0.4044340000000  0.5271970000000 1.0
C      1  0.5845090000000  0.4733430000000  0.4712360000000 1.0
C      1  0.4618720000000  0.4857970000000  0.5138110000000 1.0
C      1  0.5439520000000  0.5592650000000  0.5233060000000 1.0
C      1  0.5387610000000  0.4544750000000  0.5573530000000 1.0
C      1  0.4681930000000  0.4421710000000  0.5231050000000 1.0
C      1  0.4739050000000  0.5115260000000  0.5914630000000 1.0
C      1  0.4728230000000  0.4795570000000  0.4747480000000 1.0
C      1  0.5810430000000  0.4500880000000  0.5325850000000 1.0
C      1  0.5058090000000  0.5893380000000  0.4686610000000 1.0
C      1  0.4569600000000  0.5253080000000  0.5428200000000 1.0
C      1  0.4777870000000  0.4099970000000  0.5174700000000 1.0
C      1  0.5240150000000  0.5286350000000  0.5595710000000 1.0
C      1  0.4915820000000  0.4274120000000  0.4845460000000 1.0
C      1  0.4902690000000  0.5725260000000  0.5759200000000 1.0
C      1  0.4867230000000  0.5641410000000  0.4276930000000 1.0
C      1  0.4883070000000  0.4645280000000  0.5101610000000 1.0
C      1  0.4084610000000  0.4865680000000  0.4980170000000 1.0
C      1  0.4681920000000  0.4603100000000  0.4380160000000 1.0
C      1  0.4253800000000  0.5462940000000  0.5013830000000 1.0
C      1  0.4883840000000  0.4195860000000  0.5487650000000 1.0
C      1  0.4800620000000  0.5308230000000  0.5222620000000 1.0
C      1  0.4764110000000  0.5916200000000  0.5444840000000 1.0
C      1  0.5298720000000  0.4069940000000  0.5047420000000 1.0
C      1  0.4448340000000  0.4884980000000  0.4628280000000 1.0
C      1  0.4622230000000  0.5721440000000  0.5645280000000 1.0
C      1  0.5172700000000  0.5394930000000  0.4254010000000 1.0
C      1  0.5016270000000  0.4218100000000  0.4527570000000 1.0
C      1  0.4676490000000  0.5368730000000  0.4627250000000 1.0
C      1  0.4682350000000  0.4420760000000  0.5573250000000 1.0
C      1  0.4487830000000  0.5163840000000  0.4478000000000 1.0
C      1  0.5783220000000  0.5126820000000  0.5369440000000 1.0
C      1  0.5325080000000  0.4912550000000  0.4876440000000 1.0
C      1  0.4618240000000  0.4944400000000  0.5453840000000 1.0
C      1  0.5547150000000  0.4794430000000  0.5642710000000 1.0
C      1  0.5032960000000  0.4985570000000  0.5988800000000 1.0
C      1  0.4091390000000  0.5163220000000  0.5006350000000 1.0
C      1  0.4614480000000  0.4160270000000  0.4888630000000 1.0
C      1  0.4214100000000  0.4793060000000  0.4735910000000 1.0
C      1  0.4744140000000  0.5825470000000  0.4696630000000 1.0
C      1  0.5460800000000  0.5092920000000  0.5497410000000 1.0
C      1  0.4941550000000  0.4850650000000  0.5436940000000 1.0
C      1  0.4759320000000  0.4811980000000  0.4164990000000 1.0
C      1  0.4422160000000  0.5527910000000  0.5528560000000 1.0
C      1  0.5250060000000  0.5869000000000  0.5213980000000 1.0
C      1  0.4886160000000  0.5009190000000  0.4888130000000 1.0
C      1  0.5793910000000  0.5834520000000  0.4809100000000 1.0
C      1  0.5728460000000  0.4598990000000  0.4494450000000 1.0
C      1  0.5393020000000  0.5513720000000  0.4593240000000 1.0
C      1  0.4485530000000  0.5133550000000  0.5051850000000 1.0
C      1  0.5000920000000  0.4697840000000  0.5886190000000 1.0
C      1  0.5090190000000  0.4677830000000  0.5614270000000 1.0
C      1  0.5484630000000  0.5358030000000  0.5097890000000 1.0
C      1  0.5191620000000  0.4613480000000  0.5234730000000 1.0
C      1  0.4140870000000  0.4730320000000  0.5219860000000 1.0
END
