TITL C-2778429-3646-1219 -0.0738155931501035 125000 -243.759581047289 0 0 45 (C1) n - 1
REM
REM in /home/nfs/bkarasulu/CARBON/AIRSS/Generating-Clusters/REBO/Only-C1/SD-CG/HFTN-CG
REM
REM
REM
REM
REM
REM ./C.cell (11c1c37f851c82e70ff6c80c92926a4b)
REM
REM compiler GCC version 9.2.1 20190827 (Red Hat 9.2.1-1)
REM options -cpp -mtune=generic -march=x86-64 -g -O0 -fpre-include=/usr/include/finclude/math-vector-fortran.h
REM seed -754955527 147914620 -554533774 -779658836 849701617 757687370 -1342438640 1587017774 -1763009095 -1195795767 -1048860700 -684123961 878428071 -550390797 -1590595814 -833962496 -1892225297 1384629776 1799069331 2055835447 -1450340881 -1305446457 -863907156 398181393 416134547 441477378 -554364658 -2044226717 1575644711 549139544 -1260929659 2112492586 -388836230
REM
CELL 1.54180   50.00000   50.00000   50.00000   90.00000   90.00000   90.00000
LATT -1
SFAC C  
C      1  0.4622080000000  0.4619930000000  0.4672540000000 1.0
C      1  0.4879040000000  0.4459840000000  0.5309530000000 1.0
C      1  0.5727000000000  0.4513770000000  0.4896440000000 1.0
C      1  0.5741730000000  0.4960770000000  0.4781180000000 1.0
C      1  0.5548380000000  0.5277810000000  0.5280860000000 1.0
C      1  0.5379510000000  0.4872900000000  0.5335100000000 1.0
C      1  0.5018900000000  0.4930550000000  0.4573500000000 1.0
C      1  0.5318420000000  0.5466750000000  0.4910130000000 1.0
C      1  0.4998140000000  0.4776440000000  0.5262860000000 1.0
C      1  0.5056270000000  0.5445040000000  0.5377350000000 1.0
C      1  0.4579250000000  0.5286430000000  0.5490850000000 1.0
C      1  0.4720160000000  0.4377530000000  0.4844340000000 1.0
C      1  0.5265720000000  0.4449340000000  0.4757960000000 1.0
C      1  0.4306230000000  0.4622390000000  0.4544780000000 1.0
C      1  0.5071990000000  0.5606360000000  0.4910330000000 1.0
C      1  0.4929630000000  0.5595860000000  0.4665320000000 1.0
C      1  0.4846780000000  0.5616090000000  0.4362430000000 1.0
C      1  0.4783900000000  0.5321040000000  0.4291530000000 1.0
C      1  0.5441710000000  0.4942800000000  0.4864530000000 1.0
C      1  0.4513030000000  0.5376210000000  0.4987470000000 1.0
C      1  0.4679310000000  0.4351050000000  0.5111170000000 1.0
C      1  0.4869750000000  0.5296180000000  0.4595100000000 1.0
C      1  0.5063760000000  0.4471130000000  0.4502890000000 1.0
C      1  0.4380670000000  0.5058290000000  0.4962100000000 1.0
C      1  0.5748330000000  0.5133450000000  0.5394180000000 1.0
C      1  0.5294700000000  0.4946630000000  0.4565570000000 1.0
C      1  0.5461450000000  0.4608230000000  0.4924320000000 1.0
C      1  0.5466710000000  0.5250580000000  0.5010330000000 1.0
C      1  0.4494270000000  0.5107820000000  0.5282200000000 1.0
C      1  0.4880150000000  0.4697600000000  0.4509540000000 1.0
C      1  0.4922870000000  0.5082490000000  0.4831460000000 1.0
C      1  0.4702660000000  0.5103260000000  0.5012890000000 1.0
C      1  0.5141160000000  0.4968370000000  0.5029530000000 1.0
C      1  0.4968280000000  0.4963410000000  0.5548480000000 1.0
C      1  0.5369470000000  0.4626190000000  0.5217740000000 1.0
C      1  0.4795160000000  0.4687660000000  0.5529360000000 1.0
C      1  0.4977740000000  0.4286410000000  0.4747790000000 1.0
C      1  0.5197340000000  0.4431790000000  0.5300070000000 1.0
C      1  0.4919890000000  0.5596260000000  0.5149600000000 1.0
C      1  0.4625450000000  0.5590030000000  0.5149000000000 1.0
C      1  0.5166720000000  0.5129570000000  0.5329160000000 1.0
C      1  0.4519280000000  0.5561600000000  0.5418750000000 1.0
C      1  0.5377490000000  0.5452990000000  0.5430300000000 1.0
C      1  0.4370520000000  0.4826340000000  0.4779190000000 1.0
C      1  0.4859020000000  0.5254830000000  0.5550240000000 1.0
END
