TITL C-2778430-5657-87 0.00454556790052243 125000 -974.579879261544 0 0 167 (C1) n - 1
REM
REM in /home/nfs/bkarasulu/CARBON/AIRSS/Generating-Clusters/REBO/Only-C1/SD-CG/HFTN-CG
REM
REM
REM
REM
REM
REM ./C.cell (11c1c37f851c82e70ff6c80c92926a4b)
REM
REM compiler GCC version 9.2.1 20190827 (Red Hat 9.2.1-1)
REM options -cpp -mtune=generic -march=x86-64 -g -O0 -fpre-include=/usr/include/finclude/math-vector-fortran.h
REM seed 726881412 2096603588 1224109691 -980956027 -2086737217 -841693670 389805984 -1508108574 -651993534 -1840297697 1319972971 354587590 1445430146 1721923445 2115616817 -20226536 -1532973429 1245416696 -55570169 -602468888 -3766082 -1548239095 -1571850472 495971027 1244221923 -1518134987 1844601238 -1438990299 2062863019 -260438583 -396933875 902405243 -686083766
REM
CELL 1.54180   50.00000   50.00000   50.00000   90.00000   90.00000   90.00000
LATT -1
SFAC C  
C      1  0.4738710000000  0.4923690000000  0.5937020000000 1.0
C      1  0.5791110000000  0.4484660000000  0.5150890000000 1.0
C      1  0.5842980000000  0.4539460000000  0.5742880000000 1.0
C      1  0.4634640000000  0.4890520000000  0.5356240000000 1.0
C      1  0.4541460000000  0.4531380000000  0.5654630000000 1.0
C      1  0.4566300000000  0.4851630000000  0.4034150000000 1.0
C      1  0.4886220000000  0.5372140000000  0.4393620000000 1.0
C      1  0.5737730000000  0.4300120000000  0.5604780000000 1.0
C      1  0.4922400000000  0.5773430000000  0.5570670000000 1.0
C      1  0.4877030000000  0.4652550000000  0.4411450000000 1.0
C      1  0.4711690000000  0.4903000000000  0.4401840000000 1.0
C      1  0.5851130000000  0.5324060000000  0.5296210000000 1.0
C      1  0.4705870000000  0.5430450000000  0.5691550000000 1.0
C      1  0.5490290000000  0.4618950000000  0.4082540000000 1.0
C      1  0.4856500000000  0.5236550000000  0.3926400000000 1.0
C      1  0.4343820000000  0.4782500000000  0.5607640000000 1.0
C      1  0.4958240000000  0.4841750000000  0.4939540000000 1.0
C      1  0.5136600000000  0.6011560000000  0.5093460000000 1.0
C      1  0.4964940000000  0.5155260000000  0.6049760000000 1.0
C      1  0.5413870000000  0.5665720000000  0.4187070000000 1.0
C      1  0.4598390000000  0.5698470000000  0.4752510000000 1.0
C      1  0.4106320000000  0.6031370000000  0.4309620000000 1.0
C      1  0.4673070000000  0.4641920000000  0.5219700000000 1.0
C      1  0.5571400000000  0.5212420000000  0.4148860000000 1.0
C      1  0.5275920000000  0.4064520000000  0.4895360000000 1.0
C      1  0.4589200000000  0.5574490000000  0.5990180000000 1.0
C      1  0.4497870000000  0.4627930000000  0.4610000000000 1.0
C      1  0.4902120000000  0.6163840000000  0.4900960000000 1.0
C      1  0.4638930000000  0.4281130000000  0.6024970000000 1.0
C      1  0.5732480000000  0.5244640000000  0.4383070000000 1.0
C      1  0.5609500000000  0.5343830000000  0.5126200000000 1.0
C      1  0.5296440000000  0.5621380000000  0.4862110000000 1.0
C      1  0.4740370000000  0.4364210000000  0.5132510000000 1.0
C      1  0.4084880000000  0.4967100000000  0.5094500000000 1.0
C      1  0.5002020000000  0.4993850000000  0.5470670000000 1.0
C      1  0.4930770000000  0.4198730000000  0.5355100000000 1.0
C      1  0.5929490000000  0.4672410000000  0.4953270000000 1.0
C      1  0.6070730000000  0.5310910000000  0.5123910000000 1.0
C      1  0.4504800000000  0.5094340000000  0.5171280000000 1.0
C      1  0.5695010000000  0.4850760000000  0.4333210000000 1.0
C      1  0.5369930000000  0.5131280000000  0.5069600000000 1.0
C      1  0.5670400000000  0.5234920000000  0.4826840000000 1.0
C      1  0.4935700000000  0.5366750000000  0.5030820000000 1.0
C      1  0.5153910000000  0.4557310000000  0.4681250000000 1.0
C      1  0.5373860000000  0.5705510000000  0.5403500000000 1.0
C      1  0.5880350000000  0.4990730000000  0.4555770000000 1.0
C      1  0.4705770000000  0.5025550000000  0.4783740000000 1.0
C      1  0.4504460000000  0.4230720000000  0.5584320000000 1.0
C      1  0.5036850000000  0.4981880000000  0.5783060000000 1.0
C      1  0.5044580000000  0.5062610000000  0.5143700000000 1.0
C      1  0.5281960000000  0.5365140000000  0.4480710000000 1.0
C      1  0.4214290000000  0.5813340000000  0.4389000000000 1.0
C      1  0.4341850000000  0.5518760000000  0.4322070000000 1.0
C      1  0.5064260000000  0.4606930000000  0.5145880000000 1.0
C      1  0.5623150000000  0.4925990000000  0.4012870000000 1.0
C      1  0.5429680000000  0.4794020000000  0.4516410000000 1.0
C      1  0.5662410000000  0.5703950000000  0.5541680000000 1.0
C      1  0.4133480000000  0.5695140000000  0.5367330000000 1.0
C      1  0.5379550000000  0.5423030000000  0.5894460000000 1.0
C      1  0.4127360000000  0.5526240000000  0.4853940000000 1.0
C      1  0.5727040000000  0.5810220000000  0.5250740000000 1.0
C      1  0.5050070000000  0.4622130000000  0.4204290000000 1.0
C      1  0.4561240000000  0.4817790000000  0.4971410000000 1.0
C      1  0.4953010000000  0.5129090000000  0.4625040000000 1.0
C      1  0.4460080000000  0.4396860000000  0.4368880000000 1.0
C      1  0.5292070000000  0.5944720000000  0.4627100000000 1.0
C      1  0.4197660000000  0.4880160000000  0.5325520000000 1.0
C      1  0.5236080000000  0.5116290000000  0.4343160000000 1.0
C      1  0.5399950000000  0.5553770000000  0.5138260000000 1.0
C      1  0.5455220000000  0.4158610000000  0.4571570000000 1.0
C      1  0.5613370000000  0.5569850000000  0.4797720000000 1.0
C      1  0.5161380000000  0.4085160000000  0.4441500000000 1.0
C      1  0.5028260000000  0.4596250000000  0.5484170000000 1.0
C      1  0.5078660000000  0.5410430000000  0.4741350000000 1.0
C      1  0.4233670000000  0.4417140000000  0.4893320000000 1.0
C      1  0.5269980000000  0.5178880000000  0.5452970000000 1.0
C      1  0.5031640000000  0.6070130000000  0.4600260000000 1.0
C      1  0.5347990000000  0.5403030000000  0.4088450000000 1.0
C      1  0.4182020000000  0.5246460000000  0.4285310000000 1.0
C      1  0.5374860000000  0.4459090000000  0.4485120000000 1.0
C      1  0.5543270000000  0.4978910000000  0.5509910000000 1.0
C      1  0.4740140000000  0.4339540000000  0.4180330000000 1.0
C      1  0.4575990000000  0.5287090000000  0.4337310000000 1.0
C      1  0.4551970000000  0.5997910000000  0.5274350000000 1.0
C      1  0.4337280000000  0.4268260000000  0.4664410000000 1.0
C      1  0.4661130000000  0.5980150000000  0.5529610000000 1.0
C      1  0.5304080000000  0.4735930000000  0.5438400000000 1.0
C      1  0.5366620000000  0.4676800000000  0.4893560000000 1.0
C      1  0.4784830000000  0.4748960000000  0.5585230000000 1.0
C      1  0.5149860000000  0.5415820000000  0.5244420000000 1.0
C      1  0.5517900000000  0.4917370000000  0.5840290000000 1.0
C      1  0.5276860000000  0.4376810000000  0.5264810000000 1.0
C      1  0.5247560000000  0.4426370000000  0.4108120000000 1.0
C      1  0.5300520000000  0.4906830000000  0.4082150000000 1.0
C      1  0.4336150000000  0.5437850000000  0.5270110000000 1.0
C      1  0.4479210000000  0.5022010000000  0.5740510000000 1.0
C      1  0.4721000000000  0.5985940000000  0.4674560000000 1.0
C      1  0.5404530000000  0.6002160000000  0.4899640000000 1.0
C      1  0.4440780000000  0.4727970000000  0.4291390000000 1.0
C      1  0.4623050000000  0.5127280000000  0.4057690000000 1.0
C      1  0.5354050000000  0.5697780000000  0.4474610000000 1.0
C      1  0.5717980000000  0.4240700000000  0.5329390000000 1.0
C      1  0.5085250000000  0.5593840000000  0.5811220000000 1.0
C      1  0.5730450000000  0.4355420000000  0.4628810000000 1.0
C      1  0.4328670000000  0.5620930000000  0.4640680000000 1.0
C      1  0.4693120000000  0.4611430000000  0.5949060000000 1.0
C      1  0.4936580000000  0.4382500000000  0.5933630000000 1.0
C      1  0.5278160000000  0.4287940000000  0.5528590000000 1.0
C      1  0.4667830000000  0.4515250000000  0.4848140000000 1.0
C      1  0.4567930000000  0.4074190000000  0.4663410000000 1.0
C      1  0.4682030000000  0.5566910000000  0.5065350000000 1.0
C      1  0.5756030000000  0.5240840000000  0.5554250000000 1.0
C      1  0.5054640000000  0.3999970000000  0.4700340000000 1.0
C      1  0.4954160000000  0.5007710000000  0.4246080000000 1.0
C      1  0.4281710000000  0.5947970000000  0.5209040000000 1.0
C      1  0.4296510000000  0.4578590000000  0.5337240000000 1.0
C      1  0.5477650000000  0.4267730000000  0.5725600000000 1.0
C      1  0.4336640000000  0.4372330000000  0.5157890000000 1.0
C      1  0.4813470000000  0.3973360000000  0.5132140000000 1.0
C      1  0.5485590000000  0.4978060000000  0.4788700000000 1.0
C      1  0.4342680000000  0.5504400000000  0.5838340000000 1.0
C      1  0.4876700000000  0.5631140000000  0.4593750000000 1.0
C      1  0.4778030000000  0.4191170000000  0.4485260000000 1.0
C      1  0.5723000000000  0.5480810000000  0.4516140000000 1.0
C      1  0.5662010000000  0.4254030000000  0.4936930000000 1.0
C      1  0.4800210000000  0.3969750000000  0.4823660000000 1.0
C      1  0.4878590000000  0.5430570000000  0.5979090000000 1.0
C      1  0.4054380000000  0.4706270000000  0.4881220000000 1.0
C      1  0.4752070000000  0.5908750000000  0.5064410000000 1.0
C      1  0.4244290000000  0.4785410000000  0.4632570000000 1.0
C      1  0.4546220000000  0.4136270000000  0.5274920000000 1.0
C      1  0.5728760000000  0.4799970000000  0.5274470000000 1.0
C      1  0.5442200000000  0.4442710000000  0.5962160000000 1.0
C      1  0.4512740000000  0.4118330000000  0.5839960000000 1.0
C      1  0.5047650000000  0.5367530000000  0.4099980000000 1.0
C      1  0.5144910000000  0.5896400000000  0.5375770000000 1.0
C      1  0.5367780000000  0.4379820000000  0.4967620000000 1.0
C      1  0.4990890000000  0.4320280000000  0.5647870000000 1.0
C      1  0.5191840000000  0.4431230000000  0.6091060000000 1.0
C      1  0.4242150000000  0.5086080000000  0.4510600000000 1.0
C      1  0.5668120000000  0.5465460000000  0.5715630000000 1.0
C      1  0.4489100000000  0.5218640000000  0.4661340000000 1.0
C      1  0.4098210000000  0.5728350000000  0.5043860000000 1.0
C      1  0.4675060000000  0.5601650000000  0.5405150000000 1.0
C      1  0.4276490000000  0.5238900000000  0.5861140000000 1.0
C      1  0.4738630000000  0.4599500000000  0.3960040000000 1.0
C      1  0.5860020000000  0.4668640000000  0.4669610000000 1.0
C      1  0.5428750000000  0.4833360000000  0.5156180000000 1.0
C      1  0.5152120000000  0.4002790000000  0.5200670000000 1.0
C      1  0.4874810000000  0.4441390000000  0.4635360000000 1.0
C      1  0.4989560000000  0.4832110000000  0.3964200000000 1.0
C      1  0.4061540000000  0.5251840000000  0.4919450000000 1.0
C      1  0.5288730000000  0.5473610000000  0.5595580000000 1.0
C      1  0.4455020000000  0.5330950000000  0.4969920000000 1.0
C      1  0.5628130000000  0.5838880000000  0.4979250000000 1.0
C      1  0.5673410000000  0.4528180000000  0.4345470000000 1.0
C      1  0.5982440000000  0.5150610000000  0.4837170000000 1.0
C      1  0.5489800000000  0.4054840000000  0.5163030000000 1.0
C      1  0.5004390000000  0.5780280000000  0.4872450000000 1.0
C      1  0.3994630000000  0.4999870000000  0.4712330000000 1.0
C      1  0.5294240000000  0.5117660000000  0.5957860000000 1.0
C      1  0.5128050000000  0.4881410000000  0.4646840000000 1.0
C      1  0.5060190000000  0.4222890000000  0.4212240000000 1.0
C      1  0.4372040000000  0.5606700000000  0.5562650000000 1.0
C      1  0.4516950000000  0.5242950000000  0.5484000000000 1.0
C      1  0.5969750000000  0.4934830000000  0.5075930000000 1.0
C      1  0.5632190000000  0.4665910000000  0.5912480000000 1.0
END
