TITL C-2778429-3646-1140 -0.000204409152621177 125000 -407.947493505532 0 0 70 (C1) n - 1
REM
REM in /home/nfs/bkarasulu/CARBON/AIRSS/Generating-Clusters/REBO/Only-C1/SD-CG/HFTN-CG
REM
REM
REM
REM
REM
REM ./C.cell (11c1c37f851c82e70ff6c80c92926a4b)
REM
REM compiler GCC version 9.2.1 20190827 (Red Hat 9.2.1-1)
REM options -cpp -mtune=generic -march=x86-64 -g -O0 -fpre-include=/usr/include/finclude/math-vector-fortran.h
REM seed -1000485273 1715344564 -1217667571 803187884 -1633533730 -1518322702 988758968 -174081102 1707413892 -719928338 -284907416 -542142384 345249922 929006039 469450064 -1543057543 1006865809 -644492496 1901659794 606575121 -1338841356 -1390323697 72842028 -130386012 -1197419290 -289906886 1592677944 -2099869761 -2099185426 -866802594 1591314344 628217993 869159891
REM
CELL 1.54180   50.00000   50.00000   50.00000   90.00000   90.00000   90.00000
LATT -1
SFAC C  
C      1  0.4595300000000  0.5516140000000  0.4571020000000 1.0
C      1  0.5363430000000  0.5196700000000  0.4335670000000 1.0
C      1  0.5899380000000  0.5402050000000  0.5010260000000 1.0
C      1  0.4241100000000  0.4799030000000  0.5149030000000 1.0
C      1  0.5243090000000  0.6255500000000  0.5323200000000 1.0
C      1  0.5568070000000  0.4821200000000  0.5352750000000 1.0
C      1  0.5016720000000  0.5663380000000  0.4333050000000 1.0
C      1  0.5575860000000  0.4604640000000  0.4903390000000 1.0
C      1  0.5224610000000  0.4751680000000  0.4788770000000 1.0
C      1  0.4829960000000  0.4591360000000  0.5427530000000 1.0
C      1  0.4832940000000  0.5428620000000  0.4985300000000 1.0
C      1  0.5700080000000  0.5288410000000  0.5153520000000 1.0
C      1  0.4502320000000  0.4460720000000  0.5788850000000 1.0
C      1  0.5502760000000  0.5431040000000  0.5306580000000 1.0
C      1  0.5061850000000  0.4760040000000  0.4300930000000 1.0
C      1  0.5146150000000  0.5336510000000  0.4885720000000 1.0
C      1  0.5099720000000  0.6038280000000  0.5292530000000 1.0
C      1  0.4588380000000  0.4868150000000  0.4717980000000 1.0
C      1  0.5061990000000  0.5251530000000  0.5636140000000 1.0
C      1  0.4931170000000  0.4006840000000  0.4984920000000 1.0
C      1  0.5067350000000  0.4800760000000  0.5337890000000 1.0
C      1  0.4800840000000  0.5585480000000  0.5228580000000 1.0
C      1  0.4810020000000  0.5110700000000  0.4393170000000 1.0
C      1  0.4715800000000  0.4595950000000  0.4629490000000 1.0
C      1  0.5576980000000  0.4717550000000  0.4395040000000 1.0
C      1  0.5283670000000  0.4544140000000  0.5311380000000 1.0
C      1  0.4988820000000  0.5049270000000  0.4911970000000 1.0
C      1  0.4789710000000  0.4714160000000  0.4346010000000 1.0
C      1  0.5558150000000  0.5123200000000  0.4671340000000 1.0
C      1  0.4297190000000  0.4532710000000  0.5128820000000 1.0
C      1  0.5250350000000  0.5568570000000  0.4428400000000 1.0
C      1  0.5049990000000  0.4410090000000  0.5605560000000 1.0
C      1  0.4752520000000  0.5635330000000  0.4386020000000 1.0
C      1  0.5201100000000  0.5274680000000  0.4047440000000 1.0
C      1  0.4597840000000  0.5380630000000  0.4819190000000 1.0
C      1  0.4333950000000  0.4977760000000  0.4338850000000 1.0
C      1  0.4799860000000  0.4492140000000  0.5115160000000 1.0
C      1  0.4324350000000  0.4992690000000  0.4627490000000 1.0
C      1  0.5619570000000  0.4996310000000  0.4399820000000 1.0
C      1  0.4390330000000  0.4831380000000  0.5518380000000 1.0
C      1  0.4818900000000  0.5117910000000  0.5718020000000 1.0
C      1  0.5327120000000  0.4864700000000  0.5554170000000 1.0
C      1  0.4520270000000  0.4403260000000  0.5017340000000 1.0
C      1  0.4593310000000  0.4671420000000  0.5626660000000 1.0
C      1  0.5623080000000  0.5015420000000  0.5149550000000 1.0
C      1  0.4917380000000  0.4710660000000  0.4881660000000 1.0
C      1  0.5240690000000  0.5416800000000  0.5185670000000 1.0
C      1  0.4603920000000  0.4939630000000  0.4239370000000 1.0
C      1  0.4970010000000  0.4229350000000  0.5141140000000 1.0
C      1  0.4393450000000  0.5179940000000  0.4870830000000 1.0
C      1  0.4954020000000  0.5817560000000  0.5261360000000 1.0
C      1  0.4397420000000  0.5033350000000  0.5119620000000 1.0
C      1  0.4637680000000  0.5492590000000  0.5447340000000 1.0
C      1  0.5329370000000  0.5153630000000  0.5675970000000 1.0
C      1  0.4540300000000  0.4369740000000  0.4741530000000 1.0
C      1  0.4842220000000  0.4833000000000  0.5745620000000 1.0
C      1  0.5264860000000  0.4641990000000  0.4483680000000 1.0
C      1  0.5132990000000  0.4998890000000  0.4185700000000 1.0
C      1  0.5554580000000  0.4560520000000  0.5192450000000 1.0
C      1  0.4626290000000  0.5055550000000  0.5286160000000 1.0
C      1  0.5090240000000  0.4689320000000  0.5718690000000 1.0
C      1  0.5503970000000  0.4920120000000  0.4886460000000 1.0
C      1  0.4613690000000  0.5216250000000  0.5527720000000 1.0
C      1  0.5160140000000  0.4273150000000  0.5349700000000 1.0
C      1  0.5046090000000  0.5294110000000  0.5350360000000 1.0
C      1  0.5537580000000  0.4508890000000  0.4640970000000 1.0
C      1  0.4927650000000  0.5040590000000  0.5214750000000 1.0
C      1  0.5515380000000  0.5350820000000  0.5585270000000 1.0
C      1  0.5323240000000  0.5342240000000  0.4642580000000 1.0
C      1  0.4800890000000  0.5053280000000  0.4672510000000 1.0
END
