TITL C-2778423-5760-255 -0.00218968337910001 125000 -494.646895600177 0 0 85 (C1) n - 1
REM
REM in /home/nfs/bkarasulu/CARBON/AIRSS/Generating-Clusters/REBO/Only-C1/SD-CG/HFTN-CG
REM
REM
REM
REM
REM
REM ./C.cell (11c1c37f851c82e70ff6c80c92926a4b)
REM
REM compiler GCC version 9.2.1 20190827 (Red Hat 9.2.1-1)
REM options -cpp -mtune=generic -march=x86-64 -g -O0 -fpre-include=/usr/include/finclude/math-vector-fortran.h
REM seed 135002117 -405165747 1296141543 -1834111044 1803463336 1402125744 -750263637 1953647132 1140152010 -1182274412 -2031592256 -484810148 -2141411324 846954599 951586009 -1505019960 921597779 881993881 -2129344657 753201819 1681947401 1395258545 -113886697 -1387559208 548716622 1882493093 1427257434 -682289453 2075836252 -1399625177 1874170570 -1618267411 1042699877
REM
CELL 1.54180   50.00000   50.00000   50.00000   90.00000   90.00000   90.00000
LATT -1
SFAC C  
C      1  0.4565090000000  0.5173670000000  0.5735410000000 1.0
C      1  0.5298400000000  0.5605900000000  0.5326250000000 1.0
C      1  0.4165350000000  0.5489780000000  0.5159400000000 1.0
C      1  0.5202340000000  0.5604810000000  0.4699260000000 1.0
C      1  0.5282850000000  0.4473600000000  0.5399590000000 1.0
C      1  0.4359430000000  0.4989910000000  0.4716360000000 1.0
C      1  0.5413580000000  0.4987610000000  0.5539900000000 1.0
C      1  0.4810480000000  0.4642760000000  0.4754150000000 1.0
C      1  0.4335200000000  0.5068180000000  0.4974390000000 1.0
C      1  0.5038920000000  0.5688200000000  0.5480050000000 1.0
C      1  0.5249480000000  0.4729350000000  0.4350180000000 1.0
C      1  0.5370980000000  0.4263730000000  0.5236050000000 1.0
C      1  0.4853240000000  0.5257460000000  0.4176350000000 1.0
C      1  0.4690870000000  0.4718510000000  0.5299040000000 1.0
C      1  0.5788480000000  0.4608370000000  0.4701850000000 1.0
C      1  0.5314680000000  0.4947100000000  0.5214060000000 1.0
C      1  0.4944830000000  0.5577590000000  0.4224770000000 1.0
C      1  0.5140140000000  0.5287970000000  0.4739230000000 1.0
C      1  0.5290220000000  0.5704570000000  0.5012490000000 1.0
C      1  0.4940550000000  0.4825780000000  0.5685700000000 1.0
C      1  0.4922990000000  0.4940810000000  0.5369800000000 1.0
C      1  0.5302990000000  0.4440930000000  0.4515700000000 1.0
C      1  0.5006720000000  0.5752060000000  0.4511280000000 1.0
C      1  0.4967760000000  0.4788950000000  0.4285430000000 1.0
C      1  0.4211040000000  0.4723220000000  0.5288020000000 1.0
C      1  0.5069290000000  0.5335680000000  0.4422370000000 1.0
C      1  0.4815360000000  0.5152150000000  0.4560020000000 1.0
C      1  0.5641130000000  0.5011420000000  0.5302240000000 1.0
C      1  0.4835310000000  0.4358850000000  0.5825880000000 1.0
C      1  0.4956720000000  0.4545190000000  0.5404030000000 1.0
C      1  0.5249990000000  0.4424670000000  0.4787280000000 1.0
C      1  0.5394700000000  0.4923870000000  0.4536010000000 1.0
C      1  0.5567750000000  0.5203500000000  0.4497730000000 1.0
C      1  0.5046570000000  0.4588810000000  0.4894700000000 1.0
C      1  0.5556050000000  0.5565070000000  0.4875410000000 1.0
C      1  0.4139770000000  0.4969090000000  0.5157950000000 1.0
C      1  0.4964920000000  0.5506600000000  0.5689190000000 1.0
C      1  0.4752140000000  0.4994900000000  0.4198450000000 1.0
C      1  0.5486080000000  0.5440370000000  0.4609980000000 1.0
C      1  0.5286610000000  0.4004340000000  0.5322910000000 1.0
C      1  0.4497210000000  0.5614870000000  0.4823850000000 1.0
C      1  0.4443810000000  0.5508770000000  0.5103460000000 1.0
C      1  0.4810830000000  0.5737680000000  0.4774040000000 1.0
C      1  0.4831230000000  0.5227580000000  0.5325720000000 1.0
C      1  0.4447990000000  0.4934780000000  0.5676530000000 1.0
C      1  0.4343850000000  0.5473960000000  0.4607600000000 1.0
C      1  0.4710150000000  0.4920620000000  0.5023710000000 1.0
C      1  0.5745280000000  0.5447340000000  0.5047940000000 1.0
C      1  0.4979440000000  0.5914350000000  0.4232780000000 1.0
C      1  0.4581630000000  0.5222420000000  0.5119310000000 1.0
C      1  0.4948340000000  0.4139390000000  0.5716080000000 1.0
C      1  0.5653510000000  0.4768700000000  0.5098760000000 1.0
C      1  0.4769080000000  0.4734910000000  0.4498090000000 1.0
C      1  0.4739170000000  0.5475040000000  0.4585750000000 1.0
C      1  0.5186450000000  0.5373750000000  0.5815210000000 1.0
C      1  0.5715410000000  0.4406350000000  0.4872170000000 1.0
C      1  0.5383880000000  0.4448450000000  0.4211450000000 1.0
C      1  0.4818510000000  0.4630450000000  0.5826530000000 1.0
C      1  0.4972310000000  0.5788510000000  0.5022400000000 1.0
C      1  0.5716840000000  0.4840950000000  0.4564240000000 1.0
C      1  0.5225550000000  0.5187590000000  0.5029990000000 1.0
C      1  0.5361690000000  0.3776070000000  0.5196210000000 1.0
C      1  0.4262790000000  0.4368360000000  0.4842400000000 1.0
C      1  0.5859240000000  0.5099260000000  0.4472990000000 1.0
C      1  0.4506570000000  0.5258840000000  0.4460980000000 1.0
C      1  0.5081580000000  0.5377220000000  0.5217870000000 1.0
C      1  0.4543010000000  0.4639180000000  0.4926430000000 1.0
C      1  0.4513280000000  0.4925110000000  0.4434620000000 1.0
C      1  0.5259040000000  0.4918180000000  0.4818700000000 1.0
C      1  0.5399430000000  0.5267360000000  0.5661270000000 1.0
C      1  0.4479150000000  0.4445970000000  0.4648940000000 1.0
C      1  0.4576980000000  0.4397550000000  0.4401890000000 1.0
C      1  0.5478470000000  0.4723990000000  0.4926280000000 1.0
C      1  0.4275610000000  0.4531250000000  0.5091530000000 1.0
C      1  0.5696870000000  0.5314050000000  0.5290970000000 1.0
C      1  0.5457250000000  0.4326830000000  0.4964390000000 1.0
C      1  0.5514290000000  0.5446240000000  0.5467580000000 1.0
C      1  0.4435860000000  0.4754320000000  0.5462190000000 1.0
C      1  0.4933400000000  0.5017090000000  0.4820840000000 1.0
C      1  0.5107990000000  0.4008300000000  0.5542490000000 1.0
C      1  0.4855920000000  0.5776730000000  0.5281330000000 1.0
C      1  0.5221350000000  0.4750320000000  0.5554250000000 1.0
C      1  0.5091500000000  0.4729130000000  0.5158920000000 1.0
C      1  0.4754510000000  0.5332290000000  0.5603760000000 1.0
C      1  0.4584770000000  0.5704570000000  0.5298680000000 1.0
END
