TITL C-2778424-3986-53 -0.000613318458787487 125000 -359.138941082175 0 0 61 (C1) n - 1
REM
REM in /home/nfs/bkarasulu/CARBON/AIRSS/Generating-Clusters/REBO/Only-C1/SD-CG/HFTN-CG
REM
REM
REM
REM
REM
REM ./C.cell (11c1c37f851c82e70ff6c80c92926a4b)
REM
REM compiler GCC version 9.2.1 20190827 (Red Hat 9.2.1-1)
REM options -cpp -mtune=generic -march=x86-64 -g -O0 -fpre-include=/usr/include/finclude/math-vector-fortran.h
REM seed 414448557 -501131667 2146180036 318676224 -248345899 -817151523 -200454070 -1993790928 -2021777221 874039156 -933781888 1757942955 256799014 282085137 -911533524 553370604 -1680430755 -2019730203 615495321 -822182720 -766194886 -1091696050 -1737197170 -1575165748 2098767396 -953248652 1381100840 2080378057 -1465484547 -748139879 330105739 1915559225 1689775941
REM
CELL 1.54180   50.00000   50.00000   50.00000   90.00000   90.00000   90.00000
LATT -1
SFAC C  
C      1  0.5357930000000  0.5443450000000  0.4845550000000 1.0
C      1  0.4942870000000  0.5782480000000  0.5137380000000 1.0
C      1  0.5144940000000  0.5283510000000  0.5039770000000 1.0
C      1  0.4869450000000  0.4387040000000  0.4623770000000 1.0
C      1  0.5295230000000  0.4908380000000  0.5542490000000 1.0
C      1  0.4514900000000  0.4932290000000  0.5491170000000 1.0
C      1  0.4791350000000  0.4949330000000  0.5562030000000 1.0
C      1  0.4475390000000  0.4948330000000  0.4923660000000 1.0
C      1  0.4813130000000  0.4273760000000  0.4893520000000 1.0
C      1  0.4557010000000  0.4592400000000  0.4761600000000 1.0
C      1  0.4372110000000  0.4544790000000  0.5194900000000 1.0
C      1  0.5609480000000  0.5174490000000  0.4439570000000 1.0
C      1  0.5009260000000  0.4874360000000  0.4797860000000 1.0
C      1  0.5016440000000  0.4115710000000  0.5030920000000 1.0
C      1  0.5578460000000  0.5437770000000  0.5286470000000 1.0
C      1  0.4719210000000  0.5574990000000  0.5145640000000 1.0
C      1  0.5382770000000  0.5427040000000  0.5491440000000 1.0
C      1  0.4273790000000  0.4734120000000  0.5004160000000 1.0
C      1  0.5194160000000  0.4980530000000  0.5032100000000 1.0
C      1  0.5342310000000  0.5338120000000  0.4555860000000 1.0
C      1  0.4932720000000  0.5222220000000  0.5521100000000 1.0
C      1  0.5828570000000  0.5113770000000  0.4609340000000 1.0
C      1  0.5235360000000  0.5187480000000  0.5555490000000 1.0
C      1  0.4226670000000  0.5234840000000  0.5044110000000 1.0
C      1  0.4938020000000  0.4871330000000  0.5198670000000 1.0
C      1  0.5328830000000  0.5017390000000  0.4439590000000 1.0
C      1  0.4419200000000  0.5189400000000  0.5298750000000 1.0
C      1  0.4358190000000  0.4710010000000  0.4614160000000 1.0
C      1  0.5383350000000  0.4565820000000  0.4629510000000 1.0
C      1  0.4734730000000  0.5054500000000  0.4753650000000 1.0
C      1  0.5614280000000  0.5432300000000  0.5005870000000 1.0
C      1  0.4530500000000  0.5470050000000  0.5375560000000 1.0
C      1  0.4599570000000  0.4392300000000  0.5104200000000 1.0
C      1  0.5800030000000  0.5250070000000  0.4901700000000 1.0
C      1  0.4895760000000  0.5519060000000  0.4660110000000 1.0
C      1  0.5479070000000  0.4563480000000  0.4933960000000 1.0
C      1  0.5698670000000  0.4560490000000  0.4693060000000 1.0
C      1  0.5056380000000  0.4417520000000  0.5388180000000 1.0
C      1  0.4925210000000  0.5174830000000  0.4328980000000 1.0
C      1  0.4869190000000  0.4557980000000  0.5184100000000 1.0
C      1  0.4398080000000  0.4674470000000  0.5451370000000 1.0
C      1  0.5741210000000  0.4958780000000  0.4963430000000 1.0
C      1  0.4784460000000  0.4672540000000  0.4889270000000 1.0
C      1  0.4369290000000  0.5210900000000  0.4738420000000 1.0
C      1  0.5188000000000  0.4779630000000  0.4551330000000 1.0
C      1  0.5475550000000  0.4838680000000  0.5084940000000 1.0
C      1  0.5506900000000  0.4823270000000  0.5393230000000 1.0
C      1  0.5066090000000  0.5590230000000  0.4912320000000 1.0
C      1  0.5050320000000  0.5384490000000  0.4459700000000 1.0
C      1  0.5849100000000  0.4805520000000  0.4714700000000 1.0
C      1  0.4751960000000  0.4931560000000  0.4445790000000 1.0
C      1  0.4655870000000  0.5377440000000  0.4704850000000 1.0
C      1  0.4789610000000  0.5503630000000  0.5531110000000 1.0
C      1  0.4688230000000  0.5044780000000  0.5150480000000 1.0
C      1  0.4897880000000  0.4635640000000  0.4498100000000 1.0
C      1  0.5033580000000  0.4738400000000  0.5499150000000 1.0
C      1  0.4425370000000  0.4962770000000  0.4521170000000 1.0
C      1  0.5240420000000  0.5672680000000  0.5533660000000 1.0
C      1  0.4974130000000  0.5710600000000  0.5437030000000 1.0
C      1  0.4874230000000  0.5300470000000  0.5198050000000 1.0
C      1  0.5125260000000  0.4175770000000  0.5281960000000 1.0
END
