TITL C-2778435-5768-353 -0.0011262279336693 125000 -299.518758842606 0 0 51 (C1) n - 1
REM
REM in /home/nfs/bkarasulu/CARBON/AIRSS/Generating-Clusters/REBO/Only-C1/SD-CG/HFTN-CG
REM
REM
REM
REM
REM
REM ./C.cell (11c1c37f851c82e70ff6c80c92926a4b)
REM
REM compiler GCC version 9.2.1 20190827 (Red Hat 9.2.1-1)
REM options -cpp -mtune=generic -march=x86-64 -g -O0 -fpre-include=/usr/include/finclude/math-vector-fortran.h
REM seed -125322064 -675243417 2041663888 1603988812 -614928360 1090553664 -691180271 638288157 -341801138 -324845618 -950596598 445607786 -872528988 -586803660 1741017934 1016656195 -1810033201 -1525826469 -311791865 -1069515294 2024408209 494008783 32551444 454496133 1741543635 -2039628593 -156655092 -558861316 -301903983 1199493097 -507323649 1091175903 -1001453049
REM
CELL 1.54180   50.00000   50.00000   50.00000   90.00000   90.00000   90.00000
LATT -1
SFAC C  
C      1  0.4867720000000  0.5602860000000  0.5218010000000 1.0
C      1  0.5295870000000  0.5020740000000  0.4613420000000 1.0
C      1  0.4754080000000  0.5364830000000  0.4920030000000 1.0
C      1  0.5523950000000  0.5412370000000  0.4886020000000 1.0
C      1  0.4552170000000  0.4717650000000  0.5066770000000 1.0
C      1  0.5092640000000  0.4761720000000  0.5029980000000 1.0
C      1  0.4956240000000  0.4680120000000  0.4761140000000 1.0
C      1  0.4852450000000  0.4977730000000  0.4438000000000 1.0
C      1  0.5331550000000  0.5599350000000  0.4863290000000 1.0
C      1  0.5087740000000  0.5145560000000  0.4464400000000 1.0
C      1  0.4780140000000  0.5496020000000  0.4315790000000 1.0
C      1  0.4627580000000  0.4985870000000  0.4620860000000 1.0
C      1  0.5000130000000  0.4511630000000  0.4463500000000 1.0
C      1  0.5132480000000  0.5605540000000  0.4620700000000 1.0
C      1  0.4993510000000  0.5505350000000  0.5454940000000 1.0
C      1  0.4562260000000  0.4741390000000  0.4756200000000 1.0
C      1  0.4726490000000  0.4953140000000  0.5182260000000 1.0
C      1  0.4899370000000  0.5111470000000  0.5017800000000 1.0
C      1  0.4554010000000  0.5441140000000  0.4466410000000 1.0
C      1  0.4774950000000  0.4995450000000  0.5461660000000 1.0
C      1  0.5267050000000  0.5431130000000  0.5420460000000 1.0
C      1  0.5646320000000  0.4879310000000  0.4866470000000 1.0
C      1  0.4378380000000  0.4975140000000  0.5503790000000 1.0
C      1  0.5284470000000  0.4454220000000  0.4743090000000 1.0
C      1  0.5298350000000  0.5199170000000  0.5856420000000 1.0
C      1  0.5108760000000  0.4325940000000  0.4948620000000 1.0
C      1  0.5033470000000  0.5122950000000  0.5761540000000 1.0
C      1  0.5447050000000  0.5117510000000  0.4868630000000 1.0
C      1  0.5078440000000  0.4908250000000  0.5519280000000 1.0
C      1  0.4827350000000  0.4340550000000  0.4928190000000 1.0
C      1  0.4696310000000  0.4457470000000  0.5149670000000 1.0
C      1  0.5036570000000  0.5428830000000  0.4424790000000 1.0
C      1  0.4567060000000  0.5229240000000  0.5585960000000 1.0
C      1  0.4844440000000  0.4472340000000  0.5382770000000 1.0
C      1  0.4584740000000  0.5514150000000  0.5174520000000 1.0
C      1  0.4577210000000  0.5265640000000  0.4689670000000 1.0
C      1  0.4367080000000  0.4828050000000  0.5304800000000 1.0
C      1  0.5448860000000  0.5260450000000  0.5615780000000 1.0
C      1  0.5566740000000  0.4592670000000  0.4990100000000 1.0
C      1  0.4861600000000  0.5332930000000  0.5655710000000 1.0
C      1  0.5258940000000  0.4746700000000  0.4654340000000 1.0
C      1  0.5305370000000  0.4532340000000  0.5133800000000 1.0
C      1  0.5508930000000  0.4537190000000  0.4423750000000 1.0
C      1  0.5244100000000  0.4491480000000  0.4347460000000 1.0
C      1  0.5638240000000  0.4621390000000  0.4663430000000 1.0
C      1  0.5095600000000  0.4634470000000  0.5375490000000 1.0
C      1  0.5214800000000  0.5055390000000  0.5066300000000 1.0
C      1  0.4719180000000  0.4470650000000  0.4651040000000 1.0
C      1  0.4440130000000  0.5439200000000  0.5389300000000 1.0
C      1  0.5289120000000  0.5105130000000  0.5356740000000 1.0
C      1  0.5000000000000  0.5600200000000  0.4926900000000 1.0
END
