TITL C-2778431-5191-1297 -0.00233739145644954 125000 -622.862347963801 0 0 107 (C1) n - 1
REM
REM in /home/nfs/bkarasulu/CARBON/AIRSS/Generating-Clusters/REBO/Only-C1/SD-CG/HFTN-CG
REM
REM
REM
REM
REM
REM ./C.cell (11c1c37f851c82e70ff6c80c92926a4b)
REM
REM compiler GCC version 9.2.1 20190827 (Red Hat 9.2.1-1)
REM options -cpp -mtune=generic -march=x86-64 -g -O0 -fpre-include=/usr/include/finclude/math-vector-fortran.h
REM seed 965169707 -773371791 1850926704 756528290 -1686609312 164940534 -825977623 -1026216625 -218485043 244807066 -404939982 -1163814698 -1502923286 770424173 1457837885 -991304681 -1663538862 298526188 -1609909392 -1916928634 -784446340 531499717 -1490279190 -1136146803 -283328888 1053389287 -118228292 -961486245 -558052089 774194787 1425986600 -113122126 268784042
REM
CELL 1.54180   50.00000   50.00000   50.00000   90.00000   90.00000   90.00000
LATT -1
SFAC C  
C      1  0.4416220000000  0.5241330000000  0.4737010000000 1.0
C      1  0.4716110000000  0.5142660000000  0.4775870000000 1.0
C      1  0.4426680000000  0.4307900000000  0.5197210000000 1.0
C      1  0.4225350000000  0.5592010000000  0.5314570000000 1.0
C      1  0.5298910000000  0.4757450000000  0.5718260000000 1.0
C      1  0.5254980000000  0.4855200000000  0.4413580000000 1.0
C      1  0.5615510000000  0.4304860000000  0.4619950000000 1.0
C      1  0.4687650000000  0.4153570000000  0.4791430000000 1.0
C      1  0.5262710000000  0.4315350000000  0.5515420000000 1.0
C      1  0.4743680000000  0.4717650000000  0.5149380000000 1.0
C      1  0.4213840000000  0.4544970000000  0.5069350000000 1.0
C      1  0.5318330000000  0.5059970000000  0.5812070000000 1.0
C      1  0.4881010000000  0.5491810000000  0.5699480000000 1.0
C      1  0.4982100000000  0.5813710000000  0.5348380000000 1.0
C      1  0.5492840000000  0.5370700000000  0.4478320000000 1.0
C      1  0.5821120000000  0.5047910000000  0.4658540000000 1.0
C      1  0.4751480000000  0.5829490000000  0.4913020000000 1.0
C      1  0.4812900000000  0.4833820000000  0.4575560000000 1.0
C      1  0.5226290000000  0.5074070000000  0.4901920000000 1.0
C      1  0.5681060000000  0.5307980000000  0.4728890000000 1.0
C      1  0.5285660000000  0.4549610000000  0.4985670000000 1.0
C      1  0.4373800000000  0.5280000000000  0.4436400000000 1.0
C      1  0.4466050000000  0.4704510000000  0.5207620000000 1.0
C      1  0.5114230000000  0.3983610000000  0.5115950000000 1.0
C      1  0.4983960000000  0.5229610000000  0.5523450000000 1.0
C      1  0.4342590000000  0.4596330000000  0.4463150000000 1.0
C      1  0.4542700000000  0.5632200000000  0.4746250000000 1.0
C      1  0.4370400000000  0.5459250000000  0.4966310000000 1.0
C      1  0.5605840000000  0.5187950000000  0.5706520000000 1.0
C      1  0.5071640000000  0.5886480000000  0.4562380000000 1.0
C      1  0.4602770000000  0.4623490000000  0.5764750000000 1.0
C      1  0.5128070000000  0.4826010000000  0.4160360000000 1.0
C      1  0.4413080000000  0.5049540000000  0.5013000000000 1.0
C      1  0.4474570000000  0.4300500000000  0.4897540000000 1.0
C      1  0.4795160000000  0.5489450000000  0.4326760000000 1.0
C      1  0.4391410000000  0.5041130000000  0.4291970000000 1.0
C      1  0.5055070000000  0.5077550000000  0.5160410000000 1.0
C      1  0.4564090000000  0.5076490000000  0.5315150000000 1.0
C      1  0.5071870000000  0.5046860000000  0.4626890000000 1.0
C      1  0.5282380000000  0.5547110000000  0.4555700000000 1.0
C      1  0.4620540000000  0.5351950000000  0.5171270000000 1.0
C      1  0.4604860000000  0.4594240000000  0.4332180000000 1.0
C      1  0.4565170000000  0.5510470000000  0.4482250000000 1.0
C      1  0.5291800000000  0.4085170000000  0.5294390000000 1.0
C      1  0.4370840000000  0.4582710000000  0.4769340000000 1.0
C      1  0.4510240000000  0.5618210000000  0.5303610000000 1.0
C      1  0.5345430000000  0.4220880000000  0.4613620000000 1.0
C      1  0.4109660000000  0.5369710000000  0.5143260000000 1.0
C      1  0.5385230000000  0.5394160000000  0.5787680000000 1.0
C      1  0.5050180000000  0.5704450000000  0.5619720000000 1.0
C      1  0.4331570000000  0.4889990000000  0.5450920000000 1.0
C      1  0.5315380000000  0.4559430000000  0.5910370000000 1.0
C      1  0.4204360000000  0.4828410000000  0.4358090000000 1.0
C      1  0.4901410000000  0.5351560000000  0.5056260000000 1.0
C      1  0.5095050000000  0.5548150000000  0.4354280000000 1.0
C      1  0.5659870000000  0.4567920000000  0.5050250000000 1.0
C      1  0.5468790000000  0.5641580000000  0.5385560000000 1.0
C      1  0.4919270000000  0.5001640000000  0.4119940000000 1.0
C      1  0.5750950000000  0.5145130000000  0.5484540000000 1.0
C      1  0.5545510000000  0.5724800000000  0.5096300000000 1.0
C      1  0.4931760000000  0.5693230000000  0.4688020000000 1.0
C      1  0.5096990000000  0.4556680000000  0.5244960000000 1.0
C      1  0.4980880000000  0.4317040000000  0.4143670000000 1.0
C      1  0.4661200000000  0.4317070000000  0.5359830000000 1.0
C      1  0.5019850000000  0.5279560000000  0.4172250000000 1.0
C      1  0.5423870000000  0.5305170000000  0.4932570000000 1.0
C      1  0.5821640000000  0.4131280000000  0.4654510000000 1.0
C      1  0.5042350000000  0.5989910000000  0.4994920000000 1.0
C      1  0.5450150000000  0.4369500000000  0.5232590000000 1.0
C      1  0.5435890000000  0.4766360000000  0.5212420000000 1.0
C      1  0.4901240000000  0.4355090000000  0.5208190000000 1.0
C      1  0.4935040000000  0.4544600000000  0.4600120000000 1.0
C      1  0.4733490000000  0.4379550000000  0.5633870000000 1.0
C      1  0.5683250000000  0.4943160000000  0.5277500000000 1.0
C      1  0.4691470000000  0.5824130000000  0.5224300000000 1.0
C      1  0.4831010000000  0.5269920000000  0.5888110000000 1.0
C      1  0.4382570000000  0.4774610000000  0.5727440000000 1.0
C      1  0.4121240000000  0.5076990000000  0.5137600000000 1.0
C      1  0.5352270000000  0.5260910000000  0.4250940000000 1.0
C      1  0.4551430000000  0.4843470000000  0.4793220000000 1.0
C      1  0.5868900000000  0.4990050000000  0.5041950000000 1.0
C      1  0.4862560000000  0.4927980000000  0.5386490000000 1.0
C      1  0.4082410000000  0.4793040000000  0.5243590000000 1.0
C      1  0.4944890000000  0.4190400000000  0.4941950000000 1.0
C      1  0.5298950000000  0.5870850000000  0.4952080000000 1.0
C      1  0.5203670000000  0.5333660000000  0.5315520000000 1.0
C      1  0.5327190000000  0.5624700000000  0.5631710000000 1.0
C      1  0.5647480000000  0.4584570000000  0.4623800000000 1.0
C      1  0.5138800000000  0.4378880000000  0.4779050000000 1.0
C      1  0.4997290000000  0.5010910000000  0.5778410000000 1.0
C      1  0.4820070000000  0.4372560000000  0.4364190000000 1.0
C      1  0.5515920000000  0.5350270000000  0.5236740000000 1.0
C      1  0.4677360000000  0.4907940000000  0.4275340000000 1.0
C      1  0.4709100000000  0.4127750000000  0.4519890000000 1.0
C      1  0.5092910000000  0.5595000000000  0.5151540000000 1.0
C      1  0.5821330000000  0.4756740000000  0.4835360000000 1.0
C      1  0.5527110000000  0.4767550000000  0.4431490000000 1.0
C      1  0.5022480000000  0.6133040000000  0.5254000000000 1.0
C      1  0.5743620000000  0.5539380000000  0.4971680000000 1.0
C      1  0.5841750000000  0.5295950000000  0.5188070000000 1.0
C      1  0.4952940000000  0.5355460000000  0.4724890000000 1.0
C      1  0.5045200000000  0.4428670000000  0.5646040000000 1.0
C      1  0.5237090000000  0.4719680000000  0.5451780000000 1.0
C      1  0.4864070000000  0.4631500000000  0.4921980000000 1.0
C      1  0.4901080000000  0.4737910000000  0.5667070000000 1.0
C      1  0.5729890000000  0.4970970000000  0.4402050000000 1.0
C      1  0.5268110000000  0.5565770000000  0.4858070000000 1.0
END
