TITL C-2778426-5645-1362 0.000481671497863548 125000 -182.80089402961 0 0 34 (C1) n - 1
REM
REM in /home/nfs/bkarasulu/CARBON/AIRSS/Generating-Clusters/REBO/Only-C1/SD-CG/HFTN-CG
REM
REM
REM
REM
REM
REM ./C.cell (11c1c37f851c82e70ff6c80c92926a4b)
REM
REM compiler GCC version 9.2.1 20190827 (Red Hat 9.2.1-1)
REM options -cpp -mtune=generic -march=x86-64 -g -O0 -fpre-include=/usr/include/finclude/math-vector-fortran.h
REM seed 786648542 -889661010 -542055917 1052143175 -2057185358 -1649273869 -1478705106 -1559134871 -1816045003 -676788843 47459584 354810508 1102500603 -1582382553 1032889570 709769350 -1622938692 1725648884 218821938 -1117900626 1894835095 -966933822 13926893 -951964703 633553439 2068125471 -162296299 -2119955567 -324018489 1810192577 -976581191 -1608542006 567145002
REM
CELL 1.54180   50.00000   50.00000   50.00000   90.00000   90.00000   90.00000
LATT -1
SFAC C  
C      1  0.5229090000000  0.4860160000000  0.4737570000000 1.0
C      1  0.4558530000000  0.5215280000000  0.4922000000000 1.0
C      1  0.5052800000000  0.5113540000000  0.5219110000000 1.0
C      1  0.5313040000000  0.5094360000000  0.5050460000000 1.0
C      1  0.5316560000000  0.5399870000000  0.5310780000000 1.0
C      1  0.4862150000000  0.5457640000000  0.4725480000000 1.0
C      1  0.5510780000000  0.5201730000000  0.5407530000000 1.0
C      1  0.4545650000000  0.4869000000000  0.4722770000000 1.0
C      1  0.4782150000000  0.4928440000000  0.4571400000000 1.0
C      1  0.5512330000000  0.4906850000000  0.5138730000000 1.0
C      1  0.4561040000000  0.4322910000000  0.5254470000000 1.0
C      1  0.5107520000000  0.4617630000000  0.5242560000000 1.0
C      1  0.4934020000000  0.4684470000000  0.4533580000000 1.0
C      1  0.5024670000000  0.4516560000000  0.4737490000000 1.0
C      1  0.5043740000000  0.5354350000000  0.5438850000000 1.0
C      1  0.5204640000000  0.5331980000000  0.4567900000000 1.0
C      1  0.4894740000000  0.5186530000000  0.4578740000000 1.0
C      1  0.4643410000000  0.4831710000000  0.5284860000000 1.0
C      1  0.4636660000000  0.5598920000000  0.4774190000000 1.0
C      1  0.5406650000000  0.4940350000000  0.5522160000000 1.0
C      1  0.5140410000000  0.5554510000000  0.4820850000000 1.0
C      1  0.4765100000000  0.5039260000000  0.5049380000000 1.0
C      1  0.5380660000000  0.4695970000000  0.5320230000000 1.0
C      1  0.4671190000000  0.4482460000000  0.5064030000000 1.0
C      1  0.4349960000000  0.5325010000000  0.4823090000000 1.0
C      1  0.4410170000000  0.4714410000000  0.5354340000000 1.0
C      1  0.5381410000000  0.5238570000000  0.4834170000000 1.0
C      1  0.4522800000000  0.4670670000000  0.4910990000000 1.0
C      1  0.5753080000000  0.5073710000000  0.5244780000000 1.0
C      1  0.5010610000000  0.4883170000000  0.4896380000000 1.0
C      1  0.4962680000000  0.4490070000000  0.5018210000000 1.0
C      1  0.5285310000000  0.5549720000000  0.5065430000000 1.0
C      1  0.4941260000000  0.4834460000000  0.5339080000000 1.0
C      1  0.5285180000000  0.5015700000000  0.4518400000000 1.0
END
