TITL C-2778424-3986-88 -0.000711335831405874 125000 -1077.24577741516 0 0 183 (C1) n - 1
REM
REM in /home/nfs/bkarasulu/CARBON/AIRSS/Generating-Clusters/REBO/Only-C1/SD-CG/HFTN-CG
REM
REM
REM
REM
REM
REM ./C.cell (11c1c37f851c82e70ff6c80c92926a4b)
REM
REM compiler GCC version 9.2.1 20190827 (Red Hat 9.2.1-1)
REM options -cpp -mtune=generic -march=x86-64 -g -O0 -fpre-include=/usr/include/finclude/math-vector-fortran.h
REM seed 597388064 930753771 -325595354 -299977732 -398677502 1737658476 1453986904 -332406926 -529101702 -237910242 -952972188 664342449 -1234954741 -1194869261 -167047307 -1384273152 607003520 -1145538814 -2099429868 -2025393065 1320015559 1830337238 802679431 -1199578277 -796467166 1469224296 -2029224205 -1612263684 -917554610 -1167801898 1439437832 -1724289318 597104912
REM
CELL 1.54180   50.00000   50.00000   50.00000   90.00000   90.00000   90.00000
LATT -1
SFAC C  
C      1  0.5214870000000  0.4341790000000  0.5818310000000 1.0
C      1  0.4959160000000  0.4997630000000  0.5446380000000 1.0
C      1  0.4595690000000  0.4445020000000  0.4334840000000 1.0
C      1  0.4841130000000  0.4500360000000  0.4153710000000 1.0
C      1  0.5488670000000  0.4393660000000  0.5844520000000 1.0
C      1  0.4889620000000  0.6017060000000  0.4495120000000 1.0
C      1  0.5660190000000  0.4189890000000  0.5156030000000 1.0
C      1  0.4923710000000  0.5756030000000  0.4316340000000 1.0
C      1  0.5657030000000  0.5013180000000  0.4194320000000 1.0
C      1  0.4845760000000  0.4826420000000  0.4397830000000 1.0
C      1  0.5793850000000  0.4970370000000  0.5217680000000 1.0
C      1  0.6062080000000  0.5172180000000  0.5002500000000 1.0
C      1  0.4292620000000  0.4797390000000  0.5206020000000 1.0
C      1  0.5698650000000  0.4919870000000  0.4799140000000 1.0
C      1  0.4561750000000  0.5906310000000  0.4908780000000 1.0
C      1  0.4893760000000  0.4270380000000  0.4707270000000 1.0
C      1  0.5160410000000  0.5183060000000  0.3801080000000 1.0
C      1  0.5971840000000  0.4832420000000  0.4521940000000 1.0
C      1  0.3882990000000  0.5156400000000  0.5557050000000 1.0
C      1  0.5580370000000  0.4553310000000  0.4270250000000 1.0
C      1  0.5151090000000  0.5343940000000  0.5127460000000 1.0
C      1  0.4567690000000  0.4751840000000  0.4788470000000 1.0
C      1  0.5082650000000  0.5612730000000  0.4067220000000 1.0
C      1  0.5651020000000  0.4061300000000  0.4903650000000 1.0
C      1  0.4491490000000  0.4504310000000  0.5760900000000 1.0
C      1  0.4090760000000  0.5429070000000  0.5302640000000 1.0
C      1  0.6043970000000  0.4406660000000  0.4793350000000 1.0
C      1  0.4193920000000  0.5524700000000  0.4449320000000 1.0
C      1  0.4852610000000  0.4768800000000  0.5992570000000 1.0
C      1  0.5736820000000  0.5490190000000  0.5477710000000 1.0
C      1  0.5767790000000  0.4769550000000  0.4320160000000 1.0
C      1  0.3979980000000  0.4803590000000  0.4821400000000 1.0
C      1  0.4446680000000  0.5736830000000  0.4456520000000 1.0
C      1  0.4094240000000  0.4941250000000  0.5420250000000 1.0
C      1  0.5628420000000  0.5321060000000  0.5725180000000 1.0
C      1  0.5224330000000  0.5992260000000  0.4431510000000 1.0
C      1  0.4940870000000  0.3819590000000  0.5183690000000 1.0
C      1  0.4045340000000  0.4485100000000  0.4841340000000 1.0
C      1  0.5875310000000  0.5357100000000  0.5193370000000 1.0
C      1  0.5533670000000  0.4742590000000  0.5740260000000 1.0
C      1  0.5112290000000  0.5518420000000  0.4453170000000 1.0
C      1  0.4951580000000  0.5050960000000  0.4249500000000 1.0
C      1  0.5054030000000  0.5104060000000  0.4705130000000 1.0
C      1  0.5398560000000  0.5152710000000  0.5956840000000 1.0
C      1  0.5288630000000  0.4893120000000  0.4555730000000 1.0
C      1  0.4587260000000  0.4203000000000  0.4576300000000 1.0
C      1  0.4916460000000  0.5784830000000  0.5716790000000 1.0
C      1  0.5554880000000  0.5152780000000  0.5366960000000 1.0
C      1  0.4396510000000  0.5533070000000  0.5631540000000 1.0
C      1  0.5418240000000  0.5012030000000  0.5583350000000 1.0
C      1  0.4948180000000  0.5001880000000  0.5169680000000 1.0
C      1  0.5084190000000  0.4093390000000  0.5631180000000 1.0
C      1  0.4582930000000  0.5055600000000  0.5327140000000 1.0
C      1  0.5185560000000  0.4782160000000  0.5550840000000 1.0
C      1  0.4710720000000  0.5217600000000  0.3968440000000 1.0
C      1  0.4297480000000  0.4052400000000  0.4993290000000 1.0
C      1  0.6034670000000  0.4859570000000  0.5031130000000 1.0
C      1  0.6045970000000  0.5096890000000  0.4711220000000 1.0
C      1  0.5692240000000  0.5648980000000  0.4774220000000 1.0
C      1  0.4679910000000  0.5560900000000  0.4637010000000 1.0
C      1  0.4589770000000  0.4319860000000  0.5347470000000 1.0
C      1  0.4069410000000  0.4703770000000  0.4507840000000 1.0
C      1  0.4846840000000  0.5362460000000  0.4337200000000 1.0
C      1  0.5404310000000  0.5111770000000  0.4355720000000 1.0
C      1  0.4806270000000  0.5080560000000  0.6117930000000 1.0
C      1  0.4880160000000  0.5820230000000  0.5131240000000 1.0
C      1  0.4438410000000  0.4922770000000  0.4248940000000 1.0
C      1  0.4809410000000  0.4491890000000  0.5514840000000 1.0
C      1  0.4636000000000  0.5759800000000  0.5563650000000 1.0
C      1  0.4399300000000  0.5224100000000  0.4902090000000 1.0
C      1  0.4604590000000  0.5951210000000  0.4638670000000 1.0
C      1  0.4514250000000  0.5183030000000  0.5983010000000 1.0
C      1  0.5175330000000  0.4878540000000  0.4059110000000 1.0
C      1  0.4667810000000  0.4739670000000  0.5330000000000 1.0
C      1  0.4502330000000  0.4951960000000  0.5019680000000 1.0
C      1  0.4753330000000  0.5222280000000  0.5572630000000 1.0
C      1  0.3972040000000  0.5273480000000  0.5788450000000 1.0
C      1  0.4885180000000  0.3901140000000  0.4883910000000 1.0
C      1  0.5280770000000  0.6100120000000  0.5177960000000 1.0
C      1  0.4549620000000  0.5418280000000  0.5123000000000 1.0
C      1  0.5409330000000  0.5388650000000  0.5274060000000 1.0
C      1  0.4343730000000  0.5240580000000  0.4325880000000 1.0
C      1  0.4523990000000  0.5379460000000  0.4103510000000 1.0
C      1  0.5191790000000  0.4353260000000  0.4841650000000 1.0
C      1  0.5023780000000  0.6124220000000  0.4770430000000 1.0
C      1  0.4057600000000  0.5272850000000  0.4701130000000 1.0
C      1  0.5370470000000  0.5229670000000  0.4909510000000 1.0
C      1  0.5796970000000  0.5303470000000  0.4265970000000 1.0
C      1  0.4592650000000  0.4057920000000  0.4862120000000 1.0
C      1  0.4378740000000  0.4504420000000  0.4891210000000 1.0
C      1  0.4863890000000  0.4747480000000  0.4007340000000 1.0
C      1  0.4318670000000  0.5680590000000  0.5334290000000 1.0
C      1  0.5085440000000  0.5019080000000  0.5949460000000 1.0
C      1  0.5416950000000  0.5071160000000  0.3959410000000 1.0
C      1  0.5139730000000  0.4486500000000  0.5213830000000 1.0
C      1  0.5122390000000  0.5922150000000  0.5603870000000 1.0
C      1  0.5654430000000  0.5834730000000  0.5060500000000 1.0
C      1  0.4149350000000  0.5592090000000  0.4781300000000 1.0
C      1  0.5407750000000  0.3915960000000  0.4856070000000 1.0
C      1  0.4374630000000  0.4490430000000  0.5221420000000 1.0
C      1  0.5663110000000  0.5188550000000  0.4986730000000 1.0
C      1  0.5797600000000  0.5063060000000  0.5698410000000 1.0
C      1  0.4178080000000  0.4470820000000  0.5694870000000 1.0
C      1  0.5397110000000  0.5758950000000  0.4766300000000 1.0
C      1  0.5592750000000  0.4688890000000  0.5022420000000 1.0
C      1  0.4096490000000  0.5276950000000  0.5015540000000 1.0
C      1  0.4803770000000  0.5303320000000  0.5868240000000 1.0
C      1  0.5715500000000  0.5498410000000  0.4528540000000 1.0
C      1  0.5426380000000  0.4548360000000  0.5481640000000 1.0
C      1  0.5294710000000  0.4698350000000  0.5023860000000 1.0
C      1  0.5010720000000  0.5517770000000  0.5869340000000 1.0
C      1  0.4177180000000  0.4998860000000  0.4618670000000 1.0
C      1  0.5651170000000  0.4261540000000  0.4411490000000 1.0
C      1  0.4257550000000  0.4433310000000  0.4580290000000 1.0
C      1  0.4529450000000  0.4863000000000  0.5931480000000 1.0
C      1  0.4437940000000  0.5364140000000  0.4629760000000 1.0
C      1  0.5344590000000  0.5449210000000  0.5847500000000 1.0
C      1  0.5491320000000  0.6081650000000  0.4979930000000 1.0
C      1  0.4692820000000  0.4110290000000  0.5567910000000 1.0
C      1  0.4689840000000  0.4515150000000  0.4643890000000 1.0
C      1  0.5766380000000  0.5170800000000  0.4577240000000 1.0
C      1  0.4779680000000  0.5168120000000  0.4589950000000 1.0
C      1  0.4077630000000  0.4358440000000  0.5451110000000 1.0
C      1  0.4732600000000  0.4472020000000  0.5906150000000 1.0
C      1  0.5561230000000  0.5367920000000  0.4043960000000 1.0
C      1  0.5128530000000  0.4201320000000  0.4481030000000 1.0
C      1  0.4373730000000  0.5292240000000  0.5400620000000 1.0
C      1  0.4723270000000  0.5483390000000  0.5406930000000 1.0
C      1  0.4336990000000  0.4631520000000  0.4313000000000 1.0
C      1  0.5768850000000  0.4503800000000  0.4618620000000 1.0
C      1  0.5000510000000  0.5632460000000  0.5356930000000 1.0
C      1  0.4753490000000  0.4219280000000  0.5086550000000 1.0
C      1  0.3856330000000  0.5191980000000  0.5226450000000 1.0
C      1  0.4874650000000  0.3900470000000  0.5444920000000 1.0
C      1  0.5224740000000  0.3907560000000  0.5093680000000 1.0
C      1  0.6064620000000  0.4706010000000  0.4793790000000 1.0
C      1  0.5897920000000  0.5684090000000  0.5245920000000 1.0
C      1  0.4515430000000  0.4979740000000  0.4575430000000 1.0
C      1  0.4212150000000  0.4743780000000  0.5880460000000 1.0
C      1  0.5108880000000  0.5816390000000  0.4771480000000 1.0
C      1  0.5019180000000  0.4729230000000  0.4581200000000 1.0
C      1  0.4251310000000  0.5007010000000  0.5683990000000 1.0
C      1  0.5551640000000  0.5617930000000  0.4270080000000 1.0
C      1  0.5492910000000  0.4070340000000  0.5339780000000 1.0
C      1  0.5669190000000  0.4491360000000  0.5244750000000 1.0
C      1  0.4833080000000  0.4229280000000  0.5815800000000 1.0
C      1  0.5511560000000  0.4701010000000  0.4634910000000 1.0
C      1  0.5315500000000  0.5789280000000  0.4244260000000 1.0
C      1  0.4580710000000  0.5882300000000  0.5249860000000 1.0
C      1  0.5762760000000  0.4416090000000  0.5735310000000 1.0
C      1  0.5835030000000  0.4868820000000  0.5510150000000 1.0
C      1  0.4493600000000  0.4781950000000  0.5601330000000 1.0
C      1  0.5008460000000  0.4620400000000  0.4861470000000 1.0
C      1  0.5269940000000  0.4259900000000  0.5432780000000 1.0
C      1  0.4357970000000  0.5672390000000  0.4996400000000 1.0
C      1  0.5560690000000  0.4913400000000  0.5982740000000 1.0
C      1  0.5025280000000  0.6078550000000  0.5061420000000 1.0
C      1  0.5391610000000  0.4384660000000  0.4594190000000 1.0
C      1  0.3986700000000  0.4902910000000  0.5100270000000 1.0
C      1  0.5152750000000  0.4973810000000  0.4979450000000 1.0
C      1  0.4819230000000  0.4553300000000  0.5119930000000 1.0
C      1  0.5319010000000  0.5925430000000  0.5404680000000 1.0
C      1  0.4966160000000  0.5339040000000  0.3914570000000 1.0
C      1  0.5161010000000  0.5494080000000  0.5569340000000 1.0
C      1  0.5979530000000  0.5646440000000  0.4939470000000 1.0
C      1  0.5045290000000  0.4528580000000  0.5656960000000 1.0
C      1  0.5096740000000  0.4407040000000  0.4241020000000 1.0
C      1  0.5293420000000  0.5303670000000  0.4598940000000 1.0
C      1  0.4289710000000  0.5306470000000  0.5817010000000 1.0
C      1  0.5404190000000  0.6066670000000  0.4671500000000 1.0
C      1  0.4121020000000  0.4301350000000  0.5117710000000 1.0
C      1  0.4866270000000  0.5636800000000  0.4845200000000 1.0
C      1  0.5820110000000  0.4174830000000  0.4691350000000 1.0
C      1  0.5308400000000  0.4595910000000  0.4186370000000 1.0
C      1  0.5125980000000  0.3948600000000  0.4709520000000 1.0
C      1  0.5140410000000  0.5164530000000  0.5656470000000 1.0
C      1  0.4886080000000  0.5402800000000  0.5050770000000 1.0
C      1  0.4646430000000  0.5623340000000  0.4245260000000 1.0
C      1  0.5261110000000  0.5355780000000  0.4194280000000 1.0
C      1  0.5508460000000  0.5692580000000  0.5326690000000 1.0
C      1  0.5821760000000  0.4586150000000  0.5511920000000 1.0
C      1  0.4650190000000  0.4937870000000  0.4015340000000 1.0
C      1  0.5073480000000  0.4185070000000  0.5092720000000 1.0
END
