TITL C-2778431-5191-137 0.192884462696275 125000 -605.998959729928 0 0 104 (C1) n - 1
REM
REM in /home/nfs/bkarasulu/CARBON/AIRSS/Generating-Clusters/REBO/Only-C1/SD-CG/HFTN-CG
REM
REM
REM
REM
REM
REM ./C.cell (11c1c37f851c82e70ff6c80c92926a4b)
REM
REM compiler GCC version 9.2.1 20190827 (Red Hat 9.2.1-1)
REM options -cpp -mtune=generic -march=x86-64 -g -O0 -fpre-include=/usr/include/finclude/math-vector-fortran.h
REM seed -518902561 -211174649 -1112453238 -108071069 -1818936722 -573557916 -767018078 -1097502795 -1664377756 -153448805 2043486816 314495682 -662794274 300040051 1505917425 -484107087 -1243328946 -1785792183 -762178994 -1344203826 -1717233428 -2052299548 870658389 -1821567613 -236666407 565477672 -1443189245 2115094099 2020562295 -295228189 -457650910 1802481002 -470417487
REM
CELL 1.54180   50.00000   50.00000   50.00000   90.00000   90.00000   90.00000
LATT -1
SFAC C  
C      1  0.5644640000000  0.5468900000000  0.4801020000000 1.0
C      1  0.5270970000000  0.4838540000000  0.5345350000000 1.0
C      1  0.5002060000000  0.4958520000000  0.4458910000000 1.0
C      1  0.4433820000000  0.4392630000000  0.5798960000000 1.0
C      1  0.4974360000000  0.5389040000000  0.5303490000000 1.0
C      1  0.5618110000000  0.4481730000000  0.5449920000000 1.0
C      1  0.5078350000000  0.5640830000000  0.5289690000000 1.0
C      1  0.5395050000000  0.5666590000000  0.5256390000000 1.0
C      1  0.5440630000000  0.5036780000000  0.5464720000000 1.0
C      1  0.5450310000000  0.5017620000000  0.5790910000000 1.0
C      1  0.5058230000000  0.4144900000000  0.4749340000000 1.0
C      1  0.5328560000000  0.4911960000000  0.4212940000000 1.0
C      1  0.5470140000000  0.5959620000000  0.4715490000000 1.0
C      1  0.5540120000000  0.5305720000000  0.5629020000000 1.0
C      1  0.4122300000000  0.5200960000000  0.5053710000000 1.0
C      1  0.4715270000000  0.4656680000000  0.4428080000000 1.0
C      1  0.4589370000000  0.5440750000000  0.4489900000000 1.0
C      1  0.4611930000000  0.4619130000000  0.5072520000000 1.0
C      1  0.5486540000000  0.5510890000000  0.4533650000000 1.0
C      1  0.4212430000000  0.4791560000000  0.4672820000000 1.0
C      1  0.4942530000000  0.5209140000000  0.5743020000000 1.0
C      1  0.4969180000000  0.4154160000000  0.5269450000000 1.0
C      1  0.5171510000000  0.5137480000000  0.4145130000000 1.0
C      1  0.4519980000000  0.4346180000000  0.5168870000000 1.0
C      1  0.4630250000000  0.4114350000000  0.4974770000000 1.0
C      1  0.5084020000000  0.4416850000000  0.4545470000000 1.0
C      1  0.4241420000000  0.5319610000000  0.4804960000000 1.0
C      1  0.5686280000000  0.4955090000000  0.5159820000000 1.0
C      1  0.4808230000000  0.5524970000000  0.4325570000000 1.0
C      1  0.4978710000000  0.5329070000000  0.4193200000000 1.0
C      1  0.4808620000000  0.5027870000000  0.5260650000000 1.0
C      1  0.4264350000000  0.5095150000000  0.5316900000000 1.0
C      1  0.5358460000000  0.5562040000000  0.5563000000000 1.0
C      1  0.5800300000000  0.5193110000000  0.4747240000000 1.0
C      1  0.5373310000000  0.4255330000000  0.4764130000000 1.0
C      1  0.5737570000000  0.4858290000000  0.4695020000000 1.0
C      1  0.4885390000000  0.5340660000000  0.4773260000000 1.0
C      1  0.4920550000000  0.4685920000000  0.4958830000000 1.0
C      1  0.5184650000000  0.5225990000000  0.4534890000000 1.0
C      1  0.4438750000000  0.4824150000000  0.4417100000000 1.0
C      1  0.4829880000000  0.4209030000000  0.4504090000000 1.0
C      1  0.5396380000000  0.5679010000000  0.4928840000000 1.0
C      1  0.4658710000000  0.5549970000000  0.5528500000000 1.0
C      1  0.5180530000000  0.5059790000000  0.4800590000000 1.0
C      1  0.5606630000000  0.4741050000000  0.5669690000000 1.0
C      1  0.5477110000000  0.4279640000000  0.5301030000000 1.0
C      1  0.5093300000000  0.5521700000000  0.4604440000000 1.0
C      1  0.4215340000000  0.4888260000000  0.4978120000000 1.0
C      1  0.4986680000000  0.4708090000000  0.4251920000000 1.0
C      1  0.5131610000000  0.4567820000000  0.5463400000000 1.0
C      1  0.4691480000000  0.5736350000000  0.5317880000000 1.0
C      1  0.5348600000000  0.4786900000000  0.4742170000000 1.0
C      1  0.5789760000000  0.5681010000000  0.4992110000000 1.0
C      1  0.4639220000000  0.4282390000000  0.5658420000000 1.0
C      1  0.4912590000000  0.5800810000000  0.5075160000000 1.0
C      1  0.4619590000000  0.5640980000000  0.4999060000000 1.0
C      1  0.5199870000000  0.4284990000000  0.5361390000000 1.0
C      1  0.4369320000000  0.5145330000000  0.5697070000000 1.0
C      1  0.5701600000000  0.5114090000000  0.4437330000000 1.0
C      1  0.4908210000000  0.4081620000000  0.4998730000000 1.0
C      1  0.5502730000000  0.4770910000000  0.4464420000000 1.0
C      1  0.5776350000000  0.5466050000000  0.5474980000000 1.0
C      1  0.5104270000000  0.4997380000000  0.5126130000000 1.0
C      1  0.4777430000000  0.5107570000000  0.4603210000000 1.0
C      1  0.5125690000000  0.5631240000000  0.5686570000000 1.0
C      1  0.5258040000000  0.4591570000000  0.4210510000000 1.0
C      1  0.5431510000000  0.4980470000000  0.5011220000000 1.0
C      1  0.4951870000000  0.5769980000000  0.4429720000000 1.0
C      1  0.4499230000000  0.5084040000000  0.4999630000000 1.0
C      1  0.4474270000000  0.5369990000000  0.5125890000000 1.0
C      1  0.5165170000000  0.4603720000000  0.5122400000000 1.0
C      1  0.5723390000000  0.5939930000000  0.4876060000000 1.0
C      1  0.5008740000000  0.5967950000000  0.4633990000000 1.0
C      1  0.4853090000000  0.5292430000000  0.5047870000000 1.0
C      1  0.4708270000000  0.4931640000000  0.4842220000000 1.0
C      1  0.5688270000000  0.4650700000000  0.4901490000000 1.0
C      1  0.4565680000000  0.4275060000000  0.4471580000000 1.0
C      1  0.5115630000000  0.5861100000000  0.4865190000000 1.0
C      1  0.5538070000000  0.4173650000000  0.5041040000000 1.0
C      1  0.5465200000000  0.5258250000000  0.4387190000000 1.0
C      1  0.4423210000000  0.5359080000000  0.5462120000000 1.0
C      1  0.5723560000000  0.4773350000000  0.5367040000000 1.0
C      1  0.5892260000000  0.5068690000000  0.5021500000000 1.0
C      1  0.5401030000000  0.4531620000000  0.4930690000000 1.0
C      1  0.4803800000000  0.4964030000000  0.5583600000000 1.0
C      1  0.4231730000000  0.4388340000000  0.5228860000000 1.0
C      1  0.5334050000000  0.5756640000000  0.4542850000000 1.0
C      1  0.4128610000000  0.4685880000000  0.5174260000000 1.0
C      1  0.4888540000000  0.5475310000000  0.5684490000000 1.0
C      1  0.4242490000000  0.5114610000000  0.4601240000000 1.0
C      1  0.4720280000000  0.4238240000000  0.5394800000000 1.0
C      1  0.4101000000000  0.4553890000000  0.5470460000000 1.0
C      1  0.5009270000000  0.4730730000000  0.5683960000000 1.0
C      1  0.4360720000000  0.4512570000000  0.4541350000000 1.0
C      1  0.4520470000000  0.4943390000000  0.5706510000000 1.0
C      1  0.4198220000000  0.4513500000000  0.5729280000000 1.0
C      1  0.5402070000000  0.4445270000000  0.4481190000000 1.0
C      1  0.5707370000000  0.5627890000000  0.5262880000000 1.0
C      1  0.4973010000000  0.4681560000000  0.4649670000000 1.0
C      1  0.4508940000000  0.4867420000000  0.5248250000000 1.0
C      1  0.4586480000000  0.4648690000000  0.4744520000000 1.0
C      1  0.4466270000000  0.5503890000000  0.4749070000000 1.0
C      1  0.5132630000000  0.4984150000000  0.5809450000000 1.0
C      1  0.4507440000000  0.5139990000000  0.4422570000000 1.0
END
