TITL C-2778437-8639-82 -4.21041701022361e-05 125000 -446.703415411931 0 0 76 (C1) n - 1
REM
REM in /home/nfs/bkarasulu/CARBON/AIRSS/Generating-Clusters/REBO/Only-C1/SD-CG/HFTN-CG
REM
REM
REM
REM
REM
REM ./C.cell (11c1c37f851c82e70ff6c80c92926a4b)
REM
REM compiler GCC version 9.2.1 20190827 (Red Hat 9.2.1-1)
REM options -cpp -mtune=generic -march=x86-64 -g -O0 -fpre-include=/usr/include/finclude/math-vector-fortran.h
REM seed -1115849629 -1596505384 -722285148 1127742867 183310322 -1365097919 -211120721 -964741609 -307178906 1236839252 -1799008849 407198859 956694345 -1504521579 -678740633 -633678401 1910910404 -9193433 1866793999 1320867821 -1291962478 -294886277 1896613829 -1131583981 -1279913518 100321053 1926283371 1975205593 958896019 1391155889 130281364 1789396738 -1079682249
REM
CELL 1.54180   50.00000   50.00000   50.00000   90.00000   90.00000   90.00000
LATT -1
SFAC C  
C      1  0.4408070000000  0.4325780000000  0.5134210000000 1.0
C      1  0.5576570000000  0.5326100000000  0.6045790000000 1.0
C      1  0.4760440000000  0.4865810000000  0.5682330000000 1.0
C      1  0.4912680000000  0.5442090000000  0.5979940000000 1.0
C      1  0.5271270000000  0.4518980000000  0.5440610000000 1.0
C      1  0.4443300000000  0.5451020000000  0.4835440000000 1.0
C      1  0.5132040000000  0.4943480000000  0.4383240000000 1.0
C      1  0.5148900000000  0.4425040000000  0.5198120000000 1.0
C      1  0.5054110000000  0.5017260000000  0.4706750000000 1.0
C      1  0.5123810000000  0.4181280000000  0.3960290000000 1.0
C      1  0.4662590000000  0.5254580000000  0.5206840000000 1.0
C      1  0.4800350000000  0.5872710000000  0.4871580000000 1.0
C      1  0.4999900000000  0.4746450000000  0.3940900000000 1.0
C      1  0.5313390000000  0.5030570000000  0.4864860000000 1.0
C      1  0.4932460000000  0.5218280000000  0.4026930000000 1.0
C      1  0.4944430000000  0.5684440000000  0.5858980000000 1.0
C      1  0.4641560000000  0.5999810000000  0.5313050000000 1.0
C      1  0.5609770000000  0.4807340000000  0.5199470000000 1.0
C      1  0.4646320000000  0.5269200000000  0.4927390000000 1.0
C      1  0.4620120000000  0.4716270000000  0.4214710000000 1.0
C      1  0.5717890000000  0.5566120000000  0.5623190000000 1.0
C      1  0.4719650000000  0.4425200000000  0.5453630000000 1.0
C      1  0.5171440000000  0.4488810000000  0.4697410000000 1.0
C      1  0.5541290000000  0.5545390000000  0.5403440000000 1.0
C      1  0.5291970000000  0.4494130000000  0.4959760000000 1.0
C      1  0.5223760000000  0.4268060000000  0.4530130000000 1.0
C      1  0.5553280000000  0.4622780000000  0.4979180000000 1.0
C      1  0.5394980000000  0.5102450000000  0.4434830000000 1.0
C      1  0.4902540000000  0.5351560000000  0.5308160000000 1.0
C      1  0.5357490000000  0.5378410000000  0.4459450000000 1.0
C      1  0.4211370000000  0.5381000000000  0.5559500000000 1.0
C      1  0.4340060000000  0.4707630000000  0.5496660000000 1.0
C      1  0.4267110000000  0.4553610000000  0.3887930000000 1.0
C      1  0.5294130000000  0.5671300000000  0.5417860000000 1.0
C      1  0.5577760000000  0.4984600000000  0.4656170000000 1.0
C      1  0.5451960000000  0.4769080000000  0.5431440000000 1.0
C      1  0.4904320000000  0.5615900000000  0.4695420000000 1.0
C      1  0.4439010000000  0.4465610000000  0.5386650000000 1.0
C      1  0.4425270000000  0.4525860000000  0.4104470000000 1.0
C      1  0.4914190000000  0.4782990000000  0.3684210000000 1.0
C      1  0.5731740000000  0.5469430000000  0.5876380000000 1.0
C      1  0.4752700000000  0.4608400000000  0.4448230000000 1.0
C      1  0.5670130000000  0.4702330000000  0.4729770000000 1.0
C      1  0.4688940000000  0.4224720000000  0.4743250000000 1.0
C      1  0.4670200000000  0.4262200000000  0.5018220000000 1.0
C      1  0.5115190000000  0.5175880000000  0.5283050000000 1.0
C      1  0.4574860000000  0.5674640000000  0.4719210000000 1.0
C      1  0.5334720000000  0.4041180000000  0.4632210000000 1.0
C      1  0.5069390000000  0.4494390000000  0.4027860000000 1.0
C      1  0.5068580000000  0.5207700000000  0.5958590000000 1.0
C      1  0.5000860000000  0.4710730000000  0.4578470000000 1.0
C      1  0.5195200000000  0.5478930000000  0.4717850000000 1.0
C      1  0.4973170000000  0.5645700000000  0.5320060000000 1.0
C      1  0.4916100000000  0.5284810000000  0.4766180000000 1.0
C      1  0.4831670000000  0.4578230000000  0.5663530000000 1.0
C      1  0.5016010000000  0.4999430000000  0.5770510000000 1.0
C      1  0.4802180000000  0.5842150000000  0.5171240000000 1.0
C      1  0.4443790000000  0.5183510000000  0.5406530000000 1.0
C      1  0.4848140000000  0.6128570000000  0.4773070000000 1.0
C      1  0.5257970000000  0.4828420000000  0.5691040000000 1.0
C      1  0.5337650000000  0.5162610000000  0.5113990000000 1.0
C      1  0.4203790000000  0.5435080000000  0.4987540000000 1.0
C      1  0.5668940000000  0.5208680000000  0.4860560000000 1.0
C      1  0.5017690000000  0.4968310000000  0.4111640000000 1.0
C      1  0.5494570000000  0.5425490000000  0.4846320000000 1.0
C      1  0.4508210000000  0.4931550000000  0.5558900000000 1.0
C      1  0.5725480000000  0.5068120000000  0.5129490000000 1.0
C      1  0.4445380000000  0.4297600000000  0.4288650000000 1.0
C      1  0.5161210000000  0.4291310000000  0.4262740000000 1.0
C      1  0.4873150000000  0.4339440000000  0.5215870000000 1.0
C      1  0.4638210000000  0.4349250000000  0.4500120000000 1.0
C      1  0.5062260000000  0.5753130000000  0.5619880000000 1.0
C      1  0.5114620000000  0.4541680000000  0.5699390000000 1.0
C      1  0.5571790000000  0.5325110000000  0.5230210000000 1.0
C      1  0.4185180000000  0.5343220000000  0.5249900000000 1.0
C      1  0.5328780000000  0.5221070000000  0.6068670000000 1.0
END
