TITL C-2778432-5617-1246 -0.00131985623407751 125000 -985.010130240562 0 0 168 (C1) n - 1
REM
REM in /home/nfs/bkarasulu/CARBON/AIRSS/Generating-Clusters/REBO/Only-C1/SD-CG/HFTN-CG
REM
REM
REM
REM
REM
REM ./C.cell (11c1c37f851c82e70ff6c80c92926a4b)
REM
REM compiler GCC version 9.2.1 20190827 (Red Hat 9.2.1-1)
REM options -cpp -mtune=generic -march=x86-64 -g -O0 -fpre-include=/usr/include/finclude/math-vector-fortran.h
REM seed -287122048 1798676732 1778641592 1175793407 -608746120 -381794325 -458228677 479406789 1591942884 -864280277 -594593624 -147043367 -1069138755 1555542918 478728716 -1953930615 1620906947 1283327058 390924912 -1423643389 1902735782 661900007 1212948109 763624205 956784401 -1767975392 -182902438 -61276642 -1853608267 -1059284063 -1729816793 -172124748 -1700426924
REM
CELL 1.54180   50.00000   50.00000   50.00000   90.00000   90.00000   90.00000
LATT -1
SFAC C  
C      1  0.4624870000000  0.4769980000000  0.5772550000000 1.0
C      1  0.5252600000000  0.4442600000000  0.4244030000000 1.0
C      1  0.4620670000000  0.5929770000000  0.4890030000000 1.0
C      1  0.5098940000000  0.4902680000000  0.5564550000000 1.0
C      1  0.4704620000000  0.4472960000000  0.5834400000000 1.0
C      1  0.4700980000000  0.3995160000000  0.5095650000000 1.0
C      1  0.4888240000000  0.5351420000000  0.4883570000000 1.0
C      1  0.5281490000000  0.5348960000000  0.4836810000000 1.0
C      1  0.5516960000000  0.4425450000000  0.4409070000000 1.0
C      1  0.4759640000000  0.4149190000000  0.5377370000000 1.0
C      1  0.4943650000000  0.5493710000000  0.4433660000000 1.0
C      1  0.4112050000000  0.4892300000000  0.5903610000000 1.0
C      1  0.5020180000000  0.3987170000000  0.5217760000000 1.0
C      1  0.4453870000000  0.5049280000000  0.4971560000000 1.0
C      1  0.4955600000000  0.3941590000000  0.4660510000000 1.0
C      1  0.4485260000000  0.4843250000000  0.4630490000000 1.0
C      1  0.5930510000000  0.4397590000000  0.4571320000000 1.0
C      1  0.4697210000000  0.4920010000000  0.5163040000000 1.0
C      1  0.4978880000000  0.4247560000000  0.4774040000000 1.0
C      1  0.5347740000000  0.5038400000000  0.4872000000000 1.0
C      1  0.5022120000000  0.5910180000000  0.5602670000000 1.0
C      1  0.4829420000000  0.4460580000000  0.5304360000000 1.0
C      1  0.5447730000000  0.4170090000000  0.5464160000000 1.0
C      1  0.5719420000000  0.4216220000000  0.4486900000000 1.0
C      1  0.4104300000000  0.4958940000000  0.4329480000000 1.0
C      1  0.5226120000000  0.5212630000000  0.5617300000000 1.0
C      1  0.4660770000000  0.5186510000000  0.5590600000000 1.0
C      1  0.4319070000000  0.5070780000000  0.4512870000000 1.0
C      1  0.4708500000000  0.4597250000000  0.5051520000000 1.0
C      1  0.5723480000000  0.4818290000000  0.5627590000000 1.0
C      1  0.4688880000000  0.4395960000000  0.4468620000000 1.0
C      1  0.5571680000000  0.5718450000000  0.5486820000000 1.0
C      1  0.4371960000000  0.5350440000000  0.4534070000000 1.0
C      1  0.5416750000000  0.5001900000000  0.4038180000000 1.0
C      1  0.5548200000000  0.4674280000000  0.4585530000000 1.0
C      1  0.5045150000000  0.6113070000000  0.5153910000000 1.0
C      1  0.5223400000000  0.5162670000000  0.3932380000000 1.0
C      1  0.4797340000000  0.5333050000000  0.5361210000000 1.0
C      1  0.5715630000000  0.4548560000000  0.5667310000000 1.0
C      1  0.4711120000000  0.5117080000000  0.4451220000000 1.0
C      1  0.4941550000000  0.5295070000000  0.4042940000000 1.0
C      1  0.4708260000000  0.5836930000000  0.4403750000000 1.0
C      1  0.4337380000000  0.4826240000000  0.5322740000000 1.0
C      1  0.4725290000000  0.5009870000000  0.4769600000000 1.0
C      1  0.4699360000000  0.4325570000000  0.4861150000000 1.0
C      1  0.4611930000000  0.4872530000000  0.4234860000000 1.0
C      1  0.4060940000000  0.5304440000000  0.4866530000000 1.0
C      1  0.4488340000000  0.5225660000000  0.5867500000000 1.0
C      1  0.5449430000000  0.4975810000000  0.5388760000000 1.0
C      1  0.5257870000000  0.5297760000000  0.6005760000000 1.0
C      1  0.5773910000000  0.4480170000000  0.5076070000000 1.0
C      1  0.4532200000000  0.4481830000000  0.3952600000000 1.0
C      1  0.3976020000000  0.4807310000000  0.4833810000000 1.0
C      1  0.4349240000000  0.5617910000000  0.5195720000000 1.0
C      1  0.3952110000000  0.4770630000000  0.4496140000000 1.0
C      1  0.5057180000000  0.5178450000000  0.4639540000000 1.0
C      1  0.5300920000000  0.4420010000000  0.5873510000000 1.0
C      1  0.5356090000000  0.4906810000000  0.4567580000000 1.0
C      1  0.5421680000000  0.4707090000000  0.4146260000000 1.0
C      1  0.5850850000000  0.5280470000000  0.5502310000000 1.0
C      1  0.5357110000000  0.3995380000000  0.5171600000000 1.0
C      1  0.5096050000000  0.5898640000000  0.4707390000000 1.0
C      1  0.6019980000000  0.5414590000000  0.4916860000000 1.0
C      1  0.5189830000000  0.6055290000000  0.5427430000000 1.0
C      1  0.4307310000000  0.5320480000000  0.5226030000000 1.0
C      1  0.5405580000000  0.3885100000000  0.4894960000000 1.0
C      1  0.4913290000000  0.4282360000000  0.5649200000000 1.0
C      1  0.6020640000000  0.4897510000000  0.4681520000000 1.0
C      1  0.5588040000000  0.5626140000000  0.4943530000000 1.0
C      1  0.4880320000000  0.6016560000000  0.4912980000000 1.0
C      1  0.5862300000000  0.4701540000000  0.4484660000000 1.0
C      1  0.5624200000000  0.4210980000000  0.5195370000000 1.0
C      1  0.4658800000000  0.5175990000000  0.4111680000000 1.0
C      1  0.4185800000000  0.5338850000000  0.5823820000000 1.0
C      1  0.4083790000000  0.4509390000000  0.4594340000000 1.0
C      1  0.4406200000000  0.4230470000000  0.5494670000000 1.0
C      1  0.4998060000000  0.5887610000000  0.4422310000000 1.0
C      1  0.4778270000000  0.4687420000000  0.4543560000000 1.0
C      1  0.5523810000000  0.5163950000000  0.4530120000000 1.0
C      1  0.6059030000000  0.5227980000000  0.4727130000000 1.0
C      1  0.5364100000000  0.6085250000000  0.5070480000000 1.0
C      1  0.4611060000000  0.4890960000000  0.5467590000000 1.0
C      1  0.4919170000000  0.4756500000000  0.4838470000000 1.0
C      1  0.4665960000000  0.5661520000000  0.4164040000000 1.0
C      1  0.4967870000000  0.4610450000000  0.5569320000000 1.0
C      1  0.5562670000000  0.5547140000000  0.4635260000000 1.0
C      1  0.4182710000000  0.5086730000000  0.5289830000000 1.0
C      1  0.5931420000000  0.4752610000000  0.5195740000000 1.0
C      1  0.4440050000000  0.4343910000000  0.4641350000000 1.0
C      1  0.4972740000000  0.5786290000000  0.5226190000000 1.0
C      1  0.4232650000000  0.4641650000000  0.5577810000000 1.0
C      1  0.5783000000000  0.4996720000000  0.5334150000000 1.0
C      1  0.5391120000000  0.5630840000000  0.4204490000000 1.0
C      1  0.5454780000000  0.4107160000000  0.4642010000000 1.0
C      1  0.4385980000000  0.4913030000000  0.5909760000000 1.0
C      1  0.5147080000000  0.4227160000000  0.5417960000000 1.0
C      1  0.4870090000000  0.4988050000000  0.5754990000000 1.0
C      1  0.5696960000000  0.4810890000000  0.4241100000000 1.0
C      1  0.4719610000000  0.5270830000000  0.6082480000000 1.0
C      1  0.5045520000000  0.4883050000000  0.4465650000000 1.0
C      1  0.5668620000000  0.5264780000000  0.4798850000000 1.0
C      1  0.4553100000000  0.5785160000000  0.4626610000000 1.0
C      1  0.5805350000000  0.5558210000000  0.5359800000000 1.0
C      1  0.4965660000000  0.5129070000000  0.6016570000000 1.0
C      1  0.5158450000000  0.5732560000000  0.5771370000000 1.0
C      1  0.5698150000000  0.5138100000000  0.4175680000000 1.0
C      1  0.5131590000000  0.5239850000000  0.4312390000000 1.0
C      1  0.4008260000000  0.4503530000000  0.4984490000000 1.0
C      1  0.5187750000000  0.4221260000000  0.4499040000000 1.0
C      1  0.4230460000000  0.5486690000000  0.4731590000000 1.0
C      1  0.4630290000000  0.5444460000000  0.4406030000000 1.0
C      1  0.5444210000000  0.5690990000000  0.5778580000000 1.0
C      1  0.4057160000000  0.4534750000000  0.5317790000000 1.0
C      1  0.6013600000000  0.4420890000000  0.4843420000000 1.0
C      1  0.5453260000000  0.4978690000000  0.5729900000000 1.0
C      1  0.5243610000000  0.4733460000000  0.5308550000000 1.0
C      1  0.5512220000000  0.4351800000000  0.5700860000000 1.0
C      1  0.5027140000000  0.5644870000000  0.4923620000000 1.0
C      1  0.4745220000000  0.5840570000000  0.5472110000000 1.0
C      1  0.5104640000000  0.4783020000000  0.3917690000000 1.0
C      1  0.5131260000000  0.5752570000000  0.4194220000000 1.0
C      1  0.3981450000000  0.5129650000000  0.5799090000000 1.0
C      1  0.4344850000000  0.5032970000000  0.4119440000000 1.0
C      1  0.4291230000000  0.4314630000000  0.5205480000000 1.0
C      1  0.3874060000000  0.4768390000000  0.5157740000000 1.0
C      1  0.5474670000000  0.5985560000000  0.5348740000000 1.0
C      1  0.3904350000000  0.5025730000000  0.5319770000000 1.0
C      1  0.4163920000000  0.5049820000000  0.4893100000000 1.0
C      1  0.4489080000000  0.5757050000000  0.5399180000000 1.0
C      1  0.4416400000000  0.4441290000000  0.5680820000000 1.0
C      1  0.5429550000000  0.5327600000000  0.4269470000000 1.0
C      1  0.5828670000000  0.5558230000000  0.5076150000000 1.0
C      1  0.5189170000000  0.4397620000000  0.4942860000000 1.0
C      1  0.5855340000000  0.5116060000000  0.4478130000000 1.0
C      1  0.4871450000000  0.4127240000000  0.4409700000000 1.0
C      1  0.5577640000000  0.6032490000000  0.4598630000000 1.0
C      1  0.4707980000000  0.4593370000000  0.4141920000000 1.0
C      1  0.5528540000000  0.4595850000000  0.4880730000000 1.0
C      1  0.4989010000000  0.4773560000000  0.4156590000000 1.0
C      1  0.5002200000000  0.5537250000000  0.5459870000000 1.0
C      1  0.5736150000000  0.5160420000000  0.5038620000000 1.0
C      1  0.5046760000000  0.5437790000000  0.5777340000000 1.0
C      1  0.5677880000000  0.5797650000000  0.4495920000000 1.0
C      1  0.4438660000000  0.4139420000000  0.4980170000000 1.0
C      1  0.4954760000000  0.4380580000000  0.4216000000000 1.0
C      1  0.4368390000000  0.5709470000000  0.4904540000000 1.0
C      1  0.5298060000000  0.5598830000000  0.5359190000000 1.0
C      1  0.4163960000000  0.4273450000000  0.4828640000000 1.0
C      1  0.4375610000000  0.4617990000000  0.5091880000000 1.0
C      1  0.6061210000000  0.4711280000000  0.4924340000000 1.0
C      1  0.5139000000000  0.4481010000000  0.5232230000000 1.0
C      1  0.4941380000000  0.5127600000000  0.5137490000000 1.0
C      1  0.5313140000000  0.5568830000000  0.5069770000000 1.0
C      1  0.4608710000000  0.5333620000000  0.5077630000000 1.0
C      1  0.5517290000000  0.5328760000000  0.5557460000000 1.0
C      1  0.5234960000000  0.5528750000000  0.4563440000000 1.0
C      1  0.5260070000000  0.4957750000000  0.5989500000000 1.0
C      1  0.5737210000000  0.5301060000000  0.5815370000000 1.0
C      1  0.5218330000000  0.4674110000000  0.6053960000000 1.0
C      1  0.4989790000000  0.4461320000000  0.5990990000000 1.0
C      1  0.3806040000000  0.5101940000000  0.5574200000000 1.0
C      1  0.4922750000000  0.5605370000000  0.4040150000000 1.0
C      1  0.4335470000000  0.4629920000000  0.4780150000000 1.0
C      1  0.5473520000000  0.4276320000000  0.4912740000000 1.0
C      1  0.5512010000000  0.5459730000000  0.5934150000000 1.0
C      1  0.5214280000000  0.4726330000000  0.4893720000000 1.0
C      1  0.5217260000000  0.5026070000000  0.5156870000000 1.0
C      1  0.5369230000000  0.6031540000000  0.4789310000000 1.0
END
