TITL C-2778424-3986-723 -0.00241270849082524 125000 -746.603733034893 0 0 128 (C1) n - 1
REM
REM in /home/nfs/bkarasulu/CARBON/AIRSS/Generating-Clusters/REBO/Only-C1/SD-CG/HFTN-CG
REM
REM
REM
REM
REM
REM ./C.cell (11c1c37f851c82e70ff6c80c92926a4b)
REM
REM compiler GCC version 9.2.1 20190827 (Red Hat 9.2.1-1)
REM options -cpp -mtune=generic -march=x86-64 -g -O0 -fpre-include=/usr/include/finclude/math-vector-fortran.h
REM seed 2067637161 1914300288 1435155796 1870916009 -427059126 1323419931 350003691 -328490994 -489544710 1653881386 391946551 1612600830 1706101874 220190760 -1685868086 -340142170 869453990 -1735540210 1254610217 -1952698407 257725586 912945952 -1638801217 -325535848 -929342181 -1210399110 -480581760 -1671698782 -58965459 -187891384 1849643528 1786388418 -1791013823
REM
CELL 1.54180   50.00000   50.00000   50.00000   90.00000   90.00000   90.00000
LATT -1
SFAC C  
C      1  0.5511190000000  0.4223580000000  0.5169980000000 1.0
C      1  0.4400670000000  0.5027170000000  0.5829060000000 1.0
C      1  0.4337660000000  0.5461890000000  0.4657500000000 1.0
C      1  0.5198640000000  0.5809930000000  0.5790260000000 1.0
C      1  0.4456410000000  0.4939980000000  0.4599580000000 1.0
C      1  0.5701780000000  0.5095220000000  0.5397020000000 1.0
C      1  0.4088130000000  0.5227700000000  0.5047300000000 1.0
C      1  0.4987360000000  0.4744390000000  0.5887980000000 1.0
C      1  0.5025010000000  0.5518790000000  0.4915590000000 1.0
C      1  0.5330650000000  0.5310330000000  0.4370590000000 1.0
C      1  0.4452860000000  0.4971980000000  0.4260280000000 1.0
C      1  0.5091470000000  0.5127030000000  0.4908090000000 1.0
C      1  0.4746850000000  0.4591770000000  0.5862250000000 1.0
C      1  0.4774780000000  0.5701890000000  0.5566090000000 1.0
C      1  0.4916730000000  0.5295940000000  0.4702960000000 1.0
C      1  0.5338430000000  0.5454600000000  0.4941630000000 1.0
C      1  0.5330670000000  0.4954110000000  0.5373680000000 1.0
C      1  0.4911100000000  0.5146590000000  0.4450600000000 1.0
C      1  0.4786410000000  0.4716320000000  0.4599920000000 1.0
C      1  0.4673370000000  0.5760140000000  0.4660830000000 1.0
C      1  0.4113550000000  0.4525900000000  0.5082270000000 1.0
C      1  0.5448080000000  0.5079690000000  0.4540220000000 1.0
C      1  0.5993480000000  0.5112220000000  0.6100170000000 1.0
C      1  0.4950290000000  0.5026960000000  0.5866860000000 1.0
C      1  0.5745800000000  0.4953760000000  0.4446810000000 1.0
C      1  0.4591560000000  0.5458530000000  0.5118400000000 1.0
C      1  0.4857950000000  0.4708000000000  0.4046210000000 1.0
C      1  0.4955590000000  0.4887060000000  0.5350310000000 1.0
C      1  0.5142230000000  0.4579550000000  0.4846320000000 1.0
C      1  0.5125250000000  0.4843790000000  0.5055830000000 1.0
C      1  0.4940840000000  0.5586450000000  0.4282010000000 1.0
C      1  0.5417050000000  0.5611460000000  0.4488080000000 1.0
C      1  0.5080750000000  0.5339350000000  0.4149220000000 1.0
C      1  0.4475940000000  0.4355820000000  0.4610460000000 1.0
C      1  0.5722620000000  0.4643610000000  0.4455700000000 1.0
C      1  0.4889860000000  0.5447860000000  0.5282640000000 1.0
C      1  0.4283800000000  0.5357010000000  0.5491770000000 1.0
C      1  0.5191390000000  0.4462670000000  0.5146510000000 1.0
C      1  0.4434950000000  0.4778190000000  0.5519520000000 1.0
C      1  0.5202070000000  0.4631110000000  0.5736110000000 1.0
C      1  0.5603510000000  0.4094880000000  0.5690020000000 1.0
C      1  0.4757030000000  0.4198580000000  0.4592360000000 1.0
C      1  0.5129890000000  0.5628400000000  0.5234650000000 1.0
C      1  0.4512890000000  0.4741870000000  0.5836330000000 1.0
C      1  0.5390580000000  0.4825460000000  0.5648280000000 1.0
C      1  0.5397660000000  0.4450220000000  0.4403510000000 1.0
C      1  0.5317150000000  0.5752080000000  0.4778360000000 1.0
C      1  0.5932290000000  0.4661660000000  0.5296410000000 1.0
C      1  0.4796590000000  0.5835640000000  0.5307570000000 1.0
C      1  0.4627010000000  0.4228110000000  0.5124450000000 1.0
C      1  0.5686640000000  0.5443280000000  0.4492260000000 1.0
C      1  0.5320500000000  0.5170110000000  0.3996580000000 1.0
C      1  0.5029960000000  0.4871940000000  0.4471310000000 1.0
C      1  0.4690280000000  0.5169480000000  0.4219400000000 1.0
C      1  0.5125750000000  0.5743650000000  0.4432590000000 1.0
C      1  0.3967570000000  0.4980040000000  0.5185010000000 1.0
C      1  0.4807530000000  0.5764800000000  0.4978690000000 1.0
C      1  0.4542060000000  0.5266090000000  0.5913890000000 1.0
C      1  0.4863670000000  0.4448900000000  0.5224670000000 1.0
C      1  0.5787570000000  0.5428520000000  0.5030640000000 1.0
C      1  0.4450760000000  0.4369220000000  0.4938010000000 1.0
C      1  0.5697910000000  0.4801670000000  0.5393770000000 1.0
C      1  0.4092980000000  0.4774080000000  0.4582760000000 1.0
C      1  0.4642240000000  0.4843570000000  0.4842750000000 1.0
C      1  0.5413480000000  0.4641860000000  0.5294400000000 1.0
C      1  0.5154780000000  0.5367530000000  0.5594620000000 1.0
C      1  0.4303540000000  0.4917390000000  0.5172870000000 1.0
C      1  0.4506570000000  0.5399090000000  0.4301740000000 1.0
C      1  0.5628350000000  0.5629000000000  0.5154000000000 1.0
C      1  0.5473880000000  0.4237860000000  0.4927780000000 1.0
C      1  0.4132790000000  0.4981210000000  0.4375390000000 1.0
C      1  0.4938480000000  0.4163130000000  0.5042570000000 1.0
C      1  0.4475360000000  0.4678170000000  0.5022700000000 1.0
C      1  0.4277910000000  0.5077600000000  0.5557280000000 1.0
C      1  0.4445160000000  0.5675910000000  0.4899450000000 1.0
C      1  0.5277440000000  0.4821640000000  0.4645190000000 1.0
C      1  0.3902180000000  0.4696580000000  0.5141580000000 1.0
C      1  0.5713430000000  0.5234780000000  0.4286280000000 1.0
C      1  0.4952640000000  0.5034380000000  0.4070160000000 1.0
C      1  0.5448050000000  0.5303970000000  0.5485420000000 1.0
C      1  0.5525810000000  0.5046990000000  0.4127970000000 1.0
C      1  0.5889480000000  0.5221360000000  0.5215270000000 1.0
C      1  0.5395490000000  0.5202210000000  0.5164560000000 1.0
C      1  0.5100410000000  0.4482520000000  0.4528710000000 1.0
C      1  0.4270120000000  0.5171640000000  0.4768810000000 1.0
C      1  0.5157750000000  0.4787960000000  0.4187800000000 1.0
C      1  0.4168400000000  0.4877540000000  0.4863160000000 1.0
C      1  0.4919930000000  0.5158750000000  0.5179930000000 1.0
C      1  0.5414530000000  0.5571890000000  0.5314990000000 1.0
C      1  0.5797490000000  0.5019000000000  0.5953270000000 1.0
C      1  0.4556610000000  0.4306440000000  0.5433220000000 1.0
C      1  0.5848160000000  0.4530970000000  0.4751740000000 1.0
C      1  0.4674800000000  0.5277670000000  0.5471610000000 1.0
C      1  0.4178390000000  0.5422610000000  0.5236880000000 1.0
C      1  0.4500410000000  0.5146410000000  0.5231750000000 1.0
C      1  0.5137550000000  0.4169370000000  0.5298530000000 1.0
C      1  0.4506200000000  0.4630010000000  0.4454680000000 1.0
C      1  0.5408870000000  0.5148840000000  0.4833370000000 1.0
C      1  0.4808250000000  0.4400770000000  0.5616830000000 1.0
C      1  0.4623940000000  0.5355490000000  0.4792510000000 1.0
C      1  0.4692040000000  0.5102180000000  0.4970990000000 1.0
C      1  0.4551360000000  0.4686420000000  0.4138530000000 1.0
C      1  0.5478710000000  0.4734140000000  0.4232760000000 1.0
C      1  0.4997570000000  0.5855770000000  0.4707960000000 1.0
C      1  0.5952140000000  0.4657580000000  0.5008040000000 1.0
C      1  0.4989450000000  0.4167480000000  0.4746480000000 1.0
C      1  0.6140200000000  0.5119870000000  0.5180540000000 1.0
C      1  0.4793180000000  0.5199520000000  0.6028610000000 1.0
C      1  0.4955260000000  0.5134110000000  0.5577330000000 1.0
C      1  0.5411630000000  0.4193930000000  0.5486030000000 1.0
C      1  0.5452310000000  0.4777820000000  0.5000520000000 1.0
C      1  0.4674470000000  0.5606780000000  0.4388730000000 1.0
C      1  0.4237010000000  0.5283480000000  0.4387530000000 1.0
C      1  0.4196420000000  0.4498480000000  0.4753070000000 1.0
C      1  0.5773030000000  0.5344330000000  0.4754430000000 1.0
C      1  0.5303870000000  0.4258010000000  0.4671780000000 1.0
C      1  0.5598330000000  0.4924270000000  0.5803990000000 1.0
C      1  0.4740940000000  0.4671150000000  0.5413910000000 1.0
C      1  0.5043690000000  0.5622200000000  0.5666490000000 1.0
C      1  0.5127930000000  0.4356620000000  0.5584170000000 1.0
C      1  0.5796650000000  0.5060840000000  0.4735450000000 1.0
C      1  0.5523280000000  0.4604010000000  0.4730060000000 1.0
C      1  0.5745920000000  0.4872010000000  0.4932450000000 1.0
C      1  0.5089710000000  0.5939850000000  0.5198800000000 1.0
C      1  0.5245240000000  0.6008500000000  0.4980100000000 1.0
C      1  0.4872440000000  0.4536420000000  0.4325150000000 1.0
C      1  0.4530460000000  0.5494460000000  0.5668950000000 1.0
C      1  0.4366910000000  0.4540690000000  0.5309260000000 1.0
END
