TITL C-2778427-5640-976 -0.000257526352435954 125000 -568.65482610077 0 0 100 (C1) n - 1
REM
REM in /home/nfs/bkarasulu/CARBON/AIRSS/Generating-Clusters/REBO/Only-C1/SD-CG/HFTN-CG
REM
REM
REM
REM
REM
REM ./C.cell (11c1c37f851c82e70ff6c80c92926a4b)
REM
REM compiler GCC version 9.2.1 20190827 (Red Hat 9.2.1-1)
REM options -cpp -mtune=generic -march=x86-64 -g -O0 -fpre-include=/usr/include/finclude/math-vector-fortran.h
REM seed -372097453 1303414855 -650787076 -191210096 -1914929216 722403053 588209073 -507811561 -292700520 941874803 1800104904 -2082946700 1503325613 275918896 -334664751 121100828 -1686476982 97142180 825907667 1109885865 858247495 1676483284 -1440136170 -2014444874 1131254719 1360674227 1054797263 -1852603495 704284017 1489111032 -614378562 -838414159 -1038888530
REM
CELL 1.54180   50.00000   50.00000   50.00000   90.00000   90.00000   90.00000
LATT -1
SFAC C  
C      1  0.5152920000000  0.4171400000000  0.5207330000000 1.0
C      1  0.5634550000000  0.4435820000000  0.4524830000000 1.0
C      1  0.4639580000000  0.4825380000000  0.4547640000000 1.0
C      1  0.4313310000000  0.4740990000000  0.5442490000000 1.0
C      1  0.5595730000000  0.5065700000000  0.4672960000000 1.0
C      1  0.5504960000000  0.4652900000000  0.4739900000000 1.0
C      1  0.5531970000000  0.4257560000000  0.4779830000000 1.0
C      1  0.5358970000000  0.4412040000000  0.5207090000000 1.0
C      1  0.5283590000000  0.4679330000000  0.5896320000000 1.0
C      1  0.4090800000000  0.5225020000000  0.4729580000000 1.0
C      1  0.4271260000000  0.4904010000000  0.4422650000000 1.0
C      1  0.5546700000000  0.4758380000000  0.5784720000000 1.0
C      1  0.5068730000000  0.5506110000000  0.4798690000000 1.0
C      1  0.5691360000000  0.5338390000000  0.4786100000000 1.0
C      1  0.5070500000000  0.4732180000000  0.5387790000000 1.0
C      1  0.5379640000000  0.5514410000000  0.4945200000000 1.0
C      1  0.4377960000000  0.4495330000000  0.5312670000000 1.0
C      1  0.4273020000000  0.4483770000000  0.5044150000000 1.0
C      1  0.5435550000000  0.5434300000000  0.4339810000000 1.0
C      1  0.4155510000000  0.4953100000000  0.4670970000000 1.0
C      1  0.5361250000000  0.5184680000000  0.5336500000000 1.0
C      1  0.5575790000000  0.5058690000000  0.5763620000000 1.0
C      1  0.5651280000000  0.5203710000000  0.5504450000000 1.0
C      1  0.4537730000000  0.5405230000000  0.5530230000000 1.0
C      1  0.4428460000000  0.5258840000000  0.4518180000000 1.0
C      1  0.5125870000000  0.4912200000000  0.4446270000000 1.0
C      1  0.5082270000000  0.4931330000000  0.5662640000000 1.0
C      1  0.5374050000000  0.4796200000000  0.5429100000000 1.0
C      1  0.4754920000000  0.4447980000000  0.5653950000000 1.0
C      1  0.5340120000000  0.4878840000000  0.4912190000000 1.0
C      1  0.4773480000000  0.5662730000000  0.5469810000000 1.0
C      1  0.4715280000000  0.5777170000000  0.4854480000000 1.0
C      1  0.4524010000000  0.4577730000000  0.4560000000000 1.0
C      1  0.5297640000000  0.4583050000000  0.4187300000000 1.0
C      1  0.5305350000000  0.4615130000000  0.5081170000000 1.0
C      1  0.4788060000000  0.4775450000000  0.5667690000000 1.0
C      1  0.4419390000000  0.5090490000000  0.5297030000000 1.0
C      1  0.4717530000000  0.4455550000000  0.4887640000000 1.0
C      1  0.4980280000000  0.4241050000000  0.4853870000000 1.0
C      1  0.4628470000000  0.5758840000000  0.5173000000000 1.0
C      1  0.5320680000000  0.5198320000000  0.4832880000000 1.0
C      1  0.4828030000000  0.4186470000000  0.5156170000000 1.0
C      1  0.4979120000000  0.4447270000000  0.5325780000000 1.0
C      1  0.5036800000000  0.4549480000000  0.5766550000000 1.0
C      1  0.4531460000000  0.5510940000000  0.4809370000000 1.0
C      1  0.5097450000000  0.5103890000000  0.4166460000000 1.0
C      1  0.5020530000000  0.4885380000000  0.5973650000000 1.0
C      1  0.5537920000000  0.5030860000000  0.5120820000000 1.0
C      1  0.4829190000000  0.5352660000000  0.4866790000000 1.0
C      1  0.5091810000000  0.5780680000000  0.5005580000000 1.0
C      1  0.4671900000000  0.4354460000000  0.4504010000000 1.0
C      1  0.4645740000000  0.4366490000000  0.5371770000000 1.0
C      1  0.5231420000000  0.5782130000000  0.4692000000000 1.0
C      1  0.5703740000000  0.4808210000000  0.5479290000000 1.0
C      1  0.4776800000000  0.5492150000000  0.4224690000000 1.0
C      1  0.5685310000000  0.4774530000000  0.5082420000000 1.0
C      1  0.4914500000000  0.5402050000000  0.5636230000000 1.0
C      1  0.4892810000000  0.4951710000000  0.5234000000000 1.0
C      1  0.4801930000000  0.5728600000000  0.4383140000000 1.0
C      1  0.5502880000000  0.5541940000000  0.5231630000000 1.0
C      1  0.5288150000000  0.5130100000000  0.5642860000000 1.0
C      1  0.5483810000000  0.5558230000000  0.4624350000000 1.0
C      1  0.4801720000000  0.5049620000000  0.6025480000000 1.0
C      1  0.4869550000000  0.4857100000000  0.4222280000000 1.0
C      1  0.4582540000000  0.5297460000000  0.4270340000000 1.0
C      1  0.5704480000000  0.4472620000000  0.4953860000000 1.0
C      1  0.4186830000000  0.4772660000000  0.4939740000000 1.0
C      1  0.4483110000000  0.5173560000000  0.4787920000000 1.0
C      1  0.4438120000000  0.4346170000000  0.4874470000000 1.0
C      1  0.5150930000000  0.5245250000000  0.5127410000000 1.0
C      1  0.4548120000000  0.4948000000000  0.5576230000000 1.0
C      1  0.5399560000000  0.5149610000000  0.4277120000000 1.0
C      1  0.5034150000000  0.4569150000000  0.4265710000000 1.0
C      1  0.4783800000000  0.5207610000000  0.5384950000000 1.0
C      1  0.4396670000000  0.5603830000000  0.5356910000000 1.0
C      1  0.5313560000000  0.5608850000000  0.5438530000000 1.0
C      1  0.5063340000000  0.5791680000000  0.5343100000000 1.0
C      1  0.5020340000000  0.5400920000000  0.4116040000000 1.0
C      1  0.4709870000000  0.4768890000000  0.5022580000000 1.0
C      1  0.5719160000000  0.5302980000000  0.5123180000000 1.0
C      1  0.4947320000000  0.5070300000000  0.4918660000000 1.0
C      1  0.4464240000000  0.4957410000000  0.4992450000000 1.0
C      1  0.5788050000000  0.4547950000000  0.5276950000000 1.0
C      1  0.5205310000000  0.4645100000000  0.4618230000000 1.0
C      1  0.4152560000000  0.4912550000000  0.5235820000000 1.0
C      1  0.5248610000000  0.5568950000000  0.4167160000000 1.0
C      1  0.4896810000000  0.5825220000000  0.4634730000000 1.0
C      1  0.5867000000000  0.5074490000000  0.5336250000000 1.0
C      1  0.5295860000000  0.4165760000000  0.4898600000000 1.0
C      1  0.4981490000000  0.4640940000000  0.4859690000000 1.0
C      1  0.4210570000000  0.5464780000000  0.4782560000000 1.0
C      1  0.5009210000000  0.5500520000000  0.5191340000000 1.0
C      1  0.4569560000000  0.4977380000000  0.4273330000000 1.0
C      1  0.5524340000000  0.4663590000000  0.4341450000000 1.0
C      1  0.4901590000000  0.4895630000000  0.4677260000000 1.0
C      1  0.5210710000000  0.5423370000000  0.5631410000000 1.0
C      1  0.4673490000000  0.5197440000000  0.5767170000000 1.0
C      1  0.4695440000000  0.5427030000000  0.5160110000000 1.0
C      1  0.5536150000000  0.4946450000000  0.4422020000000 1.0
C      1  0.4986030000000  0.4391640000000  0.4548690000000 1.0
END
