TITL C-2778427-5640-524 0.00168897106542903 125000 -974.113154748217 0 0 166 (C1) n - 1
REM
REM in /home/nfs/bkarasulu/CARBON/AIRSS/Generating-Clusters/REBO/Only-C1/SD-CG/HFTN-CG
REM
REM
REM
REM
REM
REM ./C.cell (11c1c37f851c82e70ff6c80c92926a4b)
REM
REM compiler GCC version 9.2.1 20190827 (Red Hat 9.2.1-1)
REM options -cpp -mtune=generic -march=x86-64 -g -O0 -fpre-include=/usr/include/finclude/math-vector-fortran.h
REM seed 570254686 -683319447 -1009125162 -204863010 1563582629 736793210 -1134845137 -1765940779 1074147812 1573354754 894852657 392125244 26234889 -1164691275 1433700588 -2130033358 -1671236374 29077813 -696481865 627313234 33389314 -796129814 -1457458662 1520592341 2052123068 456890916 1439043247 -758579869 1940840810 1666714457 -623682675 2087395969 -281618794
REM
CELL 1.54180   50.00000   50.00000   50.00000   90.00000   90.00000   90.00000
LATT -1
SFAC C  
C      1  0.5594470000000  0.4832410000000  0.4913490000000 1.0
C      1  0.5988350000000  0.5225670000000  0.5067370000000 1.0
C      1  0.4835380000000  0.6086090000000  0.4970200000000 1.0
C      1  0.4476040000000  0.4475200000000  0.5151080000000 1.0
C      1  0.5002180000000  0.4115290000000  0.5751050000000 1.0
C      1  0.5226230000000  0.5480070000000  0.4236890000000 1.0
C      1  0.5145000000000  0.6076700000000  0.5042300000000 1.0
C      1  0.5222620000000  0.5996180000000  0.4502730000000 1.0
C      1  0.4441110000000  0.5093640000000  0.4166710000000 1.0
C      1  0.4744010000000  0.3954680000000  0.5158120000000 1.0
C      1  0.4653540000000  0.6153720000000  0.4690110000000 1.0
C      1  0.4543260000000  0.4827470000000  0.5397290000000 1.0
C      1  0.4563480000000  0.4323360000000  0.5716950000000 1.0
C      1  0.5113770000000  0.5257100000000  0.4439580000000 1.0
C      1  0.5118560000000  0.5050480000000  0.5041450000000 1.0
C      1  0.4257030000000  0.4699270000000  0.4615290000000 1.0
C      1  0.5334740000000  0.5648550000000  0.5699250000000 1.0
C      1  0.5306770000000  0.4556980000000  0.5716650000000 1.0
C      1  0.4994780000000  0.5347210000000  0.4986840000000 1.0
C      1  0.4349650000000  0.5529980000000  0.4365000000000 1.0
C      1  0.4611690000000  0.4650240000000  0.4237500000000 1.0
C      1  0.4132080000000  0.4797340000000  0.5505320000000 1.0
C      1  0.4868910000000  0.5827750000000  0.5443230000000 1.0
C      1  0.5113570000000  0.5443210000000  0.5779860000000 1.0
C      1  0.4041010000000  0.4944970000000  0.5068930000000 1.0
C      1  0.4944900000000  0.4048720000000  0.5420090000000 1.0
C      1  0.5214100000000  0.5953700000000  0.5286470000000 1.0
C      1  0.5614780000000  0.4209040000000  0.4429410000000 1.0
C      1  0.5089800000000  0.4726880000000  0.5561790000000 1.0
C      1  0.4605600000000  0.4066330000000  0.5417770000000 1.0
C      1  0.5272470000000  0.4274650000000  0.5713510000000 1.0
C      1  0.5449370000000  0.3936060000000  0.5026500000000 1.0
C      1  0.4637040000000  0.4488620000000  0.4873270000000 1.0
C      1  0.5513120000000  0.4518250000000  0.4826910000000 1.0
C      1  0.5533430000000  0.5312130000000  0.5251320000000 1.0
C      1  0.4876810000000  0.4763270000000  0.4063140000000 1.0
C      1  0.4908680000000  0.4953530000000  0.6039790000000 1.0
C      1  0.5915250000000  0.4969000000000  0.5496380000000 1.0
C      1  0.5717980000000  0.5093330000000  0.4083790000000 1.0
C      1  0.5058430000000  0.5733930000000  0.4368180000000 1.0
C      1  0.5058460000000  0.4502530000000  0.4128580000000 1.0
C      1  0.4939210000000  0.5968430000000  0.4668030000000 1.0
C      1  0.5947730000000  0.4615300000000  0.5074460000000 1.0
C      1  0.5668310000000  0.4962110000000  0.5720670000000 1.0
C      1  0.5652960000000  0.4498630000000  0.5199750000000 1.0
C      1  0.4821550000000  0.5118870000000  0.4525690000000 1.0
C      1  0.5631840000000  0.4675020000000  0.4304260000000 1.0
C      1  0.4908950000000  0.4822560000000  0.4919180000000 1.0
C      1  0.4321550000000  0.5338640000000  0.4130110000000 1.0
C      1  0.5357820000000  0.4395330000000  0.5105890000000 1.0
C      1  0.5336840000000  0.4782210000000  0.4171940000000 1.0
C      1  0.5254170000000  0.4320320000000  0.4729790000000 1.0
C      1  0.4773320000000  0.5214390000000  0.5151210000000 1.0
C      1  0.4710830000000  0.4484640000000  0.5899640000000 1.0
C      1  0.4877410000000  0.5603560000000  0.5896940000000 1.0
C      1  0.5330590000000  0.4200480000000  0.4450840000000 1.0
C      1  0.4333780000000  0.5212900000000  0.5070370000000 1.0
C      1  0.5661290000000  0.5696040000000  0.4533520000000 1.0
C      1  0.4963640000000  0.4370150000000  0.5949000000000 1.0
C      1  0.5294190000000  0.5064780000000  0.5625060000000 1.0
C      1  0.5216060000000  0.4580880000000  0.4420950000000 1.0
C      1  0.5154380000000  0.4524190000000  0.6084620000000 1.0
C      1  0.4568020000000  0.5730070000000  0.4270000000000 1.0
C      1  0.5712250000000  0.5517750000000  0.4822230000000 1.0
C      1  0.5834050000000  0.4960460000000  0.4761200000000 1.0
C      1  0.5314560000000  0.5960280000000  0.4804680000000 1.0
C      1  0.4428540000000  0.5520280000000  0.5736990000000 1.0
C      1  0.5653740000000  0.4834430000000  0.5226550000000 1.0
C      1  0.4291430000000  0.5256780000000  0.5650380000000 1.0
C      1  0.5403580000000  0.5736480000000  0.4374120000000 1.0
C      1  0.4540930000000  0.5664820000000  0.5282940000000 1.0
C      1  0.4001890000000  0.5443840000000  0.5167440000000 1.0
C      1  0.4199060000000  0.4280970000000  0.4433580000000 1.0
C      1  0.4963540000000  0.5041790000000  0.5594370000000 1.0
C      1  0.5577520000000  0.4648900000000  0.5709560000000 1.0
C      1  0.5828030000000  0.5407960000000  0.4463520000000 1.0
C      1  0.5199000000000  0.4145920000000  0.5255330000000 1.0
C      1  0.5534930000000  0.4941500000000  0.4474590000000 1.0
C      1  0.4532790000000  0.4067490000000  0.4923880000000 1.0
C      1  0.4150730000000  0.4700650000000  0.4125480000000 1.0
C      1  0.4389750000000  0.5874590000000  0.4706500000000 1.0
C      1  0.5833410000000  0.5367060000000  0.5264960000000 1.0
C      1  0.5616740000000  0.5698310000000  0.5307270000000 1.0
C      1  0.4948180000000  0.4853970000000  0.4614290000000 1.0
C      1  0.4768740000000  0.5133780000000  0.5812450000000 1.0
C      1  0.5682520000000  0.4242110000000  0.5403870000000 1.0
C      1  0.4600160000000  0.5930970000000  0.4462850000000 1.0
C      1  0.4869340000000  0.4426040000000  0.5192200000000 1.0
C      1  0.4825580000000  0.4652610000000  0.5358460000000 1.0
C      1  0.5181890000000  0.4245140000000  0.4207820000000 1.0
C      1  0.5266630000000  0.4794450000000  0.5308730000000 1.0
C      1  0.5953860000000  0.4648470000000  0.5416300000000 1.0
C      1  0.4927270000000  0.5635370000000  0.5161960000000 1.0
C      1  0.5401570000000  0.4152050000000  0.5489490000000 1.0
C      1  0.5464330000000  0.5292560000000  0.4790820000000 1.0
C      1  0.5168890000000  0.4084460000000  0.4928000000000 1.0
C      1  0.5622660000000  0.3995590000000  0.5195810000000 1.0
C      1  0.4657130000000  0.5408580000000  0.5908090000000 1.0
C      1  0.4481800000000  0.4321770000000  0.4619660000000 1.0
C      1  0.4535310000000  0.4382050000000  0.5407600000000 1.0
C      1  0.4173520000000  0.4446010000000  0.5103040000000 1.0
C      1  0.5372740000000  0.5470920000000  0.5025890000000 1.0
C      1  0.5068290000000  0.4974650000000  0.4252430000000 1.0
C      1  0.4368390000000  0.5527660000000  0.5042620000000 1.0
C      1  0.5606540000000  0.5201410000000  0.4526950000000 1.0
C      1  0.4403810000000  0.4747680000000  0.5678140000000 1.0
C      1  0.5777450000000  0.4488180000000  0.5577160000000 1.0
C      1  0.5174250000000  0.5874930000000  0.5587320000000 1.0
C      1  0.4056910000000  0.4669780000000  0.5244390000000 1.0
C      1  0.4184810000000  0.5647420000000  0.4621430000000 1.0
C      1  0.4688570000000  0.5724380000000  0.5670930000000 1.0
C      1  0.4107420000000  0.5450270000000  0.4844300000000 1.0
C      1  0.4765750000000  0.5602720000000  0.4109020000000 1.0
C      1  0.5718140000000  0.5743280000000  0.5055410000000 1.0
C      1  0.4855040000000  0.5665290000000  0.4617200000000 1.0
C      1  0.3968430000000  0.5180160000000  0.5266300000000 1.0
C      1  0.5861480000000  0.4901070000000  0.4249360000000 1.0
C      1  0.5416160000000  0.4953400000000  0.5919760000000 1.0
C      1  0.5183020000000  0.4794020000000  0.6068850000000 1.0
C      1  0.5258170000000  0.4853300000000  0.4594270000000 1.0
C      1  0.5971100000000  0.4944330000000  0.5161790000000 1.0
C      1  0.4201550000000  0.5650650000000  0.5314690000000 1.0
C      1  0.5614380000000  0.5897860000000  0.4803120000000 1.0
C      1  0.4291550000000  0.4189390000000  0.4945040000000 1.0
C      1  0.4574580000000  0.5071730000000  0.4695250000000 1.0
C      1  0.4250100000000  0.4906710000000  0.4273820000000 1.0
C      1  0.4747490000000  0.5111280000000  0.4211030000000 1.0
C      1  0.5165850000000  0.4655190000000  0.5057290000000 1.0
C      1  0.4515400000000  0.4735860000000  0.4704530000000 1.0
C      1  0.5733540000000  0.4450350000000  0.4472360000000 1.0
C      1  0.5028620000000  0.5464760000000  0.5450380000000 1.0
C      1  0.4458650000000  0.5158490000000  0.5384410000000 1.0
C      1  0.4690100000000  0.4032640000000  0.5727790000000 1.0
C      1  0.4460610000000  0.5042850000000  0.5803850000000 1.0
C      1  0.4884480000000  0.5360580000000  0.4068790000000 1.0
C      1  0.4871310000000  0.4035280000000  0.4869710000000 1.0
C      1  0.5935610000000  0.4796630000000  0.4531530000000 1.0
C      1  0.4439510000000  0.5343420000000  0.4637690000000 1.0
C      1  0.4773870000000  0.4207150000000  0.4623520000000 1.0
C      1  0.4574480000000  0.5609000000000  0.4696670000000 1.0
C      1  0.5354890000000  0.5012960000000  0.4854190000000 1.0
C      1  0.4825060000000  0.4651000000000  0.4442490000000 1.0
C      1  0.4417470000000  0.4478600000000  0.4323720000000 1.0
C      1  0.5846310000000  0.4561330000000  0.4764430000000 1.0
C      1  0.4695520000000  0.5406940000000  0.5390230000000 1.0
C      1  0.5443360000000  0.5062280000000  0.4046440000000 1.0
C      1  0.5578260000000  0.5551290000000  0.5573490000000 1.0
C      1  0.4133170000000  0.4961380000000  0.4553190000000 1.0
C      1  0.5151230000000  0.5164360000000  0.5923380000000 1.0
C      1  0.5067850000000  0.5446110000000  0.4699270000000 1.0
C      1  0.4943550000000  0.4387630000000  0.4493490000000 1.0
C      1  0.5460330000000  0.5044760000000  0.5364780000000 1.0
C      1  0.5160620000000  0.5698370000000  0.4919050000000 1.0
C      1  0.4066810000000  0.5082380000000  0.5513580000000 1.0
C      1  0.5293310000000  0.5623000000000  0.5304050000000 1.0
C      1  0.4373600000000  0.4875780000000  0.5118720000000 1.0
C      1  0.4971710000000  0.4429490000000  0.4889770000000 1.0
C      1  0.5753610000000  0.5259890000000  0.5579600000000 1.0
C      1  0.4645960000000  0.4978200000000  0.4990840000000 1.0
C      1  0.5920440000000  0.5268000000000  0.4762960000000 1.0
C      1  0.4905780000000  0.4960600000000  0.5294420000000 1.0
C      1  0.4637620000000  0.4777520000000  0.5929800000000 1.0
C      1  0.4126070000000  0.5125220000000  0.4805610000000 1.0
C      1  0.5199090000000  0.5252120000000  0.3996880000000 1.0
C      1  0.4692330000000  0.5935460000000  0.5186610000000 1.0
C      1  0.4969160000000  0.5031460000000  0.3874980000000 1.0
END
