TITL C-2778437-8639-591 7.51885524793495e-05 125000 -968.116000837078 0 0 168 (C1) n - 1
REM
REM in /home/nfs/bkarasulu/CARBON/AIRSS/Generating-Clusters/REBO/Only-C1/SD-CG/HFTN-CG
REM
REM
REM
REM
REM
REM ./C.cell (11c1c37f851c82e70ff6c80c92926a4b)
REM
REM compiler GCC version 9.2.1 20190827 (Red Hat 9.2.1-1)
REM options -cpp -mtune=generic -march=x86-64 -g -O0 -fpre-include=/usr/include/finclude/math-vector-fortran.h
REM seed 1643122790 1339145353 -849322087 52263955 2025148689 534472407 -95519137 -1823684126 458321651 -1597264282 -1389802050 -216067242 1790700250 1317345964 -1177224965 -1916327160 1311932973 -1344205530 405624522 278086234 1033157575 -2075417304 1537582147 342760920 1727257099 2058786060 -956893870 -42672105 78426107 1042016583 2005590651 -96053265 171049544
REM
CELL 1.54180   50.00000   50.00000   50.00000   90.00000   90.00000   90.00000
LATT -1
SFAC C  
C      1  0.4837640000000  0.5671440000000  0.5894060000000 1.0
C      1  0.5610090000000  0.4843520000000  0.4599050000000 1.0
C      1  0.5477910000000  0.4439500000000  0.4959520000000 1.0
C      1  0.6005550000000  0.4790310000000  0.4535670000000 1.0
C      1  0.4624390000000  0.3966880000000  0.5083950000000 1.0
C      1  0.3958750000000  0.4859540000000  0.4414550000000 1.0
C      1  0.4808900000000  0.4991320000000  0.5107410000000 1.0
C      1  0.4662700000000  0.5711430000000  0.5642610000000 1.0
C      1  0.5715740000000  0.4558840000000  0.4745230000000 1.0
C      1  0.5136750000000  0.5401350000000  0.4716800000000 1.0
C      1  0.4835040000000  0.4597870000000  0.4339790000000 1.0
C      1  0.5853320000000  0.5410720000000  0.4824930000000 1.0
C      1  0.4301770000000  0.4241680000000  0.5107120000000 1.0
C      1  0.5310930000000  0.4229610000000  0.4959740000000 1.0
C      1  0.5491580000000  0.4917560000000  0.4057310000000 1.0
C      1  0.4831140000000  0.4191110000000  0.4250900000000 1.0
C      1  0.4459770000000  0.4899460000000  0.4935710000000 1.0
C      1  0.4943890000000  0.5819350000000  0.4547660000000 1.0
C      1  0.5111120000000  0.4734370000000  0.5527940000000 1.0
C      1  0.5652020000000  0.4904180000000  0.5651010000000 1.0
C      1  0.4478960000000  0.5208050000000  0.5863740000000 1.0
C      1  0.5028730000000  0.4491690000000  0.5300720000000 1.0
C      1  0.4240910000000  0.4521140000000  0.5503960000000 1.0
C      1  0.5611120000000  0.5611970000000  0.4821580000000 1.0
C      1  0.5689340000000  0.5908090000000  0.4775750000000 1.0
C      1  0.5037740000000  0.5406390000000  0.5975700000000 1.0
C      1  0.4619610000000  0.5770060000000  0.4646260000000 1.0
C      1  0.3954020000000  0.5315810000000  0.5366770000000 1.0
C      1  0.4915100000000  0.3996020000000  0.5145480000000 1.0
C      1  0.4281370000000  0.5441230000000  0.5761460000000 1.0
C      1  0.4331530000000  0.4901270000000  0.5874380000000 1.0
C      1  0.5644930000000  0.4425410000000  0.5569450000000 1.0
C      1  0.4837860000000  0.4926190000000  0.5980660000000 1.0
C      1  0.5130350000000  0.4029320000000  0.4970130000000 1.0
C      1  0.5411260000000  0.5084720000000  0.4845830000000 1.0
C      1  0.4614560000000  0.5365120000000  0.4240580000000 1.0
C      1  0.5752910000000  0.5411320000000  0.5635530000000 1.0
C      1  0.5339880000000  0.5246920000000  0.5950270000000 1.0
C      1  0.4710300000000  0.4440090000000  0.4772800000000 1.0
C      1  0.5440500000000  0.4770870000000  0.5420800000000 1.0
C      1  0.5666040000000  0.4667610000000  0.4092400000000 1.0
C      1  0.5709120000000  0.4212650000000  0.4733890000000 1.0
C      1  0.4996570000000  0.5548960000000  0.3860110000000 1.0
C      1  0.4080400000000  0.4577150000000  0.5208950000000 1.0
C      1  0.5281400000000  0.4713310000000  0.4782760000000 1.0
C      1  0.5377610000000  0.5609280000000  0.4336030000000 1.0
C      1  0.5539090000000  0.4814030000000  0.4995370000000 1.0
C      1  0.6059670000000  0.5077670000000  0.5402590000000 1.0
C      1  0.4546030000000  0.5118150000000  0.4682930000000 1.0
C      1  0.4070800000000  0.4410440000000  0.4920890000000 1.0
C      1  0.4158040000000  0.4010070000000  0.5568870000000 1.0
C      1  0.4092370000000  0.5257490000000  0.5609170000000 1.0
C      1  0.4998060000000  0.4954130000000  0.4094340000000 1.0
C      1  0.4118920000000  0.5342420000000  0.4458550000000 1.0
C      1  0.5920710000000  0.5543680000000  0.5116240000000 1.0
C      1  0.4540870000000  0.4711330000000  0.5196520000000 1.0
C      1  0.4849260000000  0.5153990000000  0.4835870000000 1.0
C      1  0.4873710000000  0.4685680000000  0.3953410000000 1.0
C      1  0.5867300000000  0.4650040000000  0.4342360000000 1.0
C      1  0.5771180000000  0.4734310000000  0.5156170000000 1.0
C      1  0.4454620000000  0.4357320000000  0.4562140000000 1.0
C      1  0.4758540000000  0.5354560000000  0.3794320000000 1.0
C      1  0.5682410000000  0.4085210000000  0.4987720000000 1.0
C      1  0.5141270000000  0.5790200000000  0.4286720000000 1.0
C      1  0.5190930000000  0.4501530000000  0.5772870000000 1.0
C      1  0.4386290000000  0.3987940000000  0.4912800000000 1.0
C      1  0.4347390000000  0.5591270000000  0.5311170000000 1.0
C      1  0.4450570000000  0.4861590000000  0.4247730000000 1.0
C      1  0.5594220000000  0.5653320000000  0.5646730000000 1.0
C      1  0.4540660000000  0.4656230000000  0.4481890000000 1.0
C      1  0.4557770000000  0.4905640000000  0.5442640000000 1.0
C      1  0.5871820000000  0.4874110000000  0.5427900000000 1.0
C      1  0.4501500000000  0.5457420000000  0.4681690000000 1.0
C      1  0.5156900000000  0.5733610000000  0.5948800000000 1.0
C      1  0.4147560000000  0.4814990000000  0.5655000000000 1.0
C      1  0.4615440000000  0.4168630000000  0.5343420000000 1.0
C      1  0.4604020000000  0.4707320000000  0.5933660000000 1.0
C      1  0.5042060000000  0.5762410000000  0.4032900000000 1.0
C      1  0.4374530000000  0.5187680000000  0.5036250000000 1.0
C      1  0.5916880000000  0.5321020000000  0.4519980000000 1.0
C      1  0.5629220000000  0.5316410000000  0.5268660000000 1.0
C      1  0.4752010000000  0.5478180000000  0.4887990000000 1.0
C      1  0.5098740000000  0.5377750000000  0.5051180000000 1.0
C      1  0.5080080000000  0.4622350000000  0.5034810000000 1.0
C      1  0.4076310000000  0.5206860000000  0.4919800000000 1.0
C      1  0.4949410000000  0.5720790000000  0.4863080000000 1.0
C      1  0.5370200000000  0.5553750000000  0.5817530000000 1.0
C      1  0.4041390000000  0.4839670000000  0.5351030000000 1.0
C      1  0.5462880000000  0.5926610000000  0.5018040000000 1.0
C      1  0.5226350000000  0.5987910000000  0.5232310000000 1.0
C      1  0.5160350000000  0.5127320000000  0.5227870000000 1.0
C      1  0.5748470000000  0.5090940000000  0.4797940000000 1.0
C      1  0.4819870000000  0.4556730000000  0.5634240000000 1.0
C      1  0.4917820000000  0.4080050000000  0.4511630000000 1.0
C      1  0.4878230000000  0.4962920000000  0.5427140000000 1.0
C      1  0.5206590000000  0.4248100000000  0.5581760000000 1.0
C      1  0.5522590000000  0.5547370000000  0.5124820000000 1.0
C      1  0.4938770000000  0.5288970000000  0.4461100000000 1.0
C      1  0.4766440000000  0.5575750000000  0.4407460000000 1.0
C      1  0.4876460000000  0.5681010000000  0.5379700000000 1.0
C      1  0.5462250000000  0.5143280000000  0.4525730000000 1.0
C      1  0.3966090000000  0.5079890000000  0.5203640000000 1.0
C      1  0.5248150000000  0.4434020000000  0.4610760000000 1.0
C      1  0.5582260000000  0.5194530000000  0.3882830000000 1.0
C      1  0.5166150000000  0.4655360000000  0.4127350000000 1.0
C      1  0.4761810000000  0.5989690000000  0.5471190000000 1.0
C      1  0.5993980000000  0.4965050000000  0.4894770000000 1.0
C      1  0.4901980000000  0.5253620000000  0.5569760000000 1.0
C      1  0.4969250000000  0.4282630000000  0.4691640000000 1.0
C      1  0.5468440000000  0.4216970000000  0.5476850000000 1.0
C      1  0.4653600000000  0.5846850000000  0.5175580000000 1.0
C      1  0.5734930000000  0.5809090000000  0.5181090000000 1.0
C      1  0.5073510000000  0.4906960000000  0.4422580000000 1.0
C      1  0.4809880000000  0.4787860000000  0.4605100000000 1.0
C      1  0.4819740000000  0.4731710000000  0.4911190000000 1.0
C      1  0.5096210000000  0.4791870000000  0.6030990000000 1.0
C      1  0.5113900000000  0.5007270000000  0.4731920000000 1.0
C      1  0.4205990000000  0.4706390000000  0.4852000000000 1.0
C      1  0.5082090000000  0.4410010000000  0.4329750000000 1.0
C      1  0.5390750000000  0.5518940000000  0.4642240000000 1.0
C      1  0.5309430000000  0.5198920000000  0.4056650000000 1.0
C      1  0.4901660000000  0.4534830000000  0.5950340000000 1.0
C      1  0.5933010000000  0.5352480000000  0.5376360000000 1.0
C      1  0.4670770000000  0.5087140000000  0.4377270000000 1.0
C      1  0.4596620000000  0.4605380000000  0.4090910000000 1.0
C      1  0.5477820000000  0.5827930000000  0.5403780000000 1.0
C      1  0.4507400000000  0.4651230000000  0.5619300000000 1.0
C      1  0.6029040000000  0.5071360000000  0.4499500000000 1.0
C      1  0.4396510000000  0.5625370000000  0.5586360000000 1.0
C      1  0.5010040000000  0.5895300000000  0.5687500000000 1.0
C      1  0.5337120000000  0.4910430000000  0.5897400000000 1.0
C      1  0.5038410000000  0.5213840000000  0.3909210000000 1.0
C      1  0.5242410000000  0.5667850000000  0.4995250000000 1.0
C      1  0.4465240000000  0.5751030000000  0.4945270000000 1.0
C      1  0.4705610000000  0.4473230000000  0.5324590000000 1.0
C      1  0.4202220000000  0.5532820000000  0.4935270000000 1.0
C      1  0.4203250000000  0.5561330000000  0.4605100000000 1.0
C      1  0.4567150000000  0.4318740000000  0.4249740000000 1.0
C      1  0.4824870000000  0.5309340000000  0.5242140000000 1.0
C      1  0.6008470000000  0.4651070000000  0.4845850000000 1.0
C      1  0.4064320000000  0.5542160000000  0.5230500000000 1.0
C      1  0.5386270000000  0.4796050000000  0.4347500000000 1.0
C      1  0.4230240000000  0.5113410000000  0.4557980000000 1.0
C      1  0.4305120000000  0.4227000000000  0.5419570000000 1.0
C      1  0.5260380000000  0.4838900000000  0.5159910000000 1.0
C      1  0.5191110000000  0.5375290000000  0.5602850000000 1.0
C      1  0.5241360000000  0.5050810000000  0.5619540000000 1.0
C      1  0.4453690000000  0.4502170000000  0.4970640000000 1.0
C      1  0.5257290000000  0.5293530000000  0.4340750000000 1.0
C      1  0.4954440000000  0.4175450000000  0.5406430000000 1.0
C      1  0.4546390000000  0.5367350000000  0.3977960000000 1.0
C      1  0.5186540000000  0.5682540000000  0.5486850000000 1.0
C      1  0.5832570000000  0.4480060000000  0.5373840000000 1.0
C      1  0.4141120000000  0.4878210000000  0.4240470000000 1.0
C      1  0.4787480000000  0.5209530000000  0.5873610000000 1.0
C      1  0.5641870000000  0.4423680000000  0.4300270000000 1.0
C      1  0.4249690000000  0.4203830000000  0.4718350000000 1.0
C      1  0.5455540000000  0.5112810000000  0.5372690000000 1.0
C      1  0.5563310000000  0.4089420000000  0.5236510000000 1.0
C      1  0.6047200000000  0.4529560000000  0.5136430000000 1.0
C      1  0.5617460000000  0.5184490000000  0.5762930000000 1.0
C      1  0.4966570000000  0.5950390000000  0.5101210000000 1.0
C      1  0.5637840000000  0.5395830000000  0.4400950000000 1.0
C      1  0.4381070000000  0.5121060000000  0.5549570000000 1.0
C      1  0.5516020000000  0.4299740000000  0.4518330000000 1.0
C      1  0.4036410000000  0.4927510000000  0.4728000000000 1.0
C      1  0.5504320000000  0.4634030000000  0.5788060000000 1.0
C      1  0.4541670000000  0.5418090000000  0.5148840000000 1.0
END
