TITL C-2778427-5640-1098 -7.31748349209711e-07 125000 -103.784986283912 0 0 19 (C1) n - 1
REM
REM in /home/nfs/bkarasulu/CARBON/AIRSS/Generating-Clusters/REBO/Only-C1/SD-CG/HFTN-CG
REM
REM
REM
REM
REM
REM ./C.cell (11c1c37f851c82e70ff6c80c92926a4b)
REM
REM compiler GCC version 9.2.1 20190827 (Red Hat 9.2.1-1)
REM options -cpp -mtune=generic -march=x86-64 -g -O0 -fpre-include=/usr/include/finclude/math-vector-fortran.h
REM seed -141415951 63000663 -889928112 700164223 -1334899968 -1967457834 1951666904 -710557657 -1971454606 -988163169 -1053629737 -794477202 -1262328412 -70556827 52015218 -2139969833 -997767947 292424846 -1428504792 1960482578 1352399169 1309150555 183121169 -723862945 -444511625 835790855 114240422 -1732473088 348424323 1831098312 -280897114 -938322800 -1681004111
REM
CELL 1.54180   50.00000   50.00000   50.00000   90.00000   90.00000   90.00000
LATT -1
SFAC C  
C      1  0.5215430000000  0.5287200000000  0.4790720000000 1.0
C      1  0.5103060000000  0.4827320000000  0.4562410000000 1.0
C      1  0.4957340000000  0.4624130000000  0.4693910000000 1.0
C      1  0.4808380000000  0.4571860000000  0.5206820000000 1.0
C      1  0.5342290000000  0.5337910000000  0.5054100000000 1.0
C      1  0.4891520000000  0.4815260000000  0.5322810000000 1.0
C      1  0.5085690000000  0.4875690000000  0.4295760000000 1.0
C      1  0.5003330000000  0.5073640000000  0.5297420000000 1.0
C      1  0.4659150000000  0.5367270000000  0.5470970000000 1.0
C      1  0.5412830000000  0.4618290000000  0.5045880000000 1.0
C      1  0.4567640000000  0.5606480000000  0.4984300000000 1.0
C      1  0.4687380000000  0.4376940000000  0.5353010000000 1.0
C      1  0.4818980000000  0.5297410000000  0.5259840000000 1.0
C      1  0.5336080000000  0.4872400000000  0.4998540000000 1.0
C      1  0.5250570000000  0.4995860000000  0.4741440000000 1.0
C      1  0.5275980000000  0.5088050000000  0.5197880000000 1.0
C      1  0.4857910000000  0.4542360000000  0.4930930000000 1.0
C      1  0.4776010000000  0.5431340000000  0.5007540000000 1.0
C      1  0.4950440000000  0.5390600000000  0.4785740000000 1.0
END
