TITL C-2778432-5617-390 0.000153408943512115 125000 -599.215816900936 0 0 102 (C1) n - 1
REM
REM in /home/nfs/bkarasulu/CARBON/AIRSS/Generating-Clusters/REBO/Only-C1/SD-CG/HFTN-CG
REM
REM
REM
REM
REM
REM ./C.cell (11c1c37f851c82e70ff6c80c92926a4b)
REM
REM compiler GCC version 9.2.1 20190827 (Red Hat 9.2.1-1)
REM options -cpp -mtune=generic -march=x86-64 -g -O0 -fpre-include=/usr/include/finclude/math-vector-fortran.h
REM seed -1234445906 1667476891 -429821563 -53506433 1677654985 1537961686 1927768726 1572675132 -1170975792 907428380 1196037305 -1142081074 -1209607162 410402580 -26198478 1785341225 -863273413 1895945616 563787898 -1873802130 -29587406 -873957497 -819158398 -331218999 1864101930 -699655480 1133739689 -928617950 -338155275 97646725 1751872984 1342814060 1475200120
REM
CELL 1.54180   50.00000   50.00000   50.00000   90.00000   90.00000   90.00000
LATT -1
SFAC C  
C      1  0.4679450000000  0.4568770000000  0.5051580000000 1.0
C      1  0.5891050000000  0.5122060000000  0.4801950000000 1.0
C      1  0.5309650000000  0.5887490000000  0.5258390000000 1.0
C      1  0.5627910000000  0.5338460000000  0.5300590000000 1.0
C      1  0.5138200000000  0.5612170000000  0.4344310000000 1.0
C      1  0.4947050000000  0.5144950000000  0.4301110000000 1.0
C      1  0.5546870000000  0.5636070000000  0.5272180000000 1.0
C      1  0.5702580000000  0.5245270000000  0.5610310000000 1.0
C      1  0.5053710000000  0.4251660000000  0.5187630000000 1.0
C      1  0.5341710000000  0.5185410000000  0.5259190000000 1.0
C      1  0.4483880000000  0.5453220000000  0.4559440000000 1.0
C      1  0.5820420000000  0.4532200000000  0.5446110000000 1.0
C      1  0.4390140000000  0.4953950000000  0.4388140000000 1.0
C      1  0.5753320000000  0.5252790000000  0.4606150000000 1.0
C      1  0.5298840000000  0.4748080000000  0.5946990000000 1.0
C      1  0.4783830000000  0.5838110000000  0.4577470000000 1.0
C      1  0.4822550000000  0.4679800000000  0.5285430000000 1.0
C      1  0.5268160000000  0.4758350000000  0.4416340000000 1.0
C      1  0.5547760000000  0.4849070000000  0.4260280000000 1.0
C      1  0.5057770000000  0.5780890000000  0.5370300000000 1.0
C      1  0.5399240000000  0.5317210000000  0.4974000000000 1.0
C      1  0.5606020000000  0.5957760000000  0.5178220000000 1.0
C      1  0.5090200000000  0.5819400000000  0.4546360000000 1.0
C      1  0.5694940000000  0.5003560000000  0.5293170000000 1.0
C      1  0.5217060000000  0.5761010000000  0.4818750000000 1.0
C      1  0.5568680000000  0.4465380000000  0.5010050000000 1.0
C      1  0.4772780000000  0.5427400000000  0.5518330000000 1.0
C      1  0.4998190000000  0.5014950000000  0.5161070000000 1.0
C      1  0.5856030000000  0.4597890000000  0.5137300000000 1.0
C      1  0.5282870000000  0.5146370000000  0.4234140000000 1.0
C      1  0.5368980000000  0.5448360000000  0.4344510000000 1.0
C      1  0.4628810000000  0.5013080000000  0.4830920000000 1.0
C      1  0.4991790000000  0.4027040000000  0.4664310000000 1.0
C      1  0.4955170000000  0.4706630000000  0.4175070000000 1.0
C      1  0.4835200000000  0.5446460000000  0.4904590000000 1.0
C      1  0.5498710000000  0.5097920000000  0.4485070000000 1.0
C      1  0.4466480000000  0.4455730000000  0.4575580000000 1.0
C      1  0.4539110000000  0.5225480000000  0.5268150000000 1.0
C      1  0.4823910000000  0.4642510000000  0.5824500000000 1.0
C      1  0.5533210000000  0.4795090000000  0.4800720000000 1.0
C      1  0.4751330000000  0.5329750000000  0.5844050000000 1.0
C      1  0.5708820000000  0.4939680000000  0.5627720000000 1.0
C      1  0.4480920000000  0.4333110000000  0.5158760000000 1.0
C      1  0.4782080000000  0.4483670000000  0.5548810000000 1.0
C      1  0.4789860000000  0.5697880000000  0.5365020000000 1.0
C      1  0.5107110000000  0.4974620000000  0.4548270000000 1.0
C      1  0.5133420000000  0.4723490000000  0.5212550000000 1.0
C      1  0.5427540000000  0.5566620000000  0.4825990000000 1.0
C      1  0.5527340000000  0.4712090000000  0.5242050000000 1.0
C      1  0.4716970000000  0.4642850000000  0.4489000000000 1.0
C      1  0.5298690000000  0.4452460000000  0.4483430000000 1.0
C      1  0.5309990000000  0.4590520000000  0.5461160000000 1.0
C      1  0.5265100000000  0.5534200000000  0.5434980000000 1.0
C      1  0.4143130000000  0.4929900000000  0.5162790000000 1.0
C      1  0.4410560000000  0.5027610000000  0.5590000000000 1.0
C      1  0.4706660000000  0.4905870000000  0.4273600000000 1.0
C      1  0.4864010000000  0.5274200000000  0.4650740000000 1.0
C      1  0.5061950000000  0.4391500000000  0.5423340000000 1.0
C      1  0.4391000000000  0.4515390000000  0.4888850000000 1.0
C      1  0.4259470000000  0.4700300000000  0.4562710000000 1.0
C      1  0.5015360000000  0.4800910000000  0.5977280000000 1.0
C      1  0.5774180000000  0.4893140000000  0.4987230000000 1.0
C      1  0.4748270000000  0.4008560000000  0.4557190000000 1.0
C      1  0.5293460000000  0.4179870000000  0.4668120000000 1.0
C      1  0.5056200000000  0.4261560000000  0.4889340000000 1.0
C      1  0.5013170000000  0.4554310000000  0.4742240000000 1.0
C      1  0.5032620000000  0.5290630000000  0.5361980000000 1.0
C      1  0.5327390000000  0.5113720000000  0.4759640000000 1.0
C      1  0.5451550000000  0.4849800000000  0.5729110000000 1.0
C      1  0.4655100000000  0.5732640000000  0.5114980000000 1.0
C      1  0.4401730000000  0.5608190000000  0.5041930000000 1.0
C      1  0.4491270000000  0.5292970000000  0.5657540000000 1.0
C      1  0.4110630000000  0.5213070000000  0.5100780000000 1.0
C      1  0.5542070000000  0.4396830000000  0.4708930000000 1.0
C      1  0.4234930000000  0.4860620000000  0.5429310000000 1.0
C      1  0.5023100000000  0.5066180000000  0.4865040000000 1.0
C      1  0.5639930000000  0.4660270000000  0.4517560000000 1.0
C      1  0.4129690000000  0.5270680000000  0.4815660000000 1.0
C      1  0.4881640000000  0.5757060000000  0.4880560000000 1.0
C      1  0.5553860000000  0.5484530000000  0.4566650000000 1.0
C      1  0.4914970000000  0.5103010000000  0.5918340000000 1.0
C      1  0.4890900000000  0.5463870000000  0.4300370000000 1.0
C      1  0.4724300000000  0.4994010000000  0.5344610000000 1.0
C      1  0.4688300000000  0.5221340000000  0.5017620000000 1.0
C      1  0.5397880000000  0.5322950000000  0.5627220000000 1.0
C      1  0.5264120000000  0.5027580000000  0.5552190000000 1.0
C      1  0.4481640000000  0.4403640000000  0.5444810000000 1.0
C      1  0.5272410000000  0.4631050000000  0.4944910000000 1.0
C      1  0.4668600000000  0.4854970000000  0.5639530000000 1.0
C      1  0.4566350000000  0.5153080000000  0.4553090000000 1.0
C      1  0.4268510000000  0.4584290000000  0.5503030000000 1.0
C      1  0.5606080000000  0.4513080000000  0.5578590000000 1.0
C      1  0.4528880000000  0.4162200000000  0.4516660000000 1.0
C      1  0.4309040000000  0.5388220000000  0.5231000000000 1.0
C      1  0.4190380000000  0.4771950000000  0.4893340000000 1.0
C      1  0.4742710000000  0.4739290000000  0.4798770000000 1.0
C      1  0.4983170000000  0.4985630000000  0.5625410000000 1.0
C      1  0.4674420000000  0.5610320000000  0.4429540000000 1.0
C      1  0.4304510000000  0.5500380000000  0.4774420000000 1.0
C      1  0.5250690000000  0.4840700000000  0.4087720000000 1.0
C      1  0.4983830000000  0.4481240000000  0.4409060000000 1.0
C      1  0.4184000000000  0.5017910000000  0.4656210000000 1.0
END
