TITL C-2778432-5617-835 0.12976293047093 125000 -352.443698422656 0 0 61 (C1) n - 1
REM
REM in /home/nfs/bkarasulu/CARBON/AIRSS/Generating-Clusters/REBO/Only-C1/SD-CG/HFTN-CG
REM
REM
REM
REM
REM
REM ./C.cell (11c1c37f851c82e70ff6c80c92926a4b)
REM
REM compiler GCC version 9.2.1 20190827 (Red Hat 9.2.1-1)
REM options -cpp -mtune=generic -march=x86-64 -g -O0 -fpre-include=/usr/include/finclude/math-vector-fortran.h
REM seed -1140025422 1409245951 -375635808 511314828 -823126135 -430840492 -416354502 -370763572 2116352953 2043946289 1288484236 1733941161 1316465162 -1777609828 2010536252 1578908325 -381755627 -967992273 1929510618 599415157 696118023 620844406 953627121 723194849 431076903 -1205708729 -431263800 1896643182 238096992 717838286 28502948 -1472294750 1746212602
REM
CELL 1.54180   50.00000   50.00000   50.00000   90.00000   90.00000   90.00000
LATT -1
SFAC C  
C      1  0.5133540000000  0.5522120000000  0.5417180000000 1.0
C      1  0.5163420000000  0.5014650000000  0.4426810000000 1.0
C      1  0.4487500000000  0.4950810000000  0.5612210000000 1.0
C      1  0.5709090000000  0.4658350000000  0.5065260000000 1.0
C      1  0.5115290000000  0.5488400000000  0.4238600000000 1.0
C      1  0.4677960000000  0.4617740000000  0.4390860000000 1.0
C      1  0.5281290000000  0.5640130000000  0.4826260000000 1.0
C      1  0.5712420000000  0.5162940000000  0.5205090000000 1.0
C      1  0.5145780000000  0.5558920000000  0.4567390000000 1.0
C      1  0.4158920000000  0.4843460000000  0.4916110000000 1.0
C      1  0.4839850000000  0.4314570000000  0.4755260000000 1.0
C      1  0.4960980000000  0.5675940000000  0.5216940000000 1.0
C      1  0.5272590000000  0.5430790000000  0.5165600000000 1.0
C      1  0.5335480000000  0.5101100000000  0.5583230000000 1.0
C      1  0.4493040000000  0.5217690000000  0.5565690000000 1.0
C      1  0.4762150000000  0.5045290000000  0.4763750000000 1.0
C      1  0.4371150000000  0.4924300000000  0.4674020000000 1.0
C      1  0.4506580000000  0.5415950000000  0.5369940000000 1.0
C      1  0.4752530000000  0.4757760000000  0.5186170000000 1.0
C      1  0.6122140000000  0.4527430000000  0.5382550000000 1.0
C      1  0.4728740000000  0.4477280000000  0.5466720000000 1.0
C      1  0.5628700000000  0.4827670000000  0.4819770000000 1.0
C      1  0.5192490000000  0.5347710000000  0.5633990000000 1.0
C      1  0.4296640000000  0.5099320000000  0.5034120000000 1.0
C      1  0.5727190000000  0.5412810000000  0.5014590000000 1.0
C      1  0.4902830000000  0.4498860000000  0.4553980000000 1.0
C      1  0.5024760000000  0.6064970000000  0.4914950000000 1.0
C      1  0.5100880000000  0.4215180000000  0.5139430000000 1.0
C      1  0.5640770000000  0.5120280000000  0.4873290000000 1.0
C      1  0.4853030000000  0.5112470000000  0.4494280000000 1.0
C      1  0.4416700000000  0.5211570000000  0.4565220000000 1.0
C      1  0.4434440000000  0.4702390000000  0.4469950000000 1.0
C      1  0.5183690000000  0.4881420000000  0.5487090000000 1.0
C      1  0.4591690000000  0.5415140000000  0.4625970000000 1.0
C      1  0.4574260000000  0.5507900000000  0.4891180000000 1.0
C      1  0.4645350000000  0.4313670000000  0.5212250000000 1.0
C      1  0.5167970000000  0.4696480000000  0.4527350000000 1.0
C      1  0.4454160000000  0.4590540000000  0.5203430000000 1.0
C      1  0.4693390000000  0.5589560000000  0.5179490000000 1.0
C      1  0.5221060000000  0.4877210000000  0.5166140000000 1.0
C      1  0.4855380000000  0.5423850000000  0.4451930000000 1.0
C      1  0.5443920000000  0.5354370000000  0.4726280000000 1.0
C      1  0.4939750000000  0.4968880000000  0.5011990000000 1.0
C      1  0.5191900000000  0.5187680000000  0.5058320000000 1.0
C      1  0.4997820000000  0.4631040000000  0.5386530000000 1.0
C      1  0.4196570000000  0.4606810000000  0.5060350000000 1.0
C      1  0.5301500000000  0.5277610000000  0.4434420000000 1.0
C      1  0.5088680000000  0.5808140000000  0.4995100000000 1.0
C      1  0.4382820000000  0.5359210000000  0.5090230000000 1.0
C      1  0.5197740000000  0.4452760000000  0.5229830000000 1.0
C      1  0.5510120000000  0.5581090000000  0.5047960000000 1.0
C      1  0.5376130000000  0.4632870000000  0.5055800000000 1.0
C      1  0.4514670000000  0.4690440000000  0.5523800000000 1.0
C      1  0.4013430000000  0.4400720000000  0.5072850000000 1.0
C      1  0.6323700000000  0.4463540000000  0.5537390000000 1.0
C      1  0.4551110000000  0.4894970000000  0.4963010000000 1.0
C      1  0.4904590000000  0.4826240000000  0.4328770000000 1.0
C      1  0.5590380000000  0.5126410000000  0.5452150000000 1.0
C      1  0.5381620000000  0.4665230000000  0.4721490000000 1.0
C      1  0.5917320000000  0.4592340000000  0.5225220000000 1.0
C      1  0.4840410000000  0.4225050000000  0.5024490000000 1.0
END
