TITL C-2778422-5617-1082 -0.00184033580268478 125000 -488.948650512843 0 0 87 (C1) n - 1
REM
REM in /home/nfs/bkarasulu/CARBON/AIRSS/Generating-Clusters/REBO/Only-C1/SD-CG/HFTN-CG
REM
REM
REM
REM
REM
REM ./C.cell (11c1c37f851c82e70ff6c80c92926a4b)
REM
REM compiler GCC version 9.2.1 20190827 (Red Hat 9.2.1-1)
REM options -cpp -mtune=generic -march=x86-64 -g -O0 -fpre-include=/usr/include/finclude/math-vector-fortran.h
REM seed -323773448 -194298441 -1453019027 -1942640124 -976730019 1160556638 1917734706 90530666 -523410906 122966010 1792302747 1263107437 -116485649 1797217051 1760774673 74443662 -1458658543 -946465501 -2083143808 -1539677014 -2086842339 1045494202 -1270886451 955260726 894276795 -1893594082 -592710354 -923023948 364425858 -124697963 -1007042168 965404950 621868251
REM
CELL 1.54180   50.00000   50.00000   50.00000   90.00000   90.00000   90.00000
LATT -1
SFAC C  
C      1  0.4538980000000  0.5241520000000  0.5073330000000 1.0
C      1  0.4914950000000  0.5026130000000  0.5475120000000 1.0
C      1  0.4371310000000  0.4629260000000  0.4792920000000 1.0
C      1  0.5514690000000  0.5468700000000  0.5295780000000 1.0
C      1  0.4854370000000  0.4242900000000  0.5258280000000 1.0
C      1  0.5304090000000  0.4856060000000  0.5705400000000 1.0
C      1  0.5116530000000  0.5153740000000  0.4440520000000 1.0
C      1  0.5358680000000  0.5353550000000  0.5575920000000 1.0
C      1  0.4583880000000  0.5572060000000  0.5479250000000 1.0
C      1  0.4822090000000  0.4565310000000  0.4991700000000 1.0
C      1  0.5587520000000  0.4534670000000  0.4399650000000 1.0
C      1  0.4443370000000  0.5656690000000  0.4794830000000 1.0
C      1  0.5684800000000  0.5166390000000  0.5099360000000 1.0
C      1  0.4684390000000  0.4582510000000  0.4384400000000 1.0
C      1  0.5199260000000  0.5394880000000  0.5064570000000 1.0
C      1  0.5133130000000  0.4716880000000  0.4197270000000 1.0
C      1  0.4811920000000  0.5635100000000  0.4644020000000 1.0
C      1  0.5001610000000  0.5842920000000  0.5238880000000 1.0
C      1  0.5240740000000  0.4229830000000  0.4783650000000 1.0
C      1  0.5366970000000  0.4402080000000  0.5568620000000 1.0
C      1  0.4274070000000  0.5145040000000  0.4908510000000 1.0
C      1  0.4791050000000  0.5303180000000  0.5452660000000 1.0
C      1  0.4569820000000  0.4864760000000  0.4944880000000 1.0
C      1  0.4929950000000  0.4695240000000  0.5522430000000 1.0
C      1  0.4331920000000  0.5243290000000  0.4586700000000 1.0
C      1  0.5597010000000  0.4549520000000  0.5487200000000 1.0
C      1  0.5351630000000  0.5693120000000  0.5121000000000 1.0
C      1  0.4282020000000  0.4912460000000  0.4673310000000 1.0
C      1  0.4748790000000  0.5157660000000  0.4211150000000 1.0
C      1  0.4437330000000  0.4833250000000  0.5520870000000 1.0
C      1  0.4962430000000  0.4269980000000  0.4619390000000 1.0
C      1  0.4560000000000  0.5556100000000  0.5029430000000 1.0
C      1  0.4593220000000  0.5063330000000  0.4683200000000 1.0
C      1  0.5653840000000  0.5146000000000  0.4567710000000 1.0
C      1  0.4854850000000  0.4808030000000  0.5220690000000 1.0
C      1  0.4367860000000  0.4870580000000  0.5218880000000 1.0
C      1  0.5006380000000  0.4973210000000  0.4181910000000 1.0
C      1  0.5426610000000  0.4663320000000  0.4990050000000 1.0
C      1  0.5645790000000  0.5468180000000  0.4977990000000 1.0
C      1  0.4988340000000  0.4486250000000  0.4363740000000 1.0
C      1  0.5015030000000  0.4126310000000  0.5005580000000 1.0
C      1  0.4683650000000  0.5767670000000  0.5236480000000 1.0
C      1  0.5612010000000  0.5434150000000  0.4637790000000 1.0
C      1  0.4787870000000  0.5412510000000  0.4382660000000 1.0
C      1  0.5204510000000  0.4287570000000  0.5316130000000 1.0
C      1  0.4697070000000  0.4820390000000  0.5735460000000 1.0
C      1  0.4971680000000  0.4408220000000  0.5519400000000 1.0
C      1  0.4192230000000  0.5144150000000  0.5232590000000 1.0
C      1  0.4893820000000  0.4845270000000  0.4826720000000 1.0
C      1  0.4729430000000  0.5439190000000  0.5759060000000 1.0
C      1  0.4662630000000  0.4862590000000  0.4345220000000 1.0
C      1  0.5115660000000  0.5006610000000  0.4992710000000 1.0
C      1  0.5284380000000  0.4456220000000  0.4537120000000 1.0
C      1  0.5164940000000  0.5914920000000  0.4955830000000 1.0
C      1  0.4845210000000  0.5813980000000  0.4931490000000 1.0
C      1  0.4731600000000  0.4328650000000  0.4809640000000 1.0
C      1  0.5396240000000  0.4755370000000  0.4296420000000 1.0
C      1  0.4510520000000  0.5498000000000  0.4548600000000 1.0
C      1  0.4581800000000  0.4407600000000  0.5314610000000 1.0
C      1  0.5673450000000  0.4970540000000  0.4849210000000 1.0
C      1  0.4845220000000  0.5119990000000  0.5800530000000 1.0
C      1  0.5065240000000  0.5442310000000  0.5705240000000 1.0
C      1  0.5346460000000  0.4343240000000  0.5060420000000 1.0
C      1  0.5713030000000  0.4804430000000  0.4564000000000 1.0
C      1  0.4828860000000  0.5125280000000  0.5099360000000 1.0
C      1  0.5713020000000  0.5072450000000  0.5360990000000 1.0
C      1  0.4873700000000  0.5008110000000  0.4557480000000 1.0
C      1  0.5182490000000  0.5124560000000  0.5755460000000 1.0
C      1  0.5441370000000  0.5675280000000  0.4802360000000 1.0
C      1  0.4878360000000  0.5448900000000  0.5093860000000 1.0
C      1  0.5140140000000  0.5713540000000  0.4681190000000 1.0
C      1  0.4542410000000  0.4465530000000  0.4605650000000 1.0
C      1  0.5006320000000  0.5560350000000  0.5390730000000 1.0
C      1  0.4417400000000  0.4548050000000  0.5119370000000 1.0
C      1  0.5115370000000  0.5467620000000  0.4447710000000 1.0
C      1  0.5653380000000  0.4446510000000  0.5075810000000 1.0
C      1  0.5511270000000  0.4856660000000  0.5467520000000 1.0
C      1  0.5349740000000  0.4881270000000  0.5185770000000 1.0
C      1  0.5327280000000  0.5182610000000  0.5297780000000 1.0
C      1  0.5396760000000  0.5164150000000  0.4907890000000 1.0
C      1  0.4620890000000  0.4108940000000  0.4944200000000 1.0
C      1  0.4563880000000  0.4546120000000  0.5568520000000 1.0
C      1  0.5375020000000  0.5002310000000  0.4498290000000 1.0
C      1  0.5409260000000  0.5547540000000  0.4427770000000 1.0
C      1  0.5401240000000  0.4723130000000  0.4694150000000 1.0
C      1  0.5236810000000  0.4588820000000  0.5755760000000 1.0
C      1  0.4385160000000  0.5358700000000  0.5354300000000 1.0
END
