TITL C-2778429-3646-1007 0.114122661280374 125000 -234.277490701113 0 0 41 (C1) n - 1
REM
REM in /home/nfs/bkarasulu/CARBON/AIRSS/Generating-Clusters/REBO/Only-C1/SD-CG/HFTN-CG
REM
REM
REM
REM
REM
REM ./C.cell (11c1c37f851c82e70ff6c80c92926a4b)
REM
REM compiler GCC version 9.2.1 20190827 (Red Hat 9.2.1-1)
REM options -cpp -mtune=generic -march=x86-64 -g -O0 -fpre-include=/usr/include/finclude/math-vector-fortran.h
REM seed 1272231959 -519891896 24716572 595564302 -868366460 53531969 -1553179268 -565257399 1632228348 1997805673 538219355 455512259 -1689639219 313398703 -1777542117 -1114269898 -1295804408 -2047361727 -1579608722 204145550 1688920577 -2068170087 537775221 -247477863 1092244220 -311975611 -1886884327 -656998201 -689018922 990371696 267928516 56976165 1822189524
REM
CELL 1.54180   50.00000   50.00000   50.00000   90.00000   90.00000   90.00000
LATT -1
SFAC C  
C      1  0.5447400000000  0.5093100000000  0.4586030000000 1.0
C      1  0.5334760000000  0.4833750000000  0.4521450000000 1.0
C      1  0.4501000000000  0.5331380000000  0.4684550000000 1.0
C      1  0.5203960000000  0.4831030000000  0.5399840000000 1.0
C      1  0.4861940000000  0.4533490000000  0.4683450000000 1.0
C      1  0.4783830000000  0.5071540000000  0.5411450000000 1.0
C      1  0.4941640000000  0.5306940000000  0.5129470000000 1.0
C      1  0.4805920000000  0.4647930000000  0.5157080000000 1.0
C      1  0.4980650000000  0.4917720000000  0.5211370000000 1.0
C      1  0.4832410000000  0.5287820000000  0.5575760000000 1.0
C      1  0.4528440000000  0.4933370000000  0.5423230000000 1.0
C      1  0.5733560000000  0.5129640000000  0.4635070000000 1.0
C      1  0.4999710000000  0.5523070000000  0.4662370000000 1.0
C      1  0.4696970000000  0.4649620000000  0.4884340000000 1.0
C      1  0.5805120000000  0.5398000000000  0.4673730000000 1.0
C      1  0.4335220000000  0.5060770000000  0.5253420000000 1.0
C      1  0.4686750000000  0.5396830000000  0.5025940000000 1.0
C      1  0.4584780000000  0.4645790000000  0.5406340000000 1.0
C      1  0.5584710000000  0.5568510000000  0.4663230000000 1.0
C      1  0.5317050000000  0.5284410000000  0.5495230000000 1.0
C      1  0.5319700000000  0.5409510000000  0.4618670000000 1.0
C      1  0.5127870000000  0.4590760000000  0.5552190000000 1.0
C      1  0.5044980000000  0.5089820000000  0.4939170000000 1.0
C      1  0.4850270000000  0.4656400000000  0.4421300000000 1.0
C      1  0.4532700000000  0.5041010000000  0.4595990000000 1.0
C      1  0.4972240000000  0.5106800000000  0.4388140000000 1.0
C      1  0.4449470000000  0.5157690000000  0.4978330000000 1.0
C      1  0.5070480000000  0.5206170000000  0.4656830000000 1.0
C      1  0.5345800000000  0.4595940000000  0.4678440000000 1.0
C      1  0.4527290000000  0.4863250000000  0.4833310000000 1.0
C      1  0.5098410000000  0.4838330000000  0.4351450000000 1.0
C      1  0.5153850000000  0.4219340000000  0.4928920000000 1.0
C      1  0.4875270000000  0.4499880000000  0.5454650000000 1.0
C      1  0.5433450000000  0.4855750000000  0.5796630000000 1.0
C      1  0.4716210000000  0.4946180000000  0.4397030000000 1.0
C      1  0.5125130000000  0.4434180000000  0.4764950000000 1.0
C      1  0.5295250000000  0.4606040000000  0.5791660000000 1.0
C      1  0.5362210000000  0.5012950000000  0.5560060000000 1.0
C      1  0.4878520000000  0.5493230000000  0.5731850000000 1.0
C      1  0.5127930000000  0.5387760000000  0.5325870000000 1.0
C      1  0.4727120000000  0.5544310000000  0.4751180000000 1.0
END
