TITL C-2778423-5760-1420 -0.000170336513588523 125000 -886.580379703811 0 0 154 (C1) n - 1
REM
REM in /home/nfs/bkarasulu/CARBON/AIRSS/Generating-Clusters/REBO/Only-C1/SD-CG/HFTN-CG
REM
REM
REM
REM
REM
REM ./C.cell (11c1c37f851c82e70ff6c80c92926a4b)
REM
REM compiler GCC version 9.2.1 20190827 (Red Hat 9.2.1-1)
REM options -cpp -mtune=generic -march=x86-64 -g -O0 -fpre-include=/usr/include/finclude/math-vector-fortran.h
REM seed 121874319 -1176416008 799734762 270859239 436855866 1946559627 1050967880 -249815350 975288447 1204844398 916703896 1566632804 -2009804300 -1164510815 -984534037 -1949841549 1132174065 287743622 -1538350906 680184623 1064432128 -445599389 -1545733965 -390060209 -174504613 1999051930 -1214313863 -713408988 288573292 1364942226 -1934696365 618076891 953319478
REM
CELL 1.54180   50.00000   50.00000   50.00000   90.00000   90.00000   90.00000
LATT -1
SFAC C  
C      1  0.4523980000000  0.3905920000000  0.5164510000000 1.0
C      1  0.4637470000000  0.5119960000000  0.6016750000000 1.0
C      1  0.4708930000000  0.5059810000000  0.4794490000000 1.0
C      1  0.5355520000000  0.4531610000000  0.5624860000000 1.0
C      1  0.5218050000000  0.5581450000000  0.5055160000000 1.0
C      1  0.5541950000000  0.5163340000000  0.4986800000000 1.0
C      1  0.4750250000000  0.3914320000000  0.5330750000000 1.0
C      1  0.5736410000000  0.5161370000000  0.5652100000000 1.0
C      1  0.5291600000000  0.4578280000000  0.4202160000000 1.0
C      1  0.5536940000000  0.4777590000000  0.5333270000000 1.0
C      1  0.5392710000000  0.5377750000000  0.4053650000000 1.0
C      1  0.5624150000000  0.4230650000000  0.5250630000000 1.0
C      1  0.5233940000000  0.4160330000000  0.5299400000000 1.0
C      1  0.4491480000000  0.5304740000000  0.4817280000000 1.0
C      1  0.5586660000000  0.4713150000000  0.5800760000000 1.0
C      1  0.5032890000000  0.4396200000000  0.5380660000000 1.0
C      1  0.4480150000000  0.4709340000000  0.4948920000000 1.0
C      1  0.5789590000000  0.4446710000000  0.4814690000000 1.0
C      1  0.4903810000000  0.5893940000000  0.4515560000000 1.0
C      1  0.4957210000000  0.4880050000000  0.5243530000000 1.0
C      1  0.4237370000000  0.5448440000000  0.4994400000000 1.0
C      1  0.3953480000000  0.5315020000000  0.4883000000000 1.0
C      1  0.5680160000000  0.5075700000000  0.4280890000000 1.0
C      1  0.4601510000000  0.4279920000000  0.5279390000000 1.0
C      1  0.5110670000000  0.5719090000000  0.4695270000000 1.0
C      1  0.4356830000000  0.5679840000000  0.4804220000000 1.0
C      1  0.4828740000000  0.4766740000000  0.4768430000000 1.0
C      1  0.4415470000000  0.5650870000000  0.4526530000000 1.0
C      1  0.5376110000000  0.4446890000000  0.5177760000000 1.0
C      1  0.5049510000000  0.4571260000000  0.4941710000000 1.0
C      1  0.5257660000000  0.5799170000000  0.5387480000000 1.0
C      1  0.4715290000000  0.4388420000000  0.4826310000000 1.0
C      1  0.5196050000000  0.5220730000000  0.3833110000000 1.0
C      1  0.4637360000000  0.5854980000000  0.4425270000000 1.0
C      1  0.4992870000000  0.4639260000000  0.4289250000000 1.0
C      1  0.4707470000000  0.5444900000000  0.5207510000000 1.0
C      1  0.4867090000000  0.5928040000000  0.5477550000000 1.0
C      1  0.5336380000000  0.5421180000000  0.5294810000000 1.0
C      1  0.4549710000000  0.5508330000000  0.5709040000000 1.0
C      1  0.5584880000000  0.5343090000000  0.4247690000000 1.0
C      1  0.5394510000000  0.5709630000000  0.4414310000000 1.0
C      1  0.5016670000000  0.5128200000000  0.4836830000000 1.0
C      1  0.5139770000000  0.5194550000000  0.4547490000000 1.0
C      1  0.5653990000000  0.4398640000000  0.5723580000000 1.0
C      1  0.5080780000000  0.4799370000000  0.4561740000000 1.0
C      1  0.5794550000000  0.4876070000000  0.5621220000000 1.0
C      1  0.5831530000000  0.5358280000000  0.5440410000000 1.0
C      1  0.4929080000000  0.5186540000000  0.5203590000000 1.0
C      1  0.4951360000000  0.5641930000000  0.5343070000000 1.0
C      1  0.5095700000000  0.5509150000000  0.3967600000000 1.0
C      1  0.5256680000000  0.5079660000000  0.5952860000000 1.0
C      1  0.5927740000000  0.4708670000000  0.5351520000000 1.0
C      1  0.5355300000000  0.4959360000000  0.4502690000000 1.0
C      1  0.5852760000000  0.5284110000000  0.4659090000000 1.0
C      1  0.5192810000000  0.4868550000000  0.4884310000000 1.0
C      1  0.5337610000000  0.5888760000000  0.4830170000000 1.0
C      1  0.4580470000000  0.5196330000000  0.4101660000000 1.0
C      1  0.5011660000000  0.3935190000000  0.5252360000000 1.0
C      1  0.4811920000000  0.5499820000000  0.4451790000000 1.0
C      1  0.4961720000000  0.5346150000000  0.5497670000000 1.0
C      1  0.4619640000000  0.5796870000000  0.4932950000000 1.0
C      1  0.5565500000000  0.4294950000000  0.4933750000000 1.0
C      1  0.4881070000000  0.4330670000000  0.5653190000000 1.0
C      1  0.4854840000000  0.4805350000000  0.4064440000000 1.0
C      1  0.4953630000000  0.5667870000000  0.4190630000000 1.0
C      1  0.5168300000000  0.5859200000000  0.4326090000000 1.0
C      1  0.4500120000000  0.5213690000000  0.5796060000000 1.0
C      1  0.5654500000000  0.4868240000000  0.4962620000000 1.0
C      1  0.4683250000000  0.5183770000000  0.5519130000000 1.0
C      1  0.4480290000000  0.4796270000000  0.4401760000000 1.0
C      1  0.4394340000000  0.4829890000000  0.4711450000000 1.0
C      1  0.4926400000000  0.5899030000000  0.5744460000000 1.0
C      1  0.5004950000000  0.5440130000000  0.4862040000000 1.0
C      1  0.5669170000000  0.5533230000000  0.4517040000000 1.0
C      1  0.4352700000000  0.4235430000000  0.4789720000000 1.0
C      1  0.4772630000000  0.4580020000000  0.5853730000000 1.0
C      1  0.5576960000000  0.5959070000000  0.5058010000000 1.0
C      1  0.4962870000000  0.4211210000000  0.4740520000000 1.0
C      1  0.4353340000000  0.4191190000000  0.5091580000000 1.0
C      1  0.5054070000000  0.4981630000000  0.3913370000000 1.0
C      1  0.4262910000000  0.5009660000000  0.5094730000000 1.0
C      1  0.5987670000000  0.5221650000000  0.5170570000000 1.0
C      1  0.4587280000000  0.4869050000000  0.5479850000000 1.0
C      1  0.4424650000000  0.5606690000000  0.5473340000000 1.0
C      1  0.4208890000000  0.5112710000000  0.4779590000000 1.0
C      1  0.3999220000000  0.5204990000000  0.5201500000000 1.0
C      1  0.5631000000000  0.5737410000000  0.4770810000000 1.0
C      1  0.4677240000000  0.4747380000000  0.5204990000000 1.0
C      1  0.4618790000000  0.5606810000000  0.4190310000000 1.0
C      1  0.4825400000000  0.5436550000000  0.5861610000000 1.0
C      1  0.5637070000000  0.5408400000000  0.5182400000000 1.0
C      1  0.4771470000000  0.4553430000000  0.4524960000000 1.0
C      1  0.4606190000000  0.4196630000000  0.4562660000000 1.0
C      1  0.5407220000000  0.4535900000000  0.4658590000000 1.0
C      1  0.4929960000000  0.4140200000000  0.4455590000000 1.0
C      1  0.4222750000000  0.5427240000000  0.5333780000000 1.0
C      1  0.4300420000000  0.4502750000000  0.5639460000000 1.0
C      1  0.5796850000000  0.4985110000000  0.5237780000000 1.0
C      1  0.4849990000000  0.5314900000000  0.4036980000000 1.0
C      1  0.4582750000000  0.5758550000000  0.5257930000000 1.0
C      1  0.4490840000000  0.4457440000000  0.4374360000000 1.0
C      1  0.4287470000000  0.4791720000000  0.5541830000000 1.0
C      1  0.4187730000000  0.4514040000000  0.4434830000000 1.0
C      1  0.4042620000000  0.4763000000000  0.4416350000000 1.0
C      1  0.5693930000000  0.4486920000000  0.5416570000000 1.0
C      1  0.5469410000000  0.5207590000000  0.5769020000000 1.0
C      1  0.5485640000000  0.4849800000000  0.4144100000000 1.0
C      1  0.5743120000000  0.5686890000000  0.5447140000000 1.0
C      1  0.5985910000000  0.5297630000000  0.4908960000000 1.0
C      1  0.4602140000000  0.4914490000000  0.4131440000000 1.0
C      1  0.4140910000000  0.4696600000000  0.5159700000000 1.0
C      1  0.3996710000000  0.4863630000000  0.4686550000000 1.0
C      1  0.5283820000000  0.5449640000000  0.4576390000000 1.0
C      1  0.4720290000000  0.5525410000000  0.4754680000000 1.0
C      1  0.4906670000000  0.5151670000000  0.4327620000000 1.0
C      1  0.5933290000000  0.4689360000000  0.5008490000000 1.0
C      1  0.5128310000000  0.5898020000000  0.5095110000000 1.0
C      1  0.5322830000000  0.4807970000000  0.5992260000000 1.0
C      1  0.4829150000000  0.5962450000000  0.5140090000000 1.0
C      1  0.5510630000000  0.3989490000000  0.5393200000000 1.0
C      1  0.5457540000000  0.4357750000000  0.4374420000000 1.0
C      1  0.4809230000000  0.4460910000000  0.5146570000000 1.0
C      1  0.5760190000000  0.4476510000000  0.4488050000000 1.0
C      1  0.5135830000000  0.4423830000000  0.5801790000000 1.0
C      1  0.5218240000000  0.4729110000000  0.5406780000000 1.0
C      1  0.4800440000000  0.4876170000000  0.5746190000000 1.0
C      1  0.5179520000000  0.4983540000000  0.4212170000000 1.0
C      1  0.5273590000000  0.5134190000000  0.5558140000000 1.0
C      1  0.5239640000000  0.4318210000000  0.4830190000000 1.0
C      1  0.4620560000000  0.5096600000000  0.4485540000000 1.0
C      1  0.5563440000000  0.4734270000000  0.4447750000000 1.0
C      1  0.5406820000000  0.5418090000000  0.4856030000000 1.0
C      1  0.4012790000000  0.4918380000000  0.5385730000000 1.0
C      1  0.4448930000000  0.5362370000000  0.4359880000000 1.0
C      1  0.5101030000000  0.4624240000000  0.6008280000000 1.0
C      1  0.4511120000000  0.5172490000000  0.5232240000000 1.0
C      1  0.4038970000000  0.4635730000000  0.4868890000000 1.0
C      1  0.5030550000000  0.4951280000000  0.5558480000000 1.0
C      1  0.4953710000000  0.5126550000000  0.5923700000000 1.0
C      1  0.5556320000000  0.5845750000000  0.5319460000000 1.0
C      1  0.5433550000000  0.4671990000000  0.4948490000000 1.0
C      1  0.4678220000000  0.4115640000000  0.5569570000000 1.0
C      1  0.5234730000000  0.5530270000000  0.5595480000000 1.0
C      1  0.5823560000000  0.5030440000000  0.4526240000000 1.0
C      1  0.4366480000000  0.4213250000000  0.5516980000000 1.0
C      1  0.4239390000000  0.4442500000000  0.5299120000000 1.0
C      1  0.4480120000000  0.4517990000000  0.5877440000000 1.0
C      1  0.4274000000000  0.5122540000000  0.5475700000000 1.0
C      1  0.5023290000000  0.5634380000000  0.5811420000000 1.0
C      1  0.4154470000000  0.4420370000000  0.4709160000000 1.0
C      1  0.5892750000000  0.4742000000000  0.4668840000000 1.0
C      1  0.5170360000000  0.4181810000000  0.4321780000000 1.0
C      1  0.5752030000000  0.5605780000000  0.5010120000000 1.0
C      1  0.5416000000000  0.5090210000000  0.5281210000000 1.0
END
