TITL C-2778436-5916-1340 -0.00465396667498739 125000 -772.916242805103 0 0 134 (C1) n - 1
REM
REM in /home/nfs/bkarasulu/CARBON/AIRSS/Generating-Clusters/REBO/Only-C1/SD-CG/HFTN-CG
REM
REM
REM
REM
REM
REM ./C.cell (11c1c37f851c82e70ff6c80c92926a4b)
REM
REM compiler GCC version 9.2.1 20190827 (Red Hat 9.2.1-1)
REM options -cpp -mtune=generic -march=x86-64 -g -O0 -fpre-include=/usr/include/finclude/math-vector-fortran.h
REM seed -554655765 1933914836 201660663 -1450150863 655247644 -1621133836 -1376166501 725501963 1579927673 1025469481 1121846170 286330660 1173504084 1285308595 -1083300834 1081310323 -407765656 -1642005200 133521343 -1630769260 -272881673 665296533 1185502126 1844562980 -165515772 2052260279 -1099108839 1363800782 416034880 -1256056170 2038377506 -1937146740 1717743056
REM
CELL 1.54180   50.00000   50.00000   50.00000   90.00000   90.00000   90.00000
LATT -1
SFAC C  
C      1  0.4250750000000  0.5462190000000  0.4208470000000 1.0
C      1  0.4451240000000  0.4975870000000  0.4780130000000 1.0
C      1  0.5494410000000  0.5138680000000  0.5565280000000 1.0
C      1  0.5209460000000  0.5928670000000  0.4453260000000 1.0
C      1  0.5365770000000  0.4122540000000  0.5528210000000 1.0
C      1  0.5428730000000  0.4392900000000  0.4957080000000 1.0
C      1  0.4426970000000  0.5659960000000  0.4278420000000 1.0
C      1  0.6373240000000  0.5595460000000  0.5255680000000 1.0
C      1  0.4955270000000  0.4153800000000  0.4270090000000 1.0
C      1  0.4275570000000  0.5641340000000  0.4806410000000 1.0
C      1  0.5283150000000  0.4912440000000  0.5312260000000 1.0
C      1  0.4673790000000  0.4598310000000  0.4111990000000 1.0
C      1  0.5223640000000  0.5393420000000  0.4206230000000 1.0
C      1  0.4699290000000  0.4752450000000  0.5774580000000 1.0
C      1  0.4609610000000  0.5084880000000  0.4198770000000 1.0
C      1  0.5083210000000  0.4601390000000  0.4426420000000 1.0
C      1  0.4651390000000  0.4701780000000  0.5226040000000 1.0
C      1  0.4291510000000  0.5408370000000  0.5701560000000 1.0
C      1  0.4880250000000  0.5041400000000  0.5745010000000 1.0
C      1  0.4959570000000  0.3800090000000  0.5141630000000 1.0
C      1  0.5502110000000  0.5078570000000  0.4112770000000 1.0
C      1  0.5431700000000  0.4097480000000  0.4589400000000 1.0
C      1  0.4016100000000  0.5168680000000  0.5047880000000 1.0
C      1  0.4022990000000  0.5247730000000  0.4762900000000 1.0
C      1  0.5731450000000  0.5457100000000  0.5542640000000 1.0
C      1  0.4465870000000  0.4047920000000  0.5013390000000 1.0
C      1  0.6152920000000  0.5162500000000  0.5027060000000 1.0
C      1  0.5395620000000  0.4110070000000  0.4887880000000 1.0
C      1  0.5119440000000  0.5490000000000  0.4652480000000 1.0
C      1  0.5050620000000  0.5795640000000  0.5526260000000 1.0
C      1  0.4155720000000  0.4748920000000  0.4635540000000 1.0
C      1  0.5872520000000  0.4657910000000  0.4773070000000 1.0
C      1  0.4949880000000  0.4438790000000  0.4171400000000 1.0
C      1  0.4986920000000  0.5543740000000  0.5970530000000 1.0
C      1  0.5785860000000  0.5257120000000  0.4510180000000 1.0
C      1  0.5557470000000  0.4805330000000  0.5361050000000 1.0
C      1  0.4641820000000  0.5951850000000  0.5109020000000 1.0
C      1  0.4769240000000  0.5313030000000  0.5919620000000 1.0
C      1  0.4948800000000  0.5197360000000  0.5265480000000 1.0
C      1  0.5510600000000  0.3923010000000  0.4397080000000 1.0
C      1  0.4918430000000  0.4547880000000  0.5853230000000 1.0
C      1  0.4845500000000  0.5048980000000  0.4006560000000 1.0
C      1  0.4244760000000  0.5303110000000  0.5215140000000 1.0
C      1  0.4997880000000  0.4360660000000  0.5377240000000 1.0
C      1  0.5602680000000  0.4297880000000  0.5415870000000 1.0
C      1  0.6075090000000  0.4929830000000  0.4801580000000 1.0
C      1  0.5220950000000  0.5196120000000  0.5443030000000 1.0
C      1  0.5231270000000  0.4855260000000  0.4286610000000 1.0
C      1  0.5692260000000  0.4790620000000  0.5116460000000 1.0
C      1  0.5856170000000  0.5561730000000  0.5300280000000 1.0
C      1  0.5580840000000  0.4633130000000  0.5821940000000 1.0
C      1  0.5192160000000  0.3940520000000  0.4990550000000 1.0
C      1  0.5524640000000  0.5377410000000  0.4350580000000 1.0
C      1  0.5232060000000  0.5864790000000  0.4953810000000 1.0
C      1  0.5277200000000  0.4401230000000  0.4586030000000 1.0
C      1  0.4627220000000  0.5229330000000  0.4777640000000 1.0
C      1  0.4069570000000  0.4346410000000  0.5459960000000 1.0
C      1  0.5684190000000  0.4605230000000  0.4425290000000 1.0
C      1  0.5144250000000  0.4571190000000  0.4921530000000 1.0
C      1  0.6127340000000  0.5425790000000  0.5226790000000 1.0
C      1  0.5408750000000  0.4433220000000  0.5661690000000 1.0
C      1  0.4438040000000  0.4330450000000  0.5034440000000 1.0
C      1  0.4972570000000  0.4762340000000  0.4079980000000 1.0
C      1  0.4808330000000  0.5826630000000  0.5289720000000 1.0
C      1  0.4438050000000  0.5101110000000  0.5408990000000 1.0
C      1  0.4478640000000  0.5725070000000  0.4583700000000 1.0
C      1  0.4933510000000  0.4019800000000  0.4812480000000 1.0
C      1  0.5674720000000  0.4867120000000  0.5650970000000 1.0
C      1  0.4286260000000  0.4423880000000  0.5242400000000 1.0
C      1  0.5472640000000  0.5529520000000  0.5637650000000 1.0
C      1  0.5740470000000  0.4454050000000  0.4908990000000 1.0
C      1  0.4651930000000  0.4735830000000  0.4710200000000 1.0
C      1  0.5379300000000  0.5680400000000  0.4306590000000 1.0
C      1  0.4636980000000  0.5333480000000  0.5280100000000 1.0
C      1  0.5423270000000  0.5477280000000  0.5143780000000 1.0
C      1  0.5054400000000  0.5377630000000  0.5616160000000 1.0
C      1  0.4324060000000  0.5172830000000  0.4323830000000 1.0
C      1  0.4669320000000  0.4483910000000  0.4891060000000 1.0
C      1  0.4894050000000  0.4517650000000  0.5145920000000 1.0
C      1  0.4328150000000  0.5098840000000  0.5717240000000 1.0
C      1  0.4564200000000  0.5531570000000  0.5757000000000 1.0
C      1  0.6036040000000  0.5121860000000  0.5348920000000 1.0
C      1  0.5476490000000  0.5228600000000  0.4655620000000 1.0
C      1  0.4980150000000  0.5356140000000  0.4407930000000 1.0
C      1  0.3960240000000  0.4851960000000  0.5074600000000 1.0
C      1  0.5289120000000  0.4945290000000  0.5011050000000 1.0
C      1  0.5345570000000  0.5245650000000  0.4921020000000 1.0
C      1  0.4196810000000  0.5058280000000  0.4590720000000 1.0
C      1  0.4936120000000  0.4349270000000  0.4788420000000 1.0
C      1  0.4892440000000  0.5127790000000  0.4876590000000 1.0
C      1  0.5291260000000  0.5622220000000  0.5407660000000 1.0
C      1  0.5068430000000  0.5936540000000  0.4707950000000 1.0
C      1  0.5054850000000  0.5381950000000  0.5029220000000 1.0
C      1  0.4250600000000  0.4596830000000  0.4420030000000 1.0
C      1  0.4735460000000  0.5568380000000  0.4368110000000 1.0
C      1  0.4864990000000  0.4813110000000  0.4534680000000 1.0
C      1  0.5749950000000  0.4345970000000  0.5190210000000 1.0
C      1  0.5834970000000  0.5152930000000  0.5568900000000 1.0
C      1  0.5038980000000  0.4848280000000  0.5513960000000 1.0
C      1  0.4457720000000  0.5480860000000  0.5045120000000 1.0
C      1  0.4697600000000  0.3894430000000  0.4997090000000 1.0
C      1  0.5507140000000  0.4776160000000  0.4879370000000 1.0
C      1  0.4570040000000  0.5037330000000  0.5886640000000 1.0
C      1  0.4154780000000  0.4705020000000  0.4924160000000 1.0
C      1  0.5110930000000  0.4542060000000  0.5601630000000 1.0
C      1  0.4045590000000  0.5516680000000  0.4724830000000 1.0
C      1  0.5816690000000  0.4941170000000  0.4589830000000 1.0
C      1  0.5041720000000  0.4157250000000  0.4537640000000 1.0
C      1  0.4747640000000  0.4963160000000  0.5376630000000 1.0
C      1  0.4548520000000  0.5342950000000  0.4491940000000 1.0
C      1  0.4842340000000  0.5071980000000  0.4404920000000 1.0
C      1  0.5964500000000  0.4892090000000  0.5113550000000 1.0
C      1  0.4934360000000  0.5667750000000  0.4776730000000 1.0
C      1  0.4663450000000  0.5567960000000  0.4798720000000 1.0
C      1  0.4436190000000  0.4580510000000  0.4224080000000 1.0
C      1  0.5382190000000  0.5615920000000  0.4632590000000 1.0
C      1  0.4154070000000  0.5475400000000  0.5467870000000 1.0
C      1  0.5010400000000  0.4885720000000  0.4899930000000 1.0
C      1  0.5164580000000  0.5110470000000  0.4067760000000 1.0
C      1  0.4130720000000  0.4897360000000  0.5563740000000 1.0
C      1  0.5115730000000  0.4112450000000  0.5391710000000 1.0
C      1  0.4427180000000  0.4762420000000  0.5036400000000 1.0
C      1  0.4926260000000  0.5784040000000  0.5821700000000 1.0
C      1  0.3964500000000  0.4982880000000  0.5358660000000 1.0
C      1  0.5498740000000  0.4619130000000  0.4636480000000 1.0
C      1  0.5517700000000  0.4975150000000  0.4427800000000 1.0
C      1  0.5493790000000  0.5753500000000  0.4866870000000 1.0
C      1  0.5679550000000  0.5648310000000  0.5091990000000 1.0
C      1  0.4552870000000  0.4650750000000  0.5527140000000 1.0
C      1  0.4682840000000  0.5807670000000  0.5605470000000 1.0
C      1  0.4248410000000  0.4627700000000  0.5518640000000 1.0
C      1  0.4791620000000  0.5437270000000  0.5541510000000 1.0
C      1  0.5079660000000  0.5677680000000  0.5148590000000 1.0
C      1  0.5260910000000  0.5459390000000  0.5850480000000 1.0
END
