TITL C-2778432-5617-368 -0.00329258538200477 125000 -950.030556168044 0 0 164 (C1) n - 1
REM
REM in /home/nfs/bkarasulu/CARBON/AIRSS/Generating-Clusters/REBO/Only-C1/SD-CG/HFTN-CG
REM
REM
REM
REM
REM
REM ./C.cell (11c1c37f851c82e70ff6c80c92926a4b)
REM
REM compiler GCC version 9.2.1 20190827 (Red Hat 9.2.1-1)
REM options -cpp -mtune=generic -march=x86-64 -g -O0 -fpre-include=/usr/include/finclude/math-vector-fortran.h
REM seed 94175352 1573786066 -1173655939 972049456 576622092 -1188076897 -432669975 1566505318 387862624 -206699306 -1969053573 -845641925 1237478780 -1337900741 1580985112 -904028480 1334767971 -1760180187 -869267220 645779054 948261929 -106266858 618060998 839714194 -1891862559 -672754874 -634441816 -734270781 204089559 -1774184387 1888831678 -1149486953 -1071466039
REM
CELL 1.54180   50.00000   50.00000   50.00000   90.00000   90.00000   90.00000
LATT -1
SFAC C  
C      1  0.4953970000000  0.4650790000000  0.5746220000000 1.0
C      1  0.5016470000000  0.5955680000000  0.4735250000000 1.0
C      1  0.4535330000000  0.3992370000000  0.4816040000000 1.0
C      1  0.4416990000000  0.4524040000000  0.5451490000000 1.0
C      1  0.4701790000000  0.5718350000000  0.5452260000000 1.0
C      1  0.4484270000000  0.4972230000000  0.5154630000000 1.0
C      1  0.4394450000000  0.5238950000000  0.5346720000000 1.0
C      1  0.4638110000000  0.4423310000000  0.5133800000000 1.0
C      1  0.5246630000000  0.5105020000000  0.5090910000000 1.0
C      1  0.4169640000000  0.4522710000000  0.5234960000000 1.0
C      1  0.4999520000000  0.5061080000000  0.5448650000000 1.0
C      1  0.5137780000000  0.5763030000000  0.5195340000000 1.0
C      1  0.5952680000000  0.5173390000000  0.4471650000000 1.0
C      1  0.4979550000000  0.4729170000000  0.5359550000000 1.0
C      1  0.5983660000000  0.5018880000000  0.5445130000000 1.0
C      1  0.4462480000000  0.5231750000000  0.4243310000000 1.0
C      1  0.5143810000000  0.4231460000000  0.4320200000000 1.0
C      1  0.4541990000000  0.5882200000000  0.5202440000000 1.0
C      1  0.3976460000000  0.5080970000000  0.5506070000000 1.0
C      1  0.5308730000000  0.4848740000000  0.5314310000000 1.0
C      1  0.4356490000000  0.4299850000000  0.5127740000000 1.0
C      1  0.4776820000000  0.4170150000000  0.5580960000000 1.0
C      1  0.4774070000000  0.4923400000000  0.5647800000000 1.0
C      1  0.4676570000000  0.4421480000000  0.4681290000000 1.0
C      1  0.5836230000000  0.4952600000000  0.4991340000000 1.0
C      1  0.5685490000000  0.5444940000000  0.4621350000000 1.0
C      1  0.5623270000000  0.5289720000000  0.4920260000000 1.0
C      1  0.5017140000000  0.4621030000000  0.4191860000000 1.0
C      1  0.5694980000000  0.4591570000000  0.5401000000000 1.0
C      1  0.4970570000000  0.4961020000000  0.5134150000000 1.0
C      1  0.5599290000000  0.4773270000000  0.5663120000000 1.0
C      1  0.4409290000000  0.4840820000000  0.4624330000000 1.0
C      1  0.5549630000000  0.4943370000000  0.4144950000000 1.0
C      1  0.5810480000000  0.5490840000000  0.5373650000000 1.0
C      1  0.5853450000000  0.4707580000000  0.4778000000000 1.0
C      1  0.5376470000000  0.5578320000000  0.5326880000000 1.0
C      1  0.6031810000000  0.5460510000000  0.4625520000000 1.0
C      1  0.4714560000000  0.3944340000000  0.4592880000000 1.0
C      1  0.5761220000000  0.5050650000000  0.5633710000000 1.0
C      1  0.5403120000000  0.5964030000000  0.5242040000000 1.0
C      1  0.5305860000000  0.4981500000000  0.4382890000000 1.0
C      1  0.5770140000000  0.5143260000000  0.4184900000000 1.0
C      1  0.4808660000000  0.4825890000000  0.3919630000000 1.0
C      1  0.4771790000000  0.5261940000000  0.4260080000000 1.0
C      1  0.4539580000000  0.5089300000000  0.5965520000000 1.0
C      1  0.5009230000000  0.5671460000000  0.5562550000000 1.0
C      1  0.4873540000000  0.5896990000000  0.5232010000000 1.0
C      1  0.4988190000000  0.4258640000000  0.5045250000000 1.0
C      1  0.4278630000000  0.5690690000000  0.4789860000000 1.0
C      1  0.4914250000000  0.4469860000000  0.4842470000000 1.0
C      1  0.4458840000000  0.4829550000000  0.5874850000000 1.0
C      1  0.5273190000000  0.4676070000000  0.5007580000000 1.0
C      1  0.5114010000000  0.4661940000000  0.6037640000000 1.0
C      1  0.3961830000000  0.5017300000000  0.5184530000000 1.0
C      1  0.5276740000000  0.5377350000000  0.4345720000000 1.0
C      1  0.5331880000000  0.5169930000000  0.4802930000000 1.0
C      1  0.5510080000000  0.4127780000000  0.5327200000000 1.0
C      1  0.4865970000000  0.5112690000000  0.5988910000000 1.0
C      1  0.5144190000000  0.5366330000000  0.5194700000000 1.0
C      1  0.5155960000000  0.4960120000000  0.5946150000000 1.0
C      1  0.4736790000000  0.5118470000000  0.5043160000000 1.0
C      1  0.4731500000000  0.5951430000000  0.4925400000000 1.0
C      1  0.4685710000000  0.5609920000000  0.4948130000000 1.0
C      1  0.5391040000000  0.4382520000000  0.5047170000000 1.0
C      1  0.5033730000000  0.5165260000000  0.4399990000000 1.0
C      1  0.4813810000000  0.5397280000000  0.5162880000000 1.0
C      1  0.4844130000000  0.4762410000000  0.4397110000000 1.0
C      1  0.4879420000000  0.4411750000000  0.4055800000000 1.0
C      1  0.4374690000000  0.5295700000000  0.5818740000000 1.0
C      1  0.5451040000000  0.5681360000000  0.4905210000000 1.0
C      1  0.4955840000000  0.5408010000000  0.5884190000000 1.0
C      1  0.5352970000000  0.4452390000000  0.4318400000000 1.0
C      1  0.5154690000000  0.5885710000000  0.4431770000000 1.0
C      1  0.3931840000000  0.5025410000000  0.4606360000000 1.0
C      1  0.5096890000000  0.4712220000000  0.4769890000000 1.0
C      1  0.4149360000000  0.4909550000000  0.4920090000000 1.0
C      1  0.5749760000000  0.5739640000000  0.4940650000000 1.0
C      1  0.5556360000000  0.5212270000000  0.4444400000000 1.0
C      1  0.4711280000000  0.4440720000000  0.5746740000000 1.0
C      1  0.5630100000000  0.5776340000000  0.4561450000000 1.0
C      1  0.4279750000000  0.4653820000000  0.4958910000000 1.0
C      1  0.5603670000000  0.5271000000000  0.5231600000000 1.0
C      1  0.4223590000000  0.5164010000000  0.5595030000000 1.0
C      1  0.5385240000000  0.5590590000000  0.5667730000000 1.0
C      1  0.4644700000000  0.5400750000000  0.5433930000000 1.0
C      1  0.4268700000000  0.4609940000000  0.4444160000000 1.0
C      1  0.5635740000000  0.5366400000000  0.5616840000000 1.0
C      1  0.5105480000000  0.5205820000000  0.3889790000000 1.0
C      1  0.5012840000000  0.5675710000000  0.4929830000000 1.0
C      1  0.5241680000000  0.5440840000000  0.4026700000000 1.0
C      1  0.5927740000000  0.5196290000000  0.4814240000000 1.0
C      1  0.4600500000000  0.5540410000000  0.4032100000000 1.0
C      1  0.4508230000000  0.4215270000000  0.5487280000000 1.0
C      1  0.4515120000000  0.4568500000000  0.5945750000000 1.0
C      1  0.5973580000000  0.4763620000000  0.5315570000000 1.0
C      1  0.4444370000000  0.4551110000000  0.4203060000000 1.0
C      1  0.4855400000000  0.5365740000000  0.3959930000000 1.0
C      1  0.4191620000000  0.5429190000000  0.5229700000000 1.0
C      1  0.5868610000000  0.4503790000000  0.5121660000000 1.0
C      1  0.4359810000000  0.4460510000000  0.4720190000000 1.0
C      1  0.4647810000000  0.4765900000000  0.4152450000000 1.0
C      1  0.4691400000000  0.4093740000000  0.5066400000000 1.0
C      1  0.5320950000000  0.4940760000000  0.5649460000000 1.0
C      1  0.5169100000000  0.4446280000000  0.5572680000000 1.0
C      1  0.4607280000000  0.4713770000000  0.4964630000000 1.0
C      1  0.5313600000000  0.5480680000000  0.4757840000000 1.0
C      1  0.5178050000000  0.5679870000000  0.4249420000000 1.0
C      1  0.4458450000000  0.4831560000000  0.5557750000000 1.0
C      1  0.5133200000000  0.3889030000000  0.5011440000000 1.0
C      1  0.5306090000000  0.5987670000000  0.4914870000000 1.0
C      1  0.5272180000000  0.4456760000000  0.5889020000000 1.0
C      1  0.5213230000000  0.3999990000000  0.4761940000000 1.0
C      1  0.4740780000000  0.5136790000000  0.4735670000000 1.0
C      1  0.4607780000000  0.5627300000000  0.4323540000000 1.0
C      1  0.4867210000000  0.3824030000000  0.5042430000000 1.0
C      1  0.5306540000000  0.4711220000000  0.4093760000000 1.0
C      1  0.5280150000000  0.4718110000000  0.4516910000000 1.0
C      1  0.4175030000000  0.5414590000000  0.4925230000000 1.0
C      1  0.5778930000000  0.4391910000000  0.4808580000000 1.0
C      1  0.5089640000000  0.5374220000000  0.5511010000000 1.0
C      1  0.5381870000000  0.4519780000000  0.5358350000000 1.0
C      1  0.5576030000000  0.4241340000000  0.5569020000000 1.0
C      1  0.5217670000000  0.5504750000000  0.5905830000000 1.0
C      1  0.5373950000000  0.5210290000000  0.5482260000000 1.0
C      1  0.4761040000000  0.4534060000000  0.5416540000000 1.0
C      1  0.4007840000000  0.5657800000000  0.5398660000000 1.0
C      1  0.5038040000000  0.4186940000000  0.5483230000000 1.0
C      1  0.5408530000000  0.4200100000000  0.4787320000000 1.0
C      1  0.5027750000000  0.4034440000000  0.4531470000000 1.0
C      1  0.4328990000000  0.5323380000000  0.4474140000000 1.0
C      1  0.4503630000000  0.5364180000000  0.4830860000000 1.0
C      1  0.4303380000000  0.5715500000000  0.5481350000000 1.0
C      1  0.5584410000000  0.4651770000000  0.4575960000000 1.0
C      1  0.5687280000000  0.4220630000000  0.5081430000000 1.0
C      1  0.5060080000000  0.5024680000000  0.4694250000000 1.0
C      1  0.6055810000000  0.5280450000000  0.5343810000000 1.0
C      1  0.5576890000000  0.4735910000000  0.5040050000000 1.0
C      1  0.5732330000000  0.4944410000000  0.4573990000000 1.0
C      1  0.4312120000000  0.4147980000000  0.4760870000000 1.0
C      1  0.5085560000000  0.4916290000000  0.3931030000000 1.0
C      1  0.4355190000000  0.5356630000000  0.3980080000000 1.0
C      1  0.5351700000000  0.5114050000000  0.6142040000000 1.0
C      1  0.3967600000000  0.5191810000000  0.4891680000000 1.0
C      1  0.4374280000000  0.5615370000000  0.4527930000000 1.0
C      1  0.4034830000000  0.4836150000000  0.4484690000000 1.0
C      1  0.5923740000000  0.5750260000000  0.4702540000000 1.0
C      1  0.4719640000000  0.4818210000000  0.4660980000000 1.0
C      1  0.5058400000000  0.5553440000000  0.4631450000000 1.0
C      1  0.5530920000000  0.4463830000000  0.5741540000000 1.0
C      1  0.5270320000000  0.5888880000000  0.5547740000000 1.0
C      1  0.5366520000000  0.5386690000000  0.6117030000000 1.0
C      1  0.4288660000000  0.5738730000000  0.5127630000000 1.0
C      1  0.4309510000000  0.5114320000000  0.4703120000000 1.0
C      1  0.4402880000000  0.5574100000000  0.5713120000000 1.0
C      1  0.4227870000000  0.4844070000000  0.5306630000000 1.0
C      1  0.5661720000000  0.5741700000000  0.5239390000000 1.0
C      1  0.4642200000000  0.4328830000000  0.4194260000000 1.0
C      1  0.5631120000000  0.4962400000000  0.5266110000000 1.0
C      1  0.4718220000000  0.4226180000000  0.4456700000000 1.0
C      1  0.5570030000000  0.4332600000000  0.4551770000000 1.0
C      1  0.4745000000000  0.5264270000000  0.5673730000000 1.0
C      1  0.5396850000000  0.5931440000000  0.4599760000000 1.0
C      1  0.4866260000000  0.5524620000000  0.4450550000000 1.0
C      1  0.5210760000000  0.4088680000000  0.5245370000000 1.0
END
