TITL C-2778435-5768-1155 -0.00205174645090563 125000 -824.956492997408 0 0 142 (C1) n - 1
REM
REM in /home/nfs/bkarasulu/CARBON/AIRSS/Generating-Clusters/REBO/Only-C1/SD-CG/HFTN-CG
REM
REM
REM
REM
REM
REM ./C.cell (11c1c37f851c82e70ff6c80c92926a4b)
REM
REM compiler GCC version 9.2.1 20190827 (Red Hat 9.2.1-1)
REM options -cpp -mtune=generic -march=x86-64 -g -O0 -fpre-include=/usr/include/finclude/math-vector-fortran.h
REM seed 1377085418 1231618064 362684561 1958349361 -1050433898 -88054116 302463609 270354236 -437721790 -1154629516 1336805476 -592074388 1254857831 170217723 825817257 1995484775 -1258375215 -799953229 -1731865746 -1033842074 -100831551 -673409072 1733291901 2031432347 -1879083745 -1680291393 1372688380 -1853676982 1245216337 277066559 -1766533061 2140096801 1236459123
REM
CELL 1.54180   50.00000   50.00000   50.00000   90.00000   90.00000   90.00000
LATT -1
SFAC C  
C      1  0.4221860000000  0.4529450000000  0.5090410000000 1.0
C      1  0.5038770000000  0.5293820000000  0.4158340000000 1.0
C      1  0.5137300000000  0.4976720000000  0.4069970000000 1.0
C      1  0.5376000000000  0.5290620000000  0.4206950000000 1.0
C      1  0.4435960000000  0.4967760000000  0.4459540000000 1.0
C      1  0.5615540000000  0.5592570000000  0.4830820000000 1.0
C      1  0.5026530000000  0.5219650000000  0.4628110000000 1.0
C      1  0.4407260000000  0.5395990000000  0.5714400000000 1.0
C      1  0.4877240000000  0.4502340000000  0.5392840000000 1.0
C      1  0.5119770000000  0.5969560000000  0.4901710000000 1.0
C      1  0.5643250000000  0.5064810000000  0.5645510000000 1.0
C      1  0.3987020000000  0.4686850000000  0.4674130000000 1.0
C      1  0.5585180000000  0.4465250000000  0.4434370000000 1.0
C      1  0.5196780000000  0.4907850000000  0.5881690000000 1.0
C      1  0.5603680000000  0.4291720000000  0.5224470000000 1.0
C      1  0.4527270000000  0.4352870000000  0.5508760000000 1.0
C      1  0.5377500000000  0.5164910000000  0.5834740000000 1.0
C      1  0.5707930000000  0.5515510000000  0.5148080000000 1.0
C      1  0.5428130000000  0.5857320000000  0.4500780000000 1.0
C      1  0.4808130000000  0.4307200000000  0.4297280000000 1.0
C      1  0.4086800000000  0.5583720000000  0.5282670000000 1.0
C      1  0.4293340000000  0.5689010000000  0.5128550000000 1.0
C      1  0.5587450000000  0.4692530000000  0.4232450000000 1.0
C      1  0.5195830000000  0.5373440000000  0.5489830000000 1.0
C      1  0.5509300000000  0.5553660000000  0.4529730000000 1.0
C      1  0.5134460000000  0.4700910000000  0.4619500000000 1.0
C      1  0.5303230000000  0.4794460000000  0.4384600000000 1.0
C      1  0.5671250000000  0.4227940000000  0.4635510000000 1.0
C      1  0.4377790000000  0.5145330000000  0.5935720000000 1.0
C      1  0.5943260000000  0.5162130000000  0.5064750000000 1.0
C      1  0.4500770000000  0.5217790000000  0.5137140000000 1.0
C      1  0.5772900000000  0.5522080000000  0.5463090000000 1.0
C      1  0.4615310000000  0.4720230000000  0.5383160000000 1.0
C      1  0.4309220000000  0.4576450000000  0.5373340000000 1.0
C      1  0.4003910000000  0.4760840000000  0.5006470000000 1.0
C      1  0.5182880000000  0.5934170000000  0.4621120000000 1.0
C      1  0.4995210000000  0.4919210000000  0.5316990000000 1.0
C      1  0.4340910000000  0.5129690000000  0.4225490000000 1.0
C      1  0.5546830000000  0.4597010000000  0.4720010000000 1.0
C      1  0.4692830000000  0.4721520000000  0.4641870000000 1.0
C      1  0.5019100000000  0.4504400000000  0.5011100000000 1.0
C      1  0.4716280000000  0.6032620000000  0.5001250000000 1.0
C      1  0.4527450000000  0.4635450000000  0.5702050000000 1.0
C      1  0.5401770000000  0.5684620000000  0.5751610000000 1.0
C      1  0.5546520000000  0.5238120000000  0.4770890000000 1.0
C      1  0.4877040000000  0.6074980000000  0.5299850000000 1.0
C      1  0.4349240000000  0.4639550000000  0.4248370000000 1.0
C      1  0.5800640000000  0.5198180000000  0.5372650000000 1.0
C      1  0.5851160000000  0.4705690000000  0.5124790000000 1.0
C      1  0.4632220000000  0.5552650000000  0.4382650000000 1.0
C      1  0.4407800000000  0.4986110000000  0.5321370000000 1.0
C      1  0.5533130000000  0.4791570000000  0.5177540000000 1.0
C      1  0.5227240000000  0.5380960000000  0.4499620000000 1.0
C      1  0.5911650000000  0.4874460000000  0.4647650000000 1.0
C      1  0.4860210000000  0.5294860000000  0.5293530000000 1.0
C      1  0.5123100000000  0.4960010000000  0.4807890000000 1.0
C      1  0.5931950000000  0.5139000000000  0.4783080000000 1.0
C      1  0.4962230000000  0.5724400000000  0.5012130000000 1.0
C      1  0.4747700000000  0.4862580000000  0.4904520000000 1.0
C      1  0.5581410000000  0.5400480000000  0.5690160000000 1.0
C      1  0.5339710000000  0.4249900000000  0.4414220000000 1.0
C      1  0.5445030000000  0.5057450000000  0.4422250000000 1.0
C      1  0.4961180000000  0.5918570000000  0.5539890000000 1.0
C      1  0.5235670000000  0.5470210000000  0.5874820000000 1.0
C      1  0.5275500000000  0.4660510000000  0.4091100000000 1.0
C      1  0.5462030000000  0.4008180000000  0.4609780000000 1.0
C      1  0.4281570000000  0.4837600000000  0.5817560000000 1.0
C      1  0.5701370000000  0.5210280000000  0.4280830000000 1.0
C      1  0.4306190000000  0.5096460000000  0.5596740000000 1.0
C      1  0.4149640000000  0.5259100000000  0.4951160000000 1.0
C      1  0.4141860000000  0.5007360000000  0.4854770000000 1.0
C      1  0.4876520000000  0.4134550000000  0.5110780000000 1.0
C      1  0.4609430000000  0.4897400000000  0.5907170000000 1.0
C      1  0.5506290000000  0.4935650000000  0.4698940000000 1.0
C      1  0.4937070000000  0.4252590000000  0.4796620000000 1.0
C      1  0.5614800000000  0.4754870000000  0.5629000000000 1.0
C      1  0.4535530000000  0.4508350000000  0.4471440000000 1.0
C      1  0.4730500000000  0.5146870000000  0.4145410000000 1.0
C      1  0.4506850000000  0.5377350000000  0.4207580000000 1.0
C      1  0.4670570000000  0.5127950000000  0.4911660000000 1.0
C      1  0.4875370000000  0.5013930000000  0.5842080000000 1.0
C      1  0.4800470000000  0.5706130000000  0.5667770000000 1.0
C      1  0.5804370000000  0.4896740000000  0.4364380000000 1.0
C      1  0.5391590000000  0.4657930000000  0.5778360000000 1.0
C      1  0.4071110000000  0.4992170000000  0.5248150000000 1.0
C      1  0.4993910000000  0.4637710000000  0.5807160000000 1.0
C      1  0.4945130000000  0.5811960000000  0.4514360000000 1.0
C      1  0.4557890000000  0.5580610000000  0.5565380000000 1.0
C      1  0.5280560000000  0.4293410000000  0.4989450000000 1.0
C      1  0.5784960000000  0.5354920000000  0.4564640000000 1.0
C      1  0.4904290000000  0.4791980000000  0.4149180000000 1.0
C      1  0.4600870000000  0.5487250000000  0.5281040000000 1.0
C      1  0.4115220000000  0.4765940000000  0.5482030000000 1.0
C      1  0.4774750000000  0.5305880000000  0.4722230000000 1.0
C      1  0.5505710000000  0.5061360000000  0.5271770000000 1.0
C      1  0.4100300000000  0.4668570000000  0.4454130000000 1.0
C      1  0.4746880000000  0.4923620000000  0.4405830000000 1.0
C      1  0.5330140000000  0.3980610000000  0.4856270000000 1.0
C      1  0.4522710000000  0.4878730000000  0.4079960000000 1.0
C      1  0.5222880000000  0.5130260000000  0.5307610000000 1.0
C      1  0.5645810000000  0.5816800000000  0.5403510000000 1.0
C      1  0.4333450000000  0.4884840000000  0.4696720000000 1.0
C      1  0.4961830000000  0.4587980000000  0.4378310000000 1.0
C      1  0.5354330000000  0.5647020000000  0.5018440000000 1.0
C      1  0.4965360000000  0.5500430000000  0.5789950000000 1.0
C      1  0.4567520000000  0.4183690000000  0.5228750000000 1.0
C      1  0.4377630000000  0.5471290000000  0.4908240000000 1.0
C      1  0.5679060000000  0.4576130000000  0.5379090000000 1.0
C      1  0.5365390000000  0.5629840000000  0.5358120000000 1.0
C      1  0.5142030000000  0.4555960000000  0.5385790000000 1.0
C      1  0.4414620000000  0.4608850000000  0.4833200000000 1.0
C      1  0.5135900000000  0.4368590000000  0.4206170000000 1.0
C      1  0.4660290000000  0.4562870000000  0.4116960000000 1.0
C      1  0.4706860000000  0.4171660000000  0.4593520000000 1.0
C      1  0.4909220000000  0.5241730000000  0.5626440000000 1.0
C      1  0.5051960000000  0.5190110000000  0.5029920000000 1.0
C      1  0.5242730000000  0.5894680000000  0.5630660000000 1.0
C      1  0.5101610000000  0.4117280000000  0.5334130000000 1.0
C      1  0.4925870000000  0.4753270000000  0.5086710000000 1.0
C      1  0.5122010000000  0.5466520000000  0.4922630000000 1.0
C      1  0.5298640000000  0.4395340000000  0.5716380000000 1.0
C      1  0.5007710000000  0.4351730000000  0.5768450000000 1.0
C      1  0.5921780000000  0.4655630000000  0.4838750000000 1.0
C      1  0.5202010000000  0.4397810000000  0.4674950000000 1.0
C      1  0.4723830000000  0.5846080000000  0.4716330000000 1.0
C      1  0.5388700000000  0.4031170000000  0.5171590000000 1.0
C      1  0.4404010000000  0.4305540000000  0.4672170000000 1.0
C      1  0.4580570000000  0.5559720000000  0.4700140000000 1.0
C      1  0.5078780000000  0.6172730000000  0.5094640000000 1.0
C      1  0.5368420000000  0.4761670000000  0.4936490000000 1.0
C      1  0.4336610000000  0.4251190000000  0.4991160000000 1.0
C      1  0.4629280000000  0.5726230000000  0.5084210000000 1.0
C      1  0.4924160000000  0.5570590000000  0.4322670000000 1.0
C      1  0.5034100000000  0.5592550000000  0.5289990000000 1.0
C      1  0.4012870000000  0.5313300000000  0.5211150000000 1.0
C      1  0.4947490000000  0.4847990000000  0.5576180000000 1.0
C      1  0.5724640000000  0.4386410000000  0.4920940000000 1.0
C      1  0.4835450000000  0.4210390000000  0.5527930000000 1.0
C      1  0.5559010000000  0.5888480000000  0.5125960000000 1.0
C      1  0.5378150000000  0.4256600000000  0.5479900000000 1.0
C      1  0.5561840000000  0.5279540000000  0.5064830000000 1.0
C      1  0.4609590000000  0.4063260000000  0.4906860000000 1.0
END
