TITL C-2778423-5760-481 -0.00111899459051064 125000 -882.909503496003 0 0 154 (C1) n - 1
REM
REM in /home/nfs/bkarasulu/CARBON/AIRSS/Generating-Clusters/REBO/Only-C1/SD-CG/HFTN-CG
REM
REM
REM
REM
REM
REM ./C.cell (11c1c37f851c82e70ff6c80c92926a4b)
REM
REM compiler GCC version 9.2.1 20190827 (Red Hat 9.2.1-1)
REM options -cpp -mtune=generic -march=x86-64 -g -O0 -fpre-include=/usr/include/finclude/math-vector-fortran.h
REM seed -135182177 643298823 733942664 -2046368288 1855712837 335762325 1578643571 1522631666 837439412 874640008 366748916 -1659612700 73921658 1431010930 988832679 458460983 995871780 -806835242 1376792081 -1266976194 1759669260 -2075247533 -946644962 122039630 -2074528309 568674692 -1054031826 210207324 -80746860 -168493466 1376625319 378585730 -510798543
REM
CELL 1.54180   50.00000   50.00000   50.00000   90.00000   90.00000   90.00000
LATT -1
SFAC C  
C      1  0.4380180000000  0.4952030000000  0.5350570000000 1.0
C      1  0.4225870000000  0.5539130000000  0.5296400000000 1.0
C      1  0.5922800000000  0.5254030000000  0.4698810000000 1.0
C      1  0.5284790000000  0.4679250000000  0.4598880000000 1.0
C      1  0.4514260000000  0.5851460000000  0.4657670000000 1.0
C      1  0.5702520000000  0.5658800000000  0.4739250000000 1.0
C      1  0.5387870000000  0.4571080000000  0.4969000000000 1.0
C      1  0.4187740000000  0.4677390000000  0.5566880000000 1.0
C      1  0.4961500000000  0.4799710000000  0.5446930000000 1.0
C      1  0.5312010000000  0.5024520000000  0.5607170000000 1.0
C      1  0.4948310000000  0.3996130000000  0.4696850000000 1.0
C      1  0.5575390000000  0.5852090000000  0.5065380000000 1.0
C      1  0.4438030000000  0.5260280000000  0.5605390000000 1.0
C      1  0.4387580000000  0.4130070000000  0.5570320000000 1.0
C      1  0.4734050000000  0.5660960000000  0.5628640000000 1.0
C      1  0.4176760000000  0.5186730000000  0.5621280000000 1.0
C      1  0.5359500000000  0.4760860000000  0.5439280000000 1.0
C      1  0.5756980000000  0.4374870000000  0.5216040000000 1.0
C      1  0.4456110000000  0.4961760000000  0.4791470000000 1.0
C      1  0.5813730000000  0.4628410000000  0.5348670000000 1.0
C      1  0.4265130000000  0.4644300000000  0.4640820000000 1.0
C      1  0.4559310000000  0.4618500000000  0.5996620000000 1.0
C      1  0.5496350000000  0.4559960000000  0.5765200000000 1.0
C      1  0.5331910000000  0.5569200000000  0.5860930000000 1.0
C      1  0.5329880000000  0.4877930000000  0.4966040000000 1.0
C      1  0.5370570000000  0.5255470000000  0.4514230000000 1.0
C      1  0.4955650000000  0.5137790000000  0.6002040000000 1.0
C      1  0.5398760000000  0.4054520000000  0.5041130000000 1.0
C      1  0.4389930000000  0.4326210000000  0.4618220000000 1.0
C      1  0.4487990000000  0.5378110000000  0.4665350000000 1.0
C      1  0.4983010000000  0.4303120000000  0.5565960000000 1.0
C      1  0.4103370000000  0.4943680000000  0.4621700000000 1.0
C      1  0.4180450000000  0.4527160000000  0.4945470000000 1.0
C      1  0.4737510000000  0.5981620000000  0.4879640000000 1.0
C      1  0.4726050000000  0.4172290000000  0.5583970000000 1.0
C      1  0.4458450000000  0.4873930000000  0.4474520000000 1.0
C      1  0.4459740000000  0.4419950000000  0.5419320000000 1.0
C      1  0.4926650000000  0.5171510000000  0.5176620000000 1.0
C      1  0.4844830000000  0.4819360000000  0.4390560000000 1.0
C      1  0.5221660000000  0.4926620000000  0.5982560000000 1.0
C      1  0.4150620000000  0.5203880000000  0.3996510000000 1.0
C      1  0.4604080000000  0.4890580000000  0.4177620000000 1.0
C      1  0.4949180000000  0.5254300000000  0.4378160000000 1.0
C      1  0.5486310000000  0.5091690000000  0.5888090000000 1.0
C      1  0.4127360000000  0.5300950000000  0.5156310000000 1.0
C      1  0.5838530000000  0.4691070000000  0.4684690000000 1.0
C      1  0.5415310000000  0.5152070000000  0.5148270000000 1.0
C      1  0.4856880000000  0.4497460000000  0.4341020000000 1.0
C      1  0.4731420000000  0.5112910000000  0.4834140000000 1.0
C      1  0.5851940000000  0.5395070000000  0.5208480000000 1.0
C      1  0.4711690000000  0.4343380000000  0.4516750000000 1.0
C      1  0.5759750000000  0.5317860000000  0.5469460000000 1.0
C      1  0.5543320000000  0.5510530000000  0.5600750000000 1.0
C      1  0.5604820000000  0.4556030000000  0.4568750000000 1.0
C      1  0.5158890000000  0.4576930000000  0.4346360000000 1.0
C      1  0.5355360000000  0.4386130000000  0.4215860000000 1.0
C      1  0.4602950000000  0.5227270000000  0.5837250000000 1.0
C      1  0.4067580000000  0.5075100000000  0.5350520000000 1.0
C      1  0.4832030000000  0.5662640000000  0.4160710000000 1.0
C      1  0.5516230000000  0.4230250000000  0.5378090000000 1.0
C      1  0.5641990000000  0.4193050000000  0.4978530000000 1.0
C      1  0.4485900000000  0.4827920000000  0.5633960000000 1.0
C      1  0.4619790000000  0.4447190000000  0.4830780000000 1.0
C      1  0.4804490000000  0.4948070000000  0.5639620000000 1.0
C      1  0.5945270000000  0.5189660000000  0.5033150000000 1.0
C      1  0.5091240000000  0.4512130000000  0.4829990000000 1.0
C      1  0.4358730000000  0.5204970000000  0.4200400000000 1.0
C      1  0.5605550000000  0.4971740000000  0.5341830000000 1.0
C      1  0.5232320000000  0.4668950000000  0.5867220000000 1.0
C      1  0.5124580000000  0.5529390000000  0.4274100000000 1.0
C      1  0.5377710000000  0.5177180000000  0.4080400000000 1.0
C      1  0.5461980000000  0.4937180000000  0.4289900000000 1.0
C      1  0.4829870000000  0.4655020000000  0.5099340000000 1.0
C      1  0.4236450000000  0.5225730000000  0.4485220000000 1.0
C      1  0.4025570000000  0.4769180000000  0.5356890000000 1.0
C      1  0.5524700000000  0.5938450000000  0.4784600000000 1.0
C      1  0.5681960000000  0.5408720000000  0.4506690000000 1.0
C      1  0.5300120000000  0.5814290000000  0.5220720000000 1.0
C      1  0.5680700000000  0.5008880000000  0.4500640000000 1.0
C      1  0.5341160000000  0.4316390000000  0.4747580000000 1.0
C      1  0.5180630000000  0.5824610000000  0.5754930000000 1.0
C      1  0.5542130000000  0.4635170000000  0.4262160000000 1.0
C      1  0.5377990000000  0.4490930000000  0.5252120000000 1.0
C      1  0.4341150000000  0.4376990000000  0.5108100000000 1.0
C      1  0.5162840000000  0.5240000000000  0.4953060000000 1.0
C      1  0.4521590000000  0.4339590000000  0.5805730000000 1.0
C      1  0.5249990000000  0.5048710000000  0.4690840000000 1.0
C      1  0.4534870000000  0.4711500000000  0.4948520000000 1.0
C      1  0.4480850000000  0.5662100000000  0.5487350000000 1.0
C      1  0.3979510000000  0.4657580000000  0.5098840000000 1.0
C      1  0.5488660000000  0.4280960000000  0.5700560000000 1.0
C      1  0.4940440000000  0.4928680000000  0.4675790000000 1.0
C      1  0.4673000000000  0.4172490000000  0.5027560000000 1.0
C      1  0.5125960000000  0.4981680000000  0.4319140000000 1.0
C      1  0.4864160000000  0.4619180000000  0.4043160000000 1.0
C      1  0.5767750000000  0.4878350000000  0.4873670000000 1.0
C      1  0.5250810000000  0.5973160000000  0.4709810000000 1.0
C      1  0.5195470000000  0.5821070000000  0.4436090000000 1.0
C      1  0.5147660000000  0.4160230000000  0.5231420000000 1.0
C      1  0.5045100000000  0.4829570000000  0.4023770000000 1.0
C      1  0.4550630000000  0.5310690000000  0.5314780000000 1.0
C      1  0.4993380000000  0.4562630000000  0.5770750000000 1.0
C      1  0.5237710000000  0.4124560000000  0.5542940000000 1.0
C      1  0.5364210000000  0.5280860000000  0.5427270000000 1.0
C      1  0.4882400000000  0.5270330000000  0.3944590000000 1.0
C      1  0.4582230000000  0.4062870000000  0.5294600000000 1.0
C      1  0.4707210000000  0.5643950000000  0.4938550000000 1.0
C      1  0.4862250000000  0.5402600000000  0.5795610000000 1.0
C      1  0.4931510000000  0.4357070000000  0.5065430000000 1.0
C      1  0.4754920000000  0.5783160000000  0.5225370000000 1.0
C      1  0.5246550000000  0.5314510000000  0.5965400000000 1.0
C      1  0.5030490000000  0.5166350000000  0.5613460000000 1.0
C      1  0.5057160000000  0.5625930000000  0.4753620000000 1.0
C      1  0.5334670000000  0.5569260000000  0.4610460000000 1.0
C      1  0.6094580000000  0.4603490000000  0.4631870000000 1.0
C      1  0.5507760000000  0.5417690000000  0.4864300000000 1.0
C      1  0.4325040000000  0.5706790000000  0.4854990000000 1.0
C      1  0.5127760000000  0.5116430000000  0.3944460000000 1.0
C      1  0.5773110000000  0.5628380000000  0.5075440000000 1.0
C      1  0.5707620000000  0.5037850000000  0.5655210000000 1.0
C      1  0.4874120000000  0.5382510000000  0.4842860000000 1.0
C      1  0.5013660000000  0.5961740000000  0.5254030000000 1.0
C      1  0.4692160000000  0.4922800000000  0.5960850000000 1.0
C      1  0.5861640000000  0.4887770000000  0.5165870000000 1.0
C      1  0.5979650000000  0.5033300000000  0.4446080000000 1.0
C      1  0.4649770000000  0.5189770000000  0.4063490000000 1.0
C      1  0.5272390000000  0.5603070000000  0.4995280000000 1.0
C      1  0.4940150000000  0.5856480000000  0.5570540000000 1.0
C      1  0.4821410000000  0.5479640000000  0.5283730000000 1.0
C      1  0.5002110000000  0.4881200000000  0.5011170000000 1.0
C      1  0.5095320000000  0.4019660000000  0.4926720000000 1.0
C      1  0.4618970000000  0.5050650000000  0.5142300000000 1.0
C      1  0.4160270000000  0.5461360000000  0.4721250000000 1.0
C      1  0.5371950000000  0.4171250000000  0.4443680000000 1.0
C      1  0.4591780000000  0.4666270000000  0.3939150000000 1.0
C      1  0.5619700000000  0.5149600000000  0.4804940000000 1.0
C      1  0.5103290000000  0.3997110000000  0.4468340000000 1.0
C      1  0.4617230000000  0.4074410000000  0.4704670000000 1.0
C      1  0.5280730000000  0.5667430000000  0.5480140000000 1.0
C      1  0.4861710000000  0.5828250000000  0.4619970000000 1.0
C      1  0.5454330000000  0.5443840000000  0.4250700000000 1.0
C      1  0.4541400000000  0.4682610000000  0.5267590000000 1.0
C      1  0.4472630000000  0.5426980000000  0.5003280000000 1.0
C      1  0.4627520000000  0.5171060000000  0.4454230000000 1.0
C      1  0.5642090000000  0.4234660000000  0.4645280000000 1.0
C      1  0.4587660000000  0.5781800000000  0.4335290000000 1.0
C      1  0.5069160000000  0.5432930000000  0.5443130000000 1.0
C      1  0.5094480000000  0.4547560000000  0.5387190000000 1.0
C      1  0.4190440000000  0.5158610000000  0.4873650000000 1.0
C      1  0.5061740000000  0.6026020000000  0.4922220000000 1.0
C      1  0.4417410000000  0.5784210000000  0.5173050000000 1.0
C      1  0.4782090000000  0.5533760000000  0.4478270000000 1.0
C      1  0.4689790000000  0.4567390000000  0.5626330000000 1.0
C      1  0.5711980000000  0.4705340000000  0.5617820000000 1.0
END
