TITL C-2778437-8639-1343 0.00206680010352449 125000 -872.649458324018 0 0 153 (C1) n - 1
REM
REM in /home/nfs/bkarasulu/CARBON/AIRSS/Generating-Clusters/REBO/Only-C1/SD-CG/HFTN-CG
REM
REM
REM
REM
REM
REM ./C.cell (11c1c37f851c82e70ff6c80c92926a4b)
REM
REM compiler GCC version 9.2.1 20190827 (Red Hat 9.2.1-1)
REM options -cpp -mtune=generic -march=x86-64 -g -O0 -fpre-include=/usr/include/finclude/math-vector-fortran.h
REM seed -1465933290 337324489 -217218642 715762621 -1748446260 2126317292 2077994707 1496569611 -1089452823 -380976898 1178204115 765381361 -859319266 -351782247 -1054166150 744364430 -1079711062 -973695683 -618507390 2072260235 -797570025 -1688875676 1845844660 1232847062 1018657480 -1424012057 -886503595 -1685477367 965117720 1838280645 -466674301 -400939740 -1358014625
REM
CELL 1.54180   50.00000   50.00000   50.00000   90.00000   90.00000   90.00000
LATT -1
SFAC C  
C      1  0.4739990000000  0.5682350000000  0.5610640000000 1.0
C      1  0.4732350000000  0.5208980000000  0.6010730000000 1.0
C      1  0.4664160000000  0.5609530000000  0.4316510000000 1.0
C      1  0.4545250000000  0.5768810000000  0.5413580000000 1.0
C      1  0.4373600000000  0.5867680000000  0.4699400000000 1.0
C      1  0.5275540000000  0.5595920000000  0.4673760000000 1.0
C      1  0.5709760000000  0.4742260000000  0.4309390000000 1.0
C      1  0.4935840000000  0.5584620000000  0.4471700000000 1.0
C      1  0.5705580000000  0.5459350000000  0.4633270000000 1.0
C      1  0.5905470000000  0.5261480000000  0.5398790000000 1.0
C      1  0.4129630000000  0.4432730000000  0.4711050000000 1.0
C      1  0.4593580000000  0.4165610000000  0.5089570000000 1.0
C      1  0.5053720000000  0.4897800000000  0.4967140000000 1.0
C      1  0.4814810000000  0.4059490000000  0.5403970000000 1.0
C      1  0.4660780000000  0.5282780000000  0.4540300000000 1.0
C      1  0.5478040000000  0.4694990000000  0.4724230000000 1.0
C      1  0.5122200000000  0.4384510000000  0.5029770000000 1.0
C      1  0.5005220000000  0.4952040000000  0.5689480000000 1.0
C      1  0.5206070000000  0.5201200000000  0.5427300000000 1.0
C      1  0.4546130000000  0.4395060000000  0.5689180000000 1.0
C      1  0.4712010000000  0.5987780000000  0.4858050000000 1.0
C      1  0.3999040000000  0.4759650000000  0.5307930000000 1.0
C      1  0.5263710000000  0.4865480000000  0.5984740000000 1.0
C      1  0.5762480000000  0.5720790000000  0.4847530000000 1.0
C      1  0.4624860000000  0.4683510000000  0.5974970000000 1.0
C      1  0.5629160000000  0.5105780000000  0.5287710000000 1.0
C      1  0.5045050000000  0.3988000000000  0.4909140000000 1.0
C      1  0.5716730000000  0.4540760000000  0.4547490000000 1.0
C      1  0.5368300000000  0.4150490000000  0.5398650000000 1.0
C      1  0.4702390000000  0.5371970000000  0.5710340000000 1.0
C      1  0.4308350000000  0.4589240000000  0.5626390000000 1.0
C      1  0.4918300000000  0.5706950000000  0.5254800000000 1.0
C      1  0.4676260000000  0.4801750000000  0.4372640000000 1.0
C      1  0.4516280000000  0.4782880000000  0.5187620000000 1.0
C      1  0.4700090000000  0.4696920000000  0.5649460000000 1.0
C      1  0.4525460000000  0.4187000000000  0.5465070000000 1.0
C      1  0.5516360000000  0.5335940000000  0.5472490000000 1.0
C      1  0.5231030000000  0.4284610000000  0.4417130000000 1.0
C      1  0.5323290000000  0.5006460000000  0.5681370000000 1.0
C      1  0.4956260000000  0.4664260000000  0.4414970000000 1.0
C      1  0.5582280000000  0.5286930000000  0.5794650000000 1.0
C      1  0.4971520000000  0.5305620000000  0.4667120000000 1.0
C      1  0.5034330000000  0.5280710000000  0.5708350000000 1.0
C      1  0.5393950000000  0.4694080000000  0.5138860000000 1.0
C      1  0.4926500000000  0.4789880000000  0.5433370000000 1.0
C      1  0.5810390000000  0.5117740000000  0.5643730000000 1.0
C      1  0.5423150000000  0.5617210000000  0.5821640000000 1.0
C      1  0.3912820000000  0.5111930000000  0.4959710000000 1.0
C      1  0.4471340000000  0.5043500000000  0.3985400000000 1.0
C      1  0.5348400000000  0.4168060000000  0.5095090000000 1.0
C      1  0.5590760000000  0.4368200000000  0.5520230000000 1.0
C      1  0.5778410000000  0.4831510000000  0.5637400000000 1.0
C      1  0.4147640000000  0.4519980000000  0.5380300000000 1.0
C      1  0.4953500000000  0.4587210000000  0.4710500000000 1.0
C      1  0.4955450000000  0.5681610000000  0.4779030000000 1.0
C      1  0.5563620000000  0.5040610000000  0.4218520000000 1.0
C      1  0.4317440000000  0.5335090000000  0.5277790000000 1.0
C      1  0.4243750000000  0.5171230000000  0.5011880000000 1.0
C      1  0.4662760000000  0.5868830000000  0.4539810000000 1.0
C      1  0.4441010000000  0.4957650000000  0.5902110000000 1.0
C      1  0.4500360000000  0.4795940000000  0.4665890000000 1.0
C      1  0.5214570000000  0.5288300000000  0.6183440000000 1.0
C      1  0.5091820000000  0.4155170000000  0.5545490000000 1.0
C      1  0.5143120000000  0.5738310000000  0.4306860000000 1.0
C      1  0.5551720000000  0.5759540000000  0.4612020000000 1.0
C      1  0.4306380000000  0.4290010000000  0.5225830000000 1.0
C      1  0.4403870000000  0.5123950000000  0.4649860000000 1.0
C      1  0.4961430000000  0.4905180000000  0.3990600000000 1.0
C      1  0.5267690000000  0.5343650000000  0.5916490000000 1.0
C      1  0.4264530000000  0.5008740000000  0.4159230000000 1.0
C      1  0.5294310000000  0.4493360000000  0.5395350000000 1.0
C      1  0.5814860000000  0.4570380000000  0.5420560000000 1.0
C      1  0.5004970000000  0.4652220000000  0.5171260000000 1.0
C      1  0.5429110000000  0.4487390000000  0.5768630000000 1.0
C      1  0.4704580000000  0.5044440000000  0.5080250000000 1.0
C      1  0.4927380000000  0.5925210000000  0.5094410000000 1.0
C      1  0.5125370000000  0.5336690000000  0.4076260000000 1.0
C      1  0.5267930000000  0.5575540000000  0.4116500000000 1.0
C      1  0.5361120000000  0.5906380000000  0.5050730000000 1.0
C      1  0.5251960000000  0.4486620000000  0.4758010000000 1.0
C      1  0.5855010000000  0.4490830000000  0.5089910000000 1.0
C      1  0.4225260000000  0.4944810000000  0.4421380000000 1.0
C      1  0.5460430000000  0.5412370000000  0.5082700000000 1.0
C      1  0.5726440000000  0.4765650000000  0.4928950000000 1.0
C      1  0.4981830000000  0.4401040000000  0.4219460000000 1.0
C      1  0.5548300000000  0.5546300000000  0.4141100000000 1.0
C      1  0.4413580000000  0.5180840000000  0.5744860000000 1.0
C      1  0.5051770000000  0.4202120000000  0.4681240000000 1.0
C      1  0.5998270000000  0.5201590000000  0.4547940000000 1.0
C      1  0.5800310000000  0.5432510000000  0.5136180000000 1.0
C      1  0.5351290000000  0.4942140000000  0.4581520000000 1.0
C      1  0.4860240000000  0.4645890000000  0.4027900000000 1.0
C      1  0.5156830000000  0.5996150000000  0.4395680000000 1.0
C      1  0.4696220000000  0.4315260000000  0.4357980000000 1.0
C      1  0.4617100000000  0.5285340000000  0.5387010000000 1.0
C      1  0.4723420000000  0.5565950000000  0.4935720000000 1.0
C      1  0.4011830000000  0.4987840000000  0.5493990000000 1.0
C      1  0.4559060000000  0.4666970000000  0.4087740000000 1.0
C      1  0.4377590000000  0.4834210000000  0.5467310000000 1.0
C      1  0.5654270000000  0.5805000000000  0.5094320000000 1.0
C      1  0.4194860000000  0.5708160000000  0.4924040000000 1.0
C      1  0.4835240000000  0.4946420000000  0.5967320000000 1.0
C      1  0.4742310000000  0.4199910000000  0.4602960000000 1.0
C      1  0.4527810000000  0.4161640000000  0.4772600000000 1.0
C      1  0.5961180000000  0.5279850000000  0.4877700000000 1.0
C      1  0.5937130000000  0.4463560000000  0.4776960000000 1.0
C      1  0.4661400000000  0.4997330000000  0.5490500000000 1.0
C      1  0.4857500000000  0.3965320000000  0.5109740000000 1.0
C      1  0.5234230000000  0.5257480000000  0.4879850000000 1.0
C      1  0.4550870000000  0.5797190000000  0.5074660000000 1.0
C      1  0.4752510000000  0.4785610000000  0.4864500000000 1.0
C      1  0.5419440000000  0.4672440000000  0.4174840000000 1.0
C      1  0.4861140000000  0.4395420000000  0.5443090000000 1.0
C      1  0.4235230000000  0.5594790000000  0.4619290000000 1.0
C      1  0.5306810000000  0.5648480000000  0.5207680000000 1.0
C      1  0.5096780000000  0.4472420000000  0.5688840000000 1.0
C      1  0.5355690000000  0.5282920000000  0.4565200000000 1.0
C      1  0.4322460000000  0.4842260000000  0.4950960000000 1.0
C      1  0.5921200000000  0.4950800000000  0.4844600000000 1.0
C      1  0.4797810000000  0.4397200000000  0.4946400000000 1.0
C      1  0.4270540000000  0.4278970000000  0.4887610000000 1.0
C      1  0.5202450000000  0.4823120000000  0.4325870000000 1.0
C      1  0.4747420000000  0.5095290000000  0.3996740000000 1.0
C      1  0.5422140000000  0.5017940000000  0.5032570000000 1.0
C      1  0.5611130000000  0.5334420000000  0.4353390000000 1.0
C      1  0.5659730000000  0.5630200000000  0.5378340000000 1.0
C      1  0.5511910000000  0.4186480000000  0.4797210000000 1.0
C      1  0.4823710000000  0.5339280000000  0.4180230000000 1.0
C      1  0.5012600000000  0.5148820000000  0.5191950000000 1.0
C      1  0.4396960000000  0.5459080000000  0.4435480000000 1.0
C      1  0.5676960000000  0.4806800000000  0.5251980000000 1.0
C      1  0.5198790000000  0.5907690000000  0.4796500000000 1.0
C      1  0.4824100000000  0.5405860000000  0.5197390000000 1.0
C      1  0.4019600000000  0.4842890000000  0.5035130000000 1.0
C      1  0.5023040000000  0.4667680000000  0.5968520000000 1.0
C      1  0.4215890000000  0.5190780000000  0.5539570000000 1.0
C      1  0.5252100000000  0.5043820000000  0.4082280000000 1.0
C      1  0.4812780000000  0.4408500000000  0.5896630000000 1.0
C      1  0.5044290000000  0.4992210000000  0.4651290000000 1.0
C      1  0.4465620000000  0.4471650000000  0.4294970000000 1.0
C      1  0.5870710000000  0.5032480000000  0.4375040000000 1.0
C      1  0.4842620000000  0.5062180000000  0.4383510000000 1.0
C      1  0.4694040000000  0.4549140000000  0.5216190000000 1.0
C      1  0.5035660000000  0.5734840000000  0.5528540000000 1.0
C      1  0.4940760000000  0.6048720000000  0.4623230000000 1.0
C      1  0.4549750000000  0.5273690000000  0.4922160000000 1.0
C      1  0.5627370000000  0.5221410000000  0.4850580000000 1.0
C      1  0.5541360000000  0.4426830000000  0.5027560000000 1.0
C      1  0.5505700000000  0.4290180000000  0.4522240000000 1.0
C      1  0.4266520000000  0.4616350000000  0.4503040000000 1.0
C      1  0.5359320000000  0.5698040000000  0.5532540000000 1.0
C      1  0.4296680000000  0.5634990000000  0.5222140000000 1.0
C      1  0.5527860000000  0.4775610000000  0.5803560000000 1.0
END
