TITL C-2778437-8639-1314 0.00304873510587535 125000 -368.511573998771 0 0 64 (C1) n - 1
REM
REM in /home/nfs/bkarasulu/CARBON/AIRSS/Generating-Clusters/REBO/Only-C1/SD-CG/HFTN-CG
REM
REM
REM
REM
REM
REM ./C.cell (11c1c37f851c82e70ff6c80c92926a4b)
REM
REM compiler GCC version 9.2.1 20190827 (Red Hat 9.2.1-1)
REM options -cpp -mtune=generic -march=x86-64 -g -O0 -fpre-include=/usr/include/finclude/math-vector-fortran.h
REM seed -1569787701 587145169 403390305 -1439382881 -570085687 354744889 136532548 -1764768989 1768727055 1319154282 -1748944958 761955297 13336783 515142342 348514496 -1372920133 -1629467461 436282973 1132741118 -1058789399 -1749297623 1745598109 -1189959759 -1507150159 -1305835199 -1946575172 -1756199217 -711793835 455124138 -932525697 -1476770929 1211112545 -2030268931
REM
CELL 1.54180   50.00000   50.00000   50.00000   90.00000   90.00000   90.00000
LATT -1
SFAC C  
C      1  0.5431980000000  0.5117550000000  0.5633040000000 1.0
C      1  0.4637990000000  0.4372030000000  0.4456180000000 1.0
C      1  0.5270420000000  0.4489320000000  0.5406280000000 1.0
C      1  0.4557870000000  0.5651980000000  0.5728120000000 1.0
C      1  0.4907480000000  0.5326570000000  0.5611530000000 1.0
C      1  0.4172550000000  0.5142000000000  0.4988210000000 1.0
C      1  0.6065290000000  0.5206420000000  0.5208160000000 1.0
C      1  0.4958160000000  0.5233160000000  0.4238070000000 1.0
C      1  0.4939120000000  0.5040910000000  0.5623430000000 1.0
C      1  0.5151280000000  0.5442990000000  0.4325470000000 1.0
C      1  0.5249140000000  0.4482710000000  0.4681250000000 1.0
C      1  0.4277550000000  0.4723260000000  0.5240130000000 1.0
C      1  0.5292430000000  0.4787890000000  0.4826170000000 1.0
C      1  0.4392850000000  0.5308940000000  0.4830340000000 1.0
C      1  0.4511960000000  0.5623610000000  0.4808260000000 1.0
C      1  0.5268060000000  0.4658650000000  0.5632810000000 1.0
C      1  0.4619520000000  0.4922940000000  0.5162530000000 1.0
C      1  0.5809540000000  0.5263490000000  0.5204280000000 1.0
C      1  0.4242100000000  0.4859280000000  0.4991500000000 1.0
C      1  0.4773590000000  0.5138920000000  0.4494160000000 1.0
C      1  0.4501100000000  0.5351880000000  0.5344330000000 1.0
C      1  0.5667910000000  0.4719700000000  0.4707160000000 1.0
C      1  0.4921060000000  0.5434110000000  0.4578870000000 1.0
C      1  0.5469490000000  0.4957440000000  0.4605200000000 1.0
C      1  0.4874600000000  0.4873130000000  0.4634170000000 1.0
C      1  0.5554100000000  0.5236120000000  0.4680440000000 1.0
C      1  0.5820320000000  0.5303930000000  0.4638770000000 1.0
C      1  0.4734520000000  0.4863610000000  0.5549010000000 1.0
C      1  0.4665250000000  0.4365170000000  0.4852970000000 1.0
C      1  0.5675630000000  0.5053680000000  0.5736490000000 1.0
C      1  0.5592400000000  0.4357350000000  0.5033470000000 1.0
C      1  0.4775810000000  0.4415260000000  0.5097370000000 1.0
C      1  0.4505640000000  0.5073730000000  0.4652750000000 1.0
C      1  0.5408260000000  0.5340910000000  0.4951780000000 1.0
C      1  0.5379960000000  0.4934400000000  0.4339900000000 1.0
C      1  0.4926720000000  0.5046960000000  0.5118250000000 1.0
C      1  0.5132260000000  0.4809640000000  0.5060220000000 1.0
C      1  0.4900350000000  0.5558440000000  0.5288050000000 1.0
C      1  0.5208040000000  0.4936850000000  0.5657810000000 1.0
C      1  0.4907660000000  0.5335750000000  0.5059560000000 1.0
C      1  0.5316900000000  0.5432260000000  0.4585030000000 1.0
C      1  0.4949210000000  0.5742240000000  0.5007050000000 1.0
C      1  0.4464490000000  0.4693730000000  0.5449830000000 1.0
C      1  0.5398930000000  0.5334520000000  0.5450160000000 1.0
C      1  0.5548320000000  0.4485200000000  0.4787350000000 1.0
C      1  0.5158300000000  0.5505120000000  0.5488160000000 1.0
C      1  0.4449010000000  0.5073210000000  0.5328050000000 1.0
C      1  0.4774510000000  0.4851350000000  0.4890480000000 1.0
C      1  0.5050220000000  0.4562840000000  0.5217900000000 1.0
C      1  0.5487110000000  0.4358350000000  0.5285020000000 1.0
C      1  0.5107410000000  0.4209770000000  0.4666140000000 1.0
C      1  0.4824540000000  0.4197710000000  0.4647410000000 1.0
C      1  0.4403370000000  0.4816280000000  0.4746920000000 1.0
C      1  0.4992560000000  0.4617600000000  0.4248260000000 1.0
C      1  0.4645800000000  0.5445530000000  0.5574570000000 1.0
C      1  0.4763240000000  0.4584030000000  0.5375870000000 1.0
C      1  0.5535730000000  0.5324590000000  0.5200140000000 1.0
C      1  0.5105950000000  0.5408910000000  0.4852480000000 1.0
C      1  0.5153540000000  0.5775480000000  0.5277320000000 1.0
C      1  0.4760310000000  0.4469430000000  0.4218190000000 1.0
C      1  0.4493730000000  0.4557700000000  0.4674320000000 1.0
C      1  0.5060580000000  0.4698370000000  0.4513320000000 1.0
C      1  0.4809970000000  0.5665360000000  0.4772630000000 1.0
C      1  0.4596290000000  0.5429730000000  0.5066920000000 1.0
END
