TITL C-2778423-5760-186 0.0020309357423154 125000 -1168.255756975 0 0 199 (C1) n - 1
REM
REM in /home/nfs/bkarasulu/CARBON/AIRSS/Generating-Clusters/REBO/Only-C1/SD-CG/HFTN-CG
REM
REM
REM
REM
REM
REM ./C.cell (11c1c37f851c82e70ff6c80c92926a4b)
REM
REM compiler GCC version 9.2.1 20190827 (Red Hat 9.2.1-1)
REM options -cpp -mtune=generic -march=x86-64 -g -O0 -fpre-include=/usr/include/finclude/math-vector-fortran.h
REM seed 196940175 812252168 -633163937 2111066102 1955525694 -1387370778 388070469 -1858398666 -1574485798 -1727925401 70159117 1375118490 -1894641700 -1585822932 -1728312081 -1206769806 1039256861 -1752782443 -1873455272 -741263753 1822059527 1094746590 -1177367163 1372735983 1397288152 -1528756491 -445928371 -1776147156 1477873103 1502749418 638212730 938314878 63047334
REM
CELL 1.54180   50.00000   50.00000   50.00000   90.00000   90.00000   90.00000
LATT -1
SFAC C  
C      1  0.5137070000000  0.4559150000000  0.5991710000000 1.0
C      1  0.5323540000000  0.4544480000000  0.5491260000000 1.0
C      1  0.5501250000000  0.4510340000000  0.4976590000000 1.0
C      1  0.4800950000000  0.4208040000000  0.4242370000000 1.0
C      1  0.4806030000000  0.5578140000000  0.5620590000000 1.0
C      1  0.4423590000000  0.4016020000000  0.5250470000000 1.0
C      1  0.5758630000000  0.4128440000000  0.4989000000000 1.0
C      1  0.5047160000000  0.5039210000000  0.5206650000000 1.0
C      1  0.5904530000000  0.4798110000000  0.4616620000000 1.0
C      1  0.5157990000000  0.4641650000000  0.4419030000000 1.0
C      1  0.4395820000000  0.4188830000000  0.4660100000000 1.0
C      1  0.4492040000000  0.4194080000000  0.5708940000000 1.0
C      1  0.5670580000000  0.4278060000000  0.4542190000000 1.0
C      1  0.4556400000000  0.5035480000000  0.5100680000000 1.0
C      1  0.4935150000000  0.5661950000000  0.5118930000000 1.0
C      1  0.4902050000000  0.5123560000000  0.4834080000000 1.0
C      1  0.4631500000000  0.4642800000000  0.4960160000000 1.0
C      1  0.4550700000000  0.4318490000000  0.4405110000000 1.0
C      1  0.5558530000000  0.4398080000000  0.4260790000000 1.0
C      1  0.5446400000000  0.5367860000000  0.4259240000000 1.0
C      1  0.4781890000000  0.4900040000000  0.5278850000000 1.0
C      1  0.5323660000000  0.5155410000000  0.4029610000000 1.0
C      1  0.4905370000000  0.4699450000000  0.4909480000000 1.0
C      1  0.3973440000000  0.5121570000000  0.5349990000000 1.0
C      1  0.4407450000000  0.4474280000000  0.4937300000000 1.0
C      1  0.4385490000000  0.5059730000000  0.5457540000000 1.0
C      1  0.4219650000000  0.4256010000000  0.5593970000000 1.0
C      1  0.5292020000000  0.3941200000000  0.4742320000000 1.0
C      1  0.5038680000000  0.4318080000000  0.4024860000000 1.0
C      1  0.5517660000000  0.4896940000000  0.5995780000000 1.0
C      1  0.4889810000000  0.4031410000000  0.5312320000000 1.0
C      1  0.5269090000000  0.5039290000000  0.6054850000000 1.0
C      1  0.4663230000000  0.5872450000000  0.4734680000000 1.0
C      1  0.4989780000000  0.5465390000000  0.4265260000000 1.0
C      1  0.5515950000000  0.5897040000000  0.4793540000000 1.0
C      1  0.4849340000000  0.5967620000000  0.4289310000000 1.0
C      1  0.4248820000000  0.5707390000000  0.5549260000000 1.0
C      1  0.5480010000000  0.5712990000000  0.5860440000000 1.0
C      1  0.6287450000000  0.5052570000000  0.5144830000000 1.0
C      1  0.5521330000000  0.5067470000000  0.4401290000000 1.0
C      1  0.4990930000000  0.4814450000000  0.4599220000000 1.0
C      1  0.4304050000000  0.4875080000000  0.5706880000000 1.0
C      1  0.4162570000000  0.5522000000000  0.5164460000000 1.0
C      1  0.5706650000000  0.5484180000000  0.5888680000000 1.0
C      1  0.5063790000000  0.5663850000000  0.5402620000000 1.0
C      1  0.4541920000000  0.4644290000000  0.6022360000000 1.0
C      1  0.4882880000000  0.5891460000000  0.5706080000000 1.0
C      1  0.5382430000000  0.4748600000000  0.4002930000000 1.0
C      1  0.4957410000000  0.4574330000000  0.3907650000000 1.0
C      1  0.4300890000000  0.5129720000000  0.4560920000000 1.0
C      1  0.5745270000000  0.4744860000000  0.4325830000000 1.0
C      1  0.5207000000000  0.4366340000000  0.4567920000000 1.0
C      1  0.4941360000000  0.4310200000000  0.4775450000000 1.0
C      1  0.5263820000000  0.5391160000000  0.5440150000000 1.0
C      1  0.4675330000000  0.4830130000000  0.4611550000000 1.0
C      1  0.4466570000000  0.5580650000000  0.4315030000000 1.0
C      1  0.5858770000000  0.5100580000000  0.4466050000000 1.0
C      1  0.5878560000000  0.5429980000000  0.4558700000000 1.0
C      1  0.5363230000000  0.5931650000000  0.5101860000000 1.0
C      1  0.4244980000000  0.5413610000000  0.5665710000000 1.0
C      1  0.5122030000000  0.5716440000000  0.4073790000000 1.0
C      1  0.5914770000000  0.4372490000000  0.4939160000000 1.0
C      1  0.5512270000000  0.4206360000000  0.5611690000000 1.0
C      1  0.5909200000000  0.4570330000000  0.5129460000000 1.0
C      1  0.4555110000000  0.5903680000000  0.5385630000000 1.0
C      1  0.4955550000000  0.4277360000000  0.5085300000000 1.0
C      1  0.4456170000000  0.4553080000000  0.5327610000000 1.0
C      1  0.4421340000000  0.4533280000000  0.4235220000000 1.0
C      1  0.4987890000000  0.5338260000000  0.5159540000000 1.0
C      1  0.4024370000000  0.4868530000000  0.5514590000000 1.0
C      1  0.5195950000000  0.5864570000000  0.5749660000000 1.0
C      1  0.5563860000000  0.5349830000000  0.4986200000000 1.0
C      1  0.6018330000000  0.5068500000000  0.5353910000000 1.0
C      1  0.4810170000000  0.6246220000000  0.4817070000000 1.0
C      1  0.5205230000000  0.5640350000000  0.6008790000000 1.0
C      1  0.5952250000000  0.5698830000000  0.4964720000000 1.0
C      1  0.4096490000000  0.4796550000000  0.5048180000000 1.0
C      1  0.4103960000000  0.4547730000000  0.5606800000000 1.0
C      1  0.5514390000000  0.4494540000000  0.4013840000000 1.0
C      1  0.4655800000000  0.4338470000000  0.5215890000000 1.0
C      1  0.5830310000000  0.4604780000000  0.5435130000000 1.0
C      1  0.4856080000000  0.4994730000000  0.4192620000000 1.0
C      1  0.4557150000000  0.5313200000000  0.4488310000000 1.0
C      1  0.5612950000000  0.4043880000000  0.4735860000000 1.0
C      1  0.4976820000000  0.4241080000000  0.5660660000000 1.0
C      1  0.4759750000000  0.4479890000000  0.5576620000000 1.0
C      1  0.4286720000000  0.5137450000000  0.4105710000000 1.0
C      1  0.5596940000000  0.4439810000000  0.5759630000000 1.0
C      1  0.5624720000000  0.5652050000000  0.5008230000000 1.0
C      1  0.5452380000000  0.5628860000000  0.5553790000000 1.0
C      1  0.4632050000000  0.4031600000000  0.5466680000000 1.0
C      1  0.4616390000000  0.4375200000000  0.5934560000000 1.0
C      1  0.5654450000000  0.5120450000000  0.4029470000000 1.0
C      1  0.5455300000000  0.4610600000000  0.5968110000000 1.0
C      1  0.4766500000000  0.4926710000000  0.3901400000000 1.0
C      1  0.4770180000000  0.4878630000000  0.5935370000000 1.0
C      1  0.4010820000000  0.4607450000000  0.5294950000000 1.0
C      1  0.4191340000000  0.4159550000000  0.5324270000000 1.0
C      1  0.4927310000000  0.5465610000000  0.6077500000000 1.0
C      1  0.5527840000000  0.5260990000000  0.5704770000000 1.0
C      1  0.5357850000000  0.4765940000000  0.5244550000000 1.0
C      1  0.4220710000000  0.4680330000000  0.4450490000000 1.0
C      1  0.5565920000000  0.5006760000000  0.4717430000000 1.0
C      1  0.5045020000000  0.6193000000000  0.4764280000000 1.0
C      1  0.5009890000000  0.4023550000000  0.4605520000000 1.0
C      1  0.5796190000000  0.4991840000000  0.5823610000000 1.0
C      1  0.4662240000000  0.5790420000000  0.4154490000000 1.0
C      1  0.4856220000000  0.4548930000000  0.4292660000000 1.0
C      1  0.5190550000000  0.5948030000000  0.4310820000000 1.0
C      1  0.5451210000000  0.5009260000000  0.5546720000000 1.0
C      1  0.4094020000000  0.5369850000000  0.5401710000000 1.0
C      1  0.4181720000000  0.5828690000000  0.5048090000000 1.0
C      1  0.3951220000000  0.5182720000000  0.4812010000000 1.0
C      1  0.4123270000000  0.4380260000000  0.5104430000000 1.0
C      1  0.5714370000000  0.5455420000000  0.5494200000000 1.0
C      1  0.4384170000000  0.4865210000000  0.4234300000000 1.0
C      1  0.4475010000000  0.4973460000000  0.4802040000000 1.0
C      1  0.5138220000000  0.4790400000000  0.3862830000000 1.0
C      1  0.5160470000000  0.4908330000000  0.5485600000000 1.0
C      1  0.4087190000000  0.5107710000000  0.4341880000000 1.0
C      1  0.4693020000000  0.4029160000000  0.4639890000000 1.0
C      1  0.5018820000000  0.3789070000000  0.5230070000000 1.0
C      1  0.5115190000000  0.4636950000000  0.5669590000000 1.0
C      1  0.5142200000000  0.5111770000000  0.4591010000000 1.0
C      1  0.5090100000000  0.5168420000000  0.4274530000000 1.0
C      1  0.4469070000000  0.5263660000000  0.5810310000000 1.0
C      1  0.5625880000000  0.4758500000000  0.5639310000000 1.0
C      1  0.5622810000000  0.4121270000000  0.5301620000000 1.0
C      1  0.4676260000000  0.5645640000000  0.4954780000000 1.0
C      1  0.4831600000000  0.5652760000000  0.3954020000000 1.0
C      1  0.5157570000000  0.4916780000000  0.4939860000000 1.0
C      1  0.4762790000000  0.4818820000000  0.5611760000000 1.0
C      1  0.5234710000000  0.4146060000000  0.5630220000000 1.0
C      1  0.4128480000000  0.5412800000000  0.4774670000000 1.0
C      1  0.4660860000000  0.4655340000000  0.4037380000000 1.0
C      1  0.5892270000000  0.4475570000000  0.4673540000000 1.0
C      1  0.4451610000000  0.4971100000000  0.5967210000000 1.0
C      1  0.4703090000000  0.6044040000000  0.5565680000000 1.0
C      1  0.4904870000000  0.4352810000000  0.5926100000000 1.0
C      1  0.5752410000000  0.4871020000000  0.4091010000000 1.0
C      1  0.5045490000000  0.4856310000000  0.6044870000000 1.0
C      1  0.5341630000000  0.5576890000000  0.4639910000000 1.0
C      1  0.4488510000000  0.5322000000000  0.5279210000000 1.0
C      1  0.4906310000000  0.5868590000000  0.4577050000000 1.0
C      1  0.5769290000000  0.5342990000000  0.4251880000000 1.0
C      1  0.5358630000000  0.4834010000000  0.4278090000000 1.0
C      1  0.5920810000000  0.5286910000000  0.5707080000000 1.0
C      1  0.5200670000000  0.5305140000000  0.6065630000000 1.0
C      1  0.4850880000000  0.4599690000000  0.5291770000000 1.0
C      1  0.5534140000000  0.4592570000000  0.4544180000000 1.0
C      1  0.4510000000000  0.4146760000000  0.4975020000000 1.0
C      1  0.5237230000000  0.5933320000000  0.5418110000000 1.0
C      1  0.4350050000000  0.4814750000000  0.5229190000000 1.0
C      1  0.4940200000000  0.5296060000000  0.5491870000000 1.0
C      1  0.4441610000000  0.4583520000000  0.5642910000000 1.0
C      1  0.5652150000000  0.4785760000000  0.5121030000000 1.0
C      1  0.5038660000000  0.5117130000000  0.3862140000000 1.0
C      1  0.4692690000000  0.5138490000000  0.5585510000000 1.0
C      1  0.3929340000000  0.4595130000000  0.4591300000000 1.0
C      1  0.4509750000000  0.6140490000000  0.4859380000000 1.0
C      1  0.6095700000000  0.5391170000000  0.5429900000000 1.0
C      1  0.5183560000000  0.5716100000000  0.4909320000000 1.0
C      1  0.5792990000000  0.5742040000000  0.4665050000000 1.0
C      1  0.3946620000000  0.5061710000000  0.5072310000000 1.0
C      1  0.5772150000000  0.5066170000000  0.5174910000000 1.0
C      1  0.6166180000000  0.5334490000000  0.5100080000000 1.0
C      1  0.5897960000000  0.5362490000000  0.4892720000000 1.0
C      1  0.5342800000000  0.5642930000000  0.4321100000000 1.0
C      1  0.5903020000000  0.5638550000000  0.5292270000000 1.0
C      1  0.4386300000000  0.5372370000000  0.4971580000000 1.0
C      1  0.3951100000000  0.4938990000000  0.4585270000000 1.0
C      1  0.4110460000000  0.5859970000000  0.5370650000000 1.0
C      1  0.4646720000000  0.5346160000000  0.4793990000000 1.0
C      1  0.4497470000000  0.5333020000000  0.4093520000000 1.0
C      1  0.5019530000000  0.5586820000000  0.4548740000000 1.0
C      1  0.5393650000000  0.5278950000000  0.4715880000000 1.0
C      1  0.5590520000000  0.5784190000000  0.5309630000000 1.0
C      1  0.5244580000000  0.5997590000000  0.4632100000000 1.0
C      1  0.5405200000000  0.4769020000000  0.4805690000000 1.0
C      1  0.4249500000000  0.5620160000000  0.4574260000000 1.0
C      1  0.4495160000000  0.5897450000000  0.5094320000000 1.0
C      1  0.4534490000000  0.5575400000000  0.5442770000000 1.0
C      1  0.4744510000000  0.4496610000000  0.4606140000000 1.0
C      1  0.5379760000000  0.4075340000000  0.5099300000000 1.0
C      1  0.5489710000000  0.5211360000000  0.5273380000000 1.0
C      1  0.4320130000000  0.5874950000000  0.4739320000000 1.0
C      1  0.5985520000000  0.4867600000000  0.5569700000000 1.0
C      1  0.4811230000000  0.5335580000000  0.3992380000000 1.0
C      1  0.5122760000000  0.4163930000000  0.4318080000000 1.0
C      1  0.5231540000000  0.3820120000000  0.5048520000000 1.0
C      1  0.5571920000000  0.4435460000000  0.5292210000000 1.0
C      1  0.5036300000000  0.5414520000000  0.4830180000000 1.0
C      1  0.5329540000000  0.4285980000000  0.4868160000000 1.0
C      1  0.4208350000000  0.4805230000000  0.4768290000000 1.0
C      1  0.4717740000000  0.5448500000000  0.5892720000000 1.0
C      1  0.5841950000000  0.5027780000000  0.4857460000000 1.0
C      1  0.4625010000000  0.5002270000000  0.4369510000000 1.0
C      1  0.5130390000000  0.4566130000000  0.5129620000000 1.0
C      1  0.4131340000000  0.4380560000000  0.4761940000000 1.0
END
