TITL C-2778424-3986-605 0.000724453955344916 125000 -757.737717408066 0 0 133 (C1) n - 1
REM
REM in /home/nfs/bkarasulu/CARBON/AIRSS/Generating-Clusters/REBO/Only-C1/SD-CG/HFTN-CG
REM
REM
REM
REM
REM
REM ./C.cell (11c1c37f851c82e70ff6c80c92926a4b)
REM
REM compiler GCC version 9.2.1 20190827 (Red Hat 9.2.1-1)
REM options -cpp -mtune=generic -march=x86-64 -g -O0 -fpre-include=/usr/include/finclude/math-vector-fortran.h
REM seed -1453637948 -1987140229 2014235309 1019539290 86290579 50518690 -2136245208 -1710006564 -1923222644 30443691 -804654605 1102707723 1098596120 -1788501228 -25242292 -1211194050 -1105903394 -503412578 71236597 -633869288 1936860888 1510507181 -716251657 -108464499 -521541113 -1997077713 -184094764 -1122270366 -2012150452 441785841 1775818263 2067723690 1420149609
REM
CELL 1.54180   50.00000   50.00000   50.00000   90.00000   90.00000   90.00000
LATT -1
SFAC C  
C      1  0.4983320000000  0.5131970000000  0.5224980000000 1.0
C      1  0.4915920000000  0.5501420000000  0.4379110000000 1.0
C      1  0.3998400000000  0.5109250000000  0.4883530000000 1.0
C      1  0.5564940000000  0.5454030000000  0.5529480000000 1.0
C      1  0.5064740000000  0.4514720000000  0.4823470000000 1.0
C      1  0.4931120000000  0.5628340000000  0.5269450000000 1.0
C      1  0.5034370000000  0.4883960000000  0.5908210000000 1.0
C      1  0.4667680000000  0.4180990000000  0.5511840000000 1.0
C      1  0.4371100000000  0.4589310000000  0.5446920000000 1.0
C      1  0.4262590000000  0.5203730000000  0.4787560000000 1.0
C      1  0.4271730000000  0.4933760000000  0.4492350000000 1.0
C      1  0.4501850000000  0.4404990000000  0.5637310000000 1.0
C      1  0.3927980000000  0.4820330000000  0.4832930000000 1.0
C      1  0.5621480000000  0.4343450000000  0.5455970000000 1.0
C      1  0.4642500000000  0.5582080000000  0.5091700000000 1.0
C      1  0.3886860000000  0.5294060000000  0.5085430000000 1.0
C      1  0.5256710000000  0.5354190000000  0.5759520000000 1.0
C      1  0.4279090000000  0.5526480000000  0.4689990000000 1.0
C      1  0.5052540000000  0.4183810000000  0.4880580000000 1.0
C      1  0.5510030000000  0.4676870000000  0.4863390000000 1.0
C      1  0.4992670000000  0.5400560000000  0.5074780000000 1.0
C      1  0.5814570000000  0.4633090000000  0.4745970000000 1.0
C      1  0.4965270000000  0.5967960000000  0.4647520000000 1.0
C      1  0.4578540000000  0.4554630000000  0.4667840000000 1.0
C      1  0.5972430000000  0.5176660000000  0.4563050000000 1.0
C      1  0.5398290000000  0.4244720000000  0.4534430000000 1.0
C      1  0.4846080000000  0.5658670000000  0.4739350000000 1.0
C      1  0.4768120000000  0.4799500000000  0.5865620000000 1.0
C      1  0.5696050000000  0.5189200000000  0.4853890000000 1.0
C      1  0.4294530000000  0.4896110000000  0.5573210000000 1.0
C      1  0.5713270000000  0.5153070000000  0.4363890000000 1.0
C      1  0.4728950000000  0.4207760000000  0.5214430000000 1.0
C      1  0.4397610000000  0.4423720000000  0.4832590000000 1.0
C      1  0.4918320000000  0.5384760000000  0.5770240000000 1.0
C      1  0.5578200000000  0.5144400000000  0.5409790000000 1.0
C      1  0.4593240000000  0.5570100000000  0.4447630000000 1.0
C      1  0.5302690000000  0.5912170000000  0.4627810000000 1.0
C      1  0.5266610000000  0.5082620000000  0.5955140000000 1.0
C      1  0.5118250000000  0.4196380000000  0.4587840000000 1.0
C      1  0.5088220000000  0.5749540000000  0.4417260000000 1.0
C      1  0.4719810000000  0.4520680000000  0.5840020000000 1.0
C      1  0.5684520000000  0.5693910000000  0.4681450000000 1.0
C      1  0.5402120000000  0.4737890000000  0.4241680000000 1.0
C      1  0.4818040000000  0.4955990000000  0.4047560000000 1.0
C      1  0.4562780000000  0.5758640000000  0.5354630000000 1.0
C      1  0.4464010000000  0.4874190000000  0.5280700000000 1.0
C      1  0.4889370000000  0.4325280000000  0.5661110000000 1.0
C      1  0.5371780000000  0.5373430000000  0.4980250000000 1.0
C      1  0.5871210000000  0.5041430000000  0.5313840000000 1.0
C      1  0.4664380000000  0.5626120000000  0.5584950000000 1.0
C      1  0.5463220000000  0.5927570000000  0.4917150000000 1.0
C      1  0.5801800000000  0.4392170000000  0.4980350000000 1.0
C      1  0.5560520000000  0.4244280000000  0.4780480000000 1.0
C      1  0.5155870000000  0.5684740000000  0.4850760000000 1.0
C      1  0.4316150000000  0.4545060000000  0.5113400000000 1.0
C      1  0.5124980000000  0.4644470000000  0.4547860000000 1.0
C      1  0.4903640000000  0.5274440000000  0.4133290000000 1.0
C      1  0.4768470000000  0.4781710000000  0.5366910000000 1.0
C      1  0.4926450000000  0.4324530000000  0.4413670000000 1.0
C      1  0.5832590000000  0.5456200000000  0.5022160000000 1.0
C      1  0.4563480000000  0.4043280000000  0.5051510000000 1.0
C      1  0.4717820000000  0.4829870000000  0.4704910000000 1.0
C      1  0.5103720000000  0.4387470000000  0.5474180000000 1.0
C      1  0.4523490000000  0.5720400000000  0.4738230000000 1.0
C      1  0.4059450000000  0.4472500000000  0.4513520000000 1.0
C      1  0.4961350000000  0.6043520000000  0.4962310000000 1.0
C      1  0.5792200000000  0.5427690000000  0.4627400000000 1.0
C      1  0.5392580000000  0.4806060000000  0.5256670000000 1.0
C      1  0.5357400000000  0.4857920000000  0.4618450000000 1.0
C      1  0.4888630000000  0.4851870000000  0.4425620000000 1.0
C      1  0.4233000000000  0.5384570000000  0.5257890000000 1.0
C      1  0.5140900000000  0.5422310000000  0.5445250000000 1.0
C      1  0.4010490000000  0.4967880000000  0.5484430000000 1.0
C      1  0.5212890000000  0.5191750000000  0.4734450000000 1.0
C      1  0.5063020000000  0.4764590000000  0.5349660000000 1.0
C      1  0.4854310000000  0.4711030000000  0.4982600000000 1.0
C      1  0.6009130000000  0.5211760000000  0.5097500000000 1.0
C      1  0.5582210000000  0.4160550000000  0.5105710000000 1.0
C      1  0.6077000000000  0.5076200000000  0.4819330000000 1.0
C      1  0.5559810000000  0.4483710000000  0.5743850000000 1.0
C      1  0.4636110000000  0.5287890000000  0.5622110000000 1.0
C      1  0.5637350000000  0.4709350000000  0.4487890000000 1.0
C      1  0.5556840000000  0.5192590000000  0.5806220000000 1.0
C      1  0.5768230000000  0.5785340000000  0.4977160000000 1.0
C      1  0.5707850000000  0.4780940000000  0.5194990000000 1.0
C      1  0.5374780000000  0.4558530000000  0.5484200000000 1.0
C      1  0.5461300000000  0.4926540000000  0.5630000000000 1.0
C      1  0.4660180000000  0.4454120000000  0.4410950000000 1.0
C      1  0.4452860000000  0.5345820000000  0.5000160000000 1.0
C      1  0.3968620000000  0.5225110000000  0.5376580000000 1.0
C      1  0.5438760000000  0.5277520000000  0.4517360000000 1.0
C      1  0.5474320000000  0.4445560000000  0.4355400000000 1.0
C      1  0.4190450000000  0.4297800000000  0.4684280000000 1.0
C      1  0.5413130000000  0.5535050000000  0.4694450000000 1.0
C      1  0.4956710000000  0.5704400000000  0.5659820000000 1.0
C      1  0.5449240000000  0.5669430000000  0.5393330000000 1.0
C      1  0.5313030000000  0.5233490000000  0.5244220000000 1.0
C      1  0.4926850000000  0.5338910000000  0.4668090000000 1.0
C      1  0.5340030000000  0.4194530000000  0.5323310000000 1.0
C      1  0.4627520000000  0.4947570000000  0.5634410000000 1.0
C      1  0.4486420000000  0.5869840000000  0.5041670000000 1.0
C      1  0.4926710000000  0.4647050000000  0.4045160000000 1.0
C      1  0.3911040000000  0.4753630000000  0.5322130000000 1.0
C      1  0.4997710000000  0.5131500000000  0.5552970000000 1.0
C      1  0.4684020000000  0.5151470000000  0.5104720000000 1.0
C      1  0.5164660000000  0.5817690000000  0.5429120000000 1.0
C      1  0.5080230000000  0.4506030000000  0.4234240000000 1.0
C      1  0.5189170000000  0.5144970000000  0.4121130000000 1.0
C      1  0.4627570000000  0.4693470000000  0.4171610000000 1.0
C      1  0.5182360000000  0.4879830000000  0.5622390000000 1.0
C      1  0.3649090000000  0.4779730000000  0.4799080000000 1.0
C      1  0.5042370000000  0.4129890000000  0.5169650000000 1.0
C      1  0.5489190000000  0.5643910000000  0.5097470000000 1.0
C      1  0.5170100000000  0.4894290000000  0.4240350000000 1.0
C      1  0.4844750000000  0.5087500000000  0.4849300000000 1.0
C      1  0.5836190000000  0.4506380000000  0.5299750000000 1.0
C      1  0.5958700000000  0.4761460000000  0.5494780000000 1.0
C      1  0.5786580000000  0.4960190000000  0.5695610000000 1.0
C      1  0.4094170000000  0.5514880000000  0.4972210000000 1.0
C      1  0.4082450000000  0.4748660000000  0.4578330000000 1.0
C      1  0.5839310000000  0.4890070000000  0.4932720000000 1.0
C      1  0.5436610000000  0.5255300000000  0.4195940000000 1.0
C      1  0.5451920000000  0.4981790000000  0.4968800000000 1.0
C      1  0.5184410000000  0.5901590000000  0.5112900000000 1.0
C      1  0.4651750000000  0.4530800000000  0.5168810000000 1.0
C      1  0.4340240000000  0.5266700000000  0.4475300000000 1.0
C      1  0.4031910000000  0.4673450000000  0.5086720000000 1.0
C      1  0.5119840000000  0.4919640000000  0.4920870000000 1.0
C      1  0.4474180000000  0.5197890000000  0.5366030000000 1.0
C      1  0.4604420000000  0.5274950000000  0.4280180000000 1.0
C      1  0.5148390000000  0.4509680000000  0.5158090000000 1.0
C      1  0.4570700000000  0.4962440000000  0.4358640000000 1.0
C      1  0.5407210000000  0.4441830000000  0.5016730000000 1.0
END
