TITL C-2778422-5617-606 0.00116629777542803 125000 -285.316056476995 0 0 52 (C1) n - 1
REM
REM in /home/nfs/bkarasulu/CARBON/AIRSS/Generating-Clusters/REBO/Only-C1/SD-CG/HFTN-CG
REM
REM
REM
REM
REM
REM ./C.cell (11c1c37f851c82e70ff6c80c92926a4b)
REM
REM compiler GCC version 9.2.1 20190827 (Red Hat 9.2.1-1)
REM options -cpp -mtune=generic -march=x86-64 -g -O0 -fpre-include=/usr/include/finclude/math-vector-fortran.h
REM seed 971295416 1210912518 -1618526263 -1625051602 1016912676 322546781 574698594 -184680247 1532076981 1103038704 1786891206 -99484616 -267740163 -191116373 -1242700938 128196152 -1742945436 1648428971 1092073212 238446796 489682801 -418610366 -1111984278 2084399056 1703111600 -621187951 -635302104 1124403926 1154708500 449382716 -1803755975 1796288003 -705858447
REM
CELL 1.54180   50.00000   50.00000   50.00000   90.00000   90.00000   90.00000
LATT -1
SFAC C  
C      1  0.4779940000000  0.5201780000000  0.6111000000000 1.0
C      1  0.5180770000000  0.4977430000000  0.5274390000000 1.0
C      1  0.5601740000000  0.5113670000000  0.5203750000000 1.0
C      1  0.4892320000000  0.4733250000000  0.4593330000000 1.0
C      1  0.4564540000000  0.4686670000000  0.5327140000000 1.0
C      1  0.5020900000000  0.5267940000000  0.4410360000000 1.0
C      1  0.4837780000000  0.5699580000000  0.4655330000000 1.0
C      1  0.5066750000000  0.5372670000000  0.4679980000000 1.0
C      1  0.4933680000000  0.4964350000000  0.5420630000000 1.0
C      1  0.4699030000000  0.5118270000000  0.5563770000000 1.0
C      1  0.5599420000000  0.4611940000000  0.5052010000000 1.0
C      1  0.5603540000000  0.4769370000000  0.4820320000000 1.0
C      1  0.5484160000000  0.5371190000000  0.5363690000000 1.0
C      1  0.5369360000000  0.5380000000000  0.4734060000000 1.0
C      1  0.4725720000000  0.5090050000000  0.4959010000000 1.0
C      1  0.4859770000000  0.4689290000000  0.5358450000000 1.0
C      1  0.5430400000000  0.4992690000000  0.4812360000000 1.0
C      1  0.5361790000000  0.4531580000000  0.4394910000000 1.0
C      1  0.4453160000000  0.4898410000000  0.5485390000000 1.0
C      1  0.5400260000000  0.4422800000000  0.5065120000000 1.0
C      1  0.4357350000000  0.4864770000000  0.4980570000000 1.0
C      1  0.4363520000000  0.5152710000000  0.5351350000000 1.0
C      1  0.4743030000000  0.5163690000000  0.5861380000000 1.0
C      1  0.5210380000000  0.5055980000000  0.5001180000000 1.0
C      1  0.4669880000000  0.4774880000000  0.5017090000000 1.0
C      1  0.5635640000000  0.4810880000000  0.5296990000000 1.0
C      1  0.4788000000000  0.5633370000000  0.5406250000000 1.0
C      1  0.4864660000000  0.5697660000000  0.4931870000000 1.0
C      1  0.4316070000000  0.5122310000000  0.5073200000000 1.0
C      1  0.5326810000000  0.4729810000000  0.5318630000000 1.0
C      1  0.4676910000000  0.5000200000000  0.4567000000000 1.0
C      1  0.4580640000000  0.5381190000000  0.5408790000000 1.0
C      1  0.5826520000000  0.4756770000000  0.5490080000000 1.0
C      1  0.5567710000000  0.4407410000000  0.4514640000000 1.0
C      1  0.4497720000000  0.5321770000000  0.4921140000000 1.0
C      1  0.4991070000000  0.4221260000000  0.5248480000000 1.0
C      1  0.4606670000000  0.5267060000000  0.4622330000000 1.0
C      1  0.4926660000000  0.4638030000000  0.4901670000000 1.0
C      1  0.5249660000000  0.5536950000000  0.5221780000000 1.0
C      1  0.4981070000000  0.5186150000000  0.4889800000000 1.0
C      1  0.4911600000000  0.3985790000000  0.5306460000000 1.0
C      1  0.5003620000000  0.5656410000000  0.5195740000000 1.0
C      1  0.4713230000000  0.5503330000000  0.4507360000000 1.0
C      1  0.4521200000000  0.4769820000000  0.4451380000000 1.0
C      1  0.5461660000000  0.5365810000000  0.5018250000000 1.0
C      1  0.5435850000000  0.5139680000000  0.4547770000000 1.0
C      1  0.5218630000000  0.5059410000000  0.4369970000000 1.0
C      1  0.5166670000000  0.4557920000000  0.4148340000000 1.0
C      1  0.5091590000000  0.4519100000000  0.5175130000000 1.0
C      1  0.4631760000000  0.5537700000000  0.5110010000000 1.0
C      1  0.5129120000000  0.4774010000000  0.4408530000000 1.0
C      1  0.4670080000000  0.4515250000000  0.4451850000000 1.0
END
