TITL C-2778429-3646-1342 -0.00151695203062872 125000 -473.144885813793 0 0 83 (C1) n - 1
REM
REM in /home/nfs/bkarasulu/CARBON/AIRSS/Generating-Clusters/REBO/Only-C1/SD-CG/HFTN-CG
REM
REM
REM
REM
REM
REM ./C.cell (11c1c37f851c82e70ff6c80c92926a4b)
REM
REM compiler GCC version 9.2.1 20190827 (Red Hat 9.2.1-1)
REM options -cpp -mtune=generic -march=x86-64 -g -O0 -fpre-include=/usr/include/finclude/math-vector-fortran.h
REM seed -716818057 2076311612 84829413 -1696456168 -1003999763 -423004078 -842575446 -487318303 795978051 1774692368 -1356715324 -1161258690 1523754538 2128985006 -679729371 1780724830 899020259 -1351252183 1230263608 -324916508 -851058917 1461333417 -1767528655 469137841 -1793319856 -1237596269 -1063701538 -878874698 432897941 -425643598 1558911476 -710823831 371489873
REM
CELL 1.54180   50.00000   50.00000   50.00000   90.00000   90.00000   90.00000
LATT -1
SFAC C  
C      1  0.5084930000000  0.4961640000000  0.4292400000000 1.0
C      1  0.4694650000000  0.4892090000000  0.4074330000000 1.0
C      1  0.5638980000000  0.5139030000000  0.5682460000000 1.0
C      1  0.4916450000000  0.5294300000000  0.4436150000000 1.0
C      1  0.4851740000000  0.4318950000000  0.5620080000000 1.0
C      1  0.4722900000000  0.4793470000000  0.5664960000000 1.0
C      1  0.5474920000000  0.4346080000000  0.4647770000000 1.0
C      1  0.5204940000000  0.4256370000000  0.4723660000000 1.0
C      1  0.4341010000000  0.5288490000000  0.4464200000000 1.0
C      1  0.5380710000000  0.5606660000000  0.4574540000000 1.0
C      1  0.4522770000000  0.4359920000000  0.4574430000000 1.0
C      1  0.4053250000000  0.5039570000000  0.4960230000000 1.0
C      1  0.4860990000000  0.4669130000000  0.4042280000000 1.0
C      1  0.4986520000000  0.5011590000000  0.4613250000000 1.0
C      1  0.5203440000000  0.4602590000000  0.5863760000000 1.0
C      1  0.4767220000000  0.5181220000000  0.4195130000000 1.0
C      1  0.4626260000000  0.4505760000000  0.5150550000000 1.0
C      1  0.4298260000000  0.5141670000000  0.4752620000000 1.0
C      1  0.4677240000000  0.3948000000000  0.4868020000000 1.0
C      1  0.4820920000000  0.4280240000000  0.5314620000000 1.0
C      1  0.4619050000000  0.4180990000000  0.5079270000000 1.0
C      1  0.5717480000000  0.5189160000000  0.4473530000000 1.0
C      1  0.5408700000000  0.5292420000000  0.5766160000000 1.0
C      1  0.5586070000000  0.5331880000000  0.4939200000000 1.0
C      1  0.4847810000000  0.5637850000000  0.4776460000000 1.0
C      1  0.4069910000000  0.6237420000000  0.4402990000000 1.0
C      1  0.4748950000000  0.5303860000000  0.5110920000000 1.0
C      1  0.5238030000000  0.6096380000000  0.5190650000000 1.0
C      1  0.5535780000000  0.4869080000000  0.4626060000000 1.0
C      1  0.5225610000000  0.5030050000000  0.4089730000000 1.0
C      1  0.5239750000000  0.5169970000000  0.5958740000000 1.0
C      1  0.4946870000000  0.5426420000000  0.4949070000000 1.0
C      1  0.5387190000000  0.4752610000000  0.5240120000000 1.0
C      1  0.5761030000000  0.5221760000000  0.5438900000000 1.0
C      1  0.5138590000000  0.4865490000000  0.6017610000000 1.0
C      1  0.4780220000000  0.5274170000000  0.5389240000000 1.0
C      1  0.4884600000000  0.4596840000000  0.5740710000000 1.0
C      1  0.4955460000000  0.5888220000000  0.4851130000000 1.0
C      1  0.5552620000000  0.5609190000000  0.4762800000000 1.0
C      1  0.5720070000000  0.5119600000000  0.4768380000000 1.0
C      1  0.5619380000000  0.4573750000000  0.4477340000000 1.0
C      1  0.5309630000000  0.4565960000000  0.4358720000000 1.0
C      1  0.4496060000000  0.5200530000000  0.6054930000000 1.0
C      1  0.4855510000000  0.4749780000000  0.4433120000000 1.0
C      1  0.4605190000000  0.5074770000000  0.5542710000000 1.0
C      1  0.4465780000000  0.5055710000000  0.4266400000000 1.0
C      1  0.5602280000000  0.4770150000000  0.4987900000000 1.0
C      1  0.4434480000000  0.4665380000000  0.5327750000000 1.0
C      1  0.5298140000000  0.4644110000000  0.4695020000000 1.0
C      1  0.5490370000000  0.4513240000000  0.5446170000000 1.0
C      1  0.5056680000000  0.4566170000000  0.4250570000000 1.0
C      1  0.4334250000000  0.5781820000000  0.4444690000000 1.0
C      1  0.4978670000000  0.4401550000000  0.4758780000000 1.0
C      1  0.5252930000000  0.5366720000000  0.4866660000000 1.0
C      1  0.5300190000000  0.4282310000000  0.5461070000000 1.0
C      1  0.5271950000000  0.5445300000000  0.5559890000000 1.0
C      1  0.4293810000000  0.5079780000000  0.5146870000000 1.0
C      1  0.4953340000000  0.5073420000000  0.5831690000000 1.0
C      1  0.4706680000000  0.4271770000000  0.4763220000000 1.0
C      1  0.4394470000000  0.4932720000000  0.5366270000000 1.0
C      1  0.5486700000000  0.4644820000000  0.5722020000000 1.0
C      1  0.4419380000000  0.4916590000000  0.4557330000000 1.0
C      1  0.5162180000000  0.5878270000000  0.5047520000000 1.0
C      1  0.5222980000000  0.5322900000000  0.4530290000000 1.0
C      1  0.5412050000000  0.5527580000000  0.5323550000000 1.0
C      1  0.4201020000000  0.6011450000000  0.4423670000000 1.0
C      1  0.4714700000000  0.4657240000000  0.4909550000000 1.0
C      1  0.4473670000000  0.5541530000000  0.4466680000000 1.0
C      1  0.5036370000000  0.5003770000000  0.5533720000000 1.0
C      1  0.5265380000000  0.5619340000000  0.5093840000000 1.0
C      1  0.5699120000000  0.4562650000000  0.5190830000000 1.0
C      1  0.4993070000000  0.5401070000000  0.5524010000000 1.0
C      1  0.4509020000000  0.5226850000000  0.4995640000000 1.0
C      1  0.5015850000000  0.4737370000000  0.4797710000000 1.0
C      1  0.4749730000000  0.5530530000000  0.4535140000000 1.0
C      1  0.5173850000000  0.4914590000000  0.5350930000000 1.0
C      1  0.5426960000000  0.5121590000000  0.4422950000000 1.0
C      1  0.5128560000000  0.4224480000000  0.5250630000000 1.0
C      1  0.5631940000000  0.5366180000000  0.5236700000000 1.0
C      1  0.5150120000000  0.4305890000000  0.5705630000000 1.0
C      1  0.4625120000000  0.4741550000000  0.4634830000000 1.0
C      1  0.4653830000000  0.5131860000000  0.5860300000000 1.0
C      1  0.5636730000000  0.4866860000000  0.5759630000000 1.0
END
