TITL C-2778427-5640-863 -0.00310056106711122 125000 -665.937326815666 0 0 114 (C1) n - 1
REM
REM in /home/nfs/bkarasulu/CARBON/AIRSS/Generating-Clusters/REBO/Only-C1/SD-CG/HFTN-CG
REM
REM
REM
REM
REM
REM ./C.cell (11c1c37f851c82e70ff6c80c92926a4b)
REM
REM compiler GCC version 9.2.1 20190827 (Red Hat 9.2.1-1)
REM options -cpp -mtune=generic -march=x86-64 -g -O0 -fpre-include=/usr/include/finclude/math-vector-fortran.h
REM seed 908088247 -1819710728 1811936520 -1582033058 1653541861 -1899940710 1465131104 1952922248 -304815763 1122102731 -1600383074 1812839592 -2000935721 -761415771 -949323434 -201634326 1869656904 1252160306 -1713493327 -51055162 -1066124389 922728925 -594989448 374742972 117059021 2106756109 834372727 1731628609 1992592337 691099671 1065895487 120966996 -990488340
REM
CELL 1.54180   50.00000   50.00000   50.00000   90.00000   90.00000   90.00000
LATT -1
SFAC C  
C      1  0.4535750000000  0.4894570000000  0.4109320000000 1.0
C      1  0.5117570000000  0.5085430000000  0.4256110000000 1.0
C      1  0.5371570000000  0.4647820000000  0.5655110000000 1.0
C      1  0.5363680000000  0.5072260000000  0.5373430000000 1.0
C      1  0.4858360000000  0.4977710000000  0.5197840000000 1.0
C      1  0.4438580000000  0.5162370000000  0.5097590000000 1.0
C      1  0.5206490000000  0.4579900000000  0.4191210000000 1.0
C      1  0.4706560000000  0.4911670000000  0.4404170000000 1.0
C      1  0.4367880000000  0.5485500000000  0.5057020000000 1.0
C      1  0.5750650000000  0.5546150000000  0.5294090000000 1.0
C      1  0.4912000000000  0.4913960000000  0.4726260000000 1.0
C      1  0.4407480000000  0.4496870000000  0.5519750000000 1.0
C      1  0.5164440000000  0.5091620000000  0.5115890000000 1.0
C      1  0.5813210000000  0.4773340000000  0.4744880000000 1.0
C      1  0.4767690000000  0.4699720000000  0.4071130000000 1.0
C      1  0.5368270000000  0.5094540000000  0.4846730000000 1.0
C      1  0.4586090000000  0.4320440000000  0.4634610000000 1.0
C      1  0.5144400000000  0.5087840000000  0.4590770000000 1.0
C      1  0.5482050000000  0.5571500000000  0.5677040000000 1.0
C      1  0.4870350000000  0.4325990000000  0.4472240000000 1.0
C      1  0.5114790000000  0.4777910000000  0.5473700000000 1.0
C      1  0.5189220000000  0.4408240000000  0.5166920000000 1.0
C      1  0.4954430000000  0.5578850000000  0.4219920000000 1.0
C      1  0.5563450000000  0.4848150000000  0.4351420000000 1.0
C      1  0.4607240000000  0.5216390000000  0.4173290000000 1.0
C      1  0.4386310000000  0.5089850000000  0.4678060000000 1.0
C      1  0.5628980000000  0.4371550000000  0.4972890000000 1.0
C      1  0.5169060000000  0.5405080000000  0.4694580000000 1.0
C      1  0.5256440000000  0.4057950000000  0.4806610000000 1.0
C      1  0.4479370000000  0.4793460000000  0.5536710000000 1.0
C      1  0.5326030000000  0.4380580000000  0.5478370000000 1.0
C      1  0.5848710000000  0.4516540000000  0.4868870000000 1.0
C      1  0.4917200000000  0.4450830000000  0.4193920000000 1.0
C      1  0.5438260000000  0.5099840000000  0.4306280000000 1.0
C      1  0.5592140000000  0.5778590000000  0.5231380000000 1.0
C      1  0.4565230000000  0.4566750000000  0.4960740000000 1.0
C      1  0.4651200000000  0.4643230000000  0.4573780000000 1.0
C      1  0.4919690000000  0.5753950000000  0.4866640000000 1.0
C      1  0.3957490000000  0.5392730000000  0.5063840000000 1.0
C      1  0.4821410000000  0.4150850000000  0.5200890000000 1.0
C      1  0.5379990000000  0.4554760000000  0.4963720000000 1.0
C      1  0.5500960000000  0.4110920000000  0.5022990000000 1.0
C      1  0.4654770000000  0.4721390000000  0.5888230000000 1.0
C      1  0.4509380000000  0.5369890000000  0.5343880000000 1.0
C      1  0.4211380000000  0.4393670000000  0.4997230000000 1.0
C      1  0.5093480000000  0.5790600000000  0.5119150000000 1.0
C      1  0.4261260000000  0.4713320000000  0.4919030000000 1.0
C      1  0.4711380000000  0.5232940000000  0.4501010000000 1.0
C      1  0.5800690000000  0.5325610000000  0.4566120000000 1.0
C      1  0.5272830000000  0.5637160000000  0.5493290000000 1.0
C      1  0.5814830000000  0.5107460000000  0.5087310000000 1.0
C      1  0.5761110000000  0.5485050000000  0.4803390000000 1.0
C      1  0.5041020000000  0.4821440000000  0.4119580000000 1.0
C      1  0.4523200000000  0.4989380000000  0.5788320000000 1.0
C      1  0.5389880000000  0.4628180000000  0.4398200000000 1.0
C      1  0.5393090000000  0.5798280000000  0.5041380000000 1.0
C      1  0.5107350000000  0.5712030000000  0.4639520000000 1.0
C      1  0.5428020000000  0.5580080000000  0.4445110000000 1.0
C      1  0.4396660000000  0.5795220000000  0.5005070000000 1.0
C      1  0.4364970000000  0.4371890000000  0.5246950000000 1.0
C      1  0.4946870000000  0.4756700000000  0.5926850000000 1.0
C      1  0.4627810000000  0.4229550000000  0.4937250000000 1.0
C      1  0.4977110000000  0.4601890000000  0.5258300000000 1.0
C      1  0.5822700000000  0.5390450000000  0.5064650000000 1.0
C      1  0.4659950000000  0.5091340000000  0.4870230000000 1.0
C      1  0.5571860000000  0.5333840000000  0.4390460000000 1.0
C      1  0.5517730000000  0.4922560000000  0.5756330000000 1.0
C      1  0.4620490000000  0.5678280000000  0.4815580000000 1.0
C      1  0.4145270000000  0.5270130000000  0.4804740000000 1.0
C      1  0.4813540000000  0.4744640000000  0.4999010000000 1.0
C      1  0.4858870000000  0.5559320000000  0.5210550000000 1.0
C      1  0.5801370000000  0.4962170000000  0.5328760000000 1.0
C      1  0.4352550000000  0.4786980000000  0.4538580000000 1.0
C      1  0.5365840000000  0.5086690000000  0.5922470000000 1.0
C      1  0.5689490000000  0.5420020000000  0.5547120000000 1.0
C      1  0.5643080000000  0.5117450000000  0.5536000000000 1.0
C      1  0.5145300000000  0.5194660000000  0.5801290000000 1.0
C      1  0.5818470000000  0.4813360000000  0.4465700000000 1.0
C      1  0.4538940000000  0.5514500000000  0.4461580000000 1.0
C      1  0.4623540000000  0.5245810000000  0.5720770000000 1.0
C      1  0.5291620000000  0.5444580000000  0.5252340000000 1.0
C      1  0.5481040000000  0.5649060000000  0.4761440000000 1.0
C      1  0.5353490000000  0.5408690000000  0.4966500000000 1.0
C      1  0.4109470000000  0.5164750000000  0.5185860000000 1.0
C      1  0.4880310000000  0.5273260000000  0.5059730000000 1.0
C      1  0.5117170000000  0.5269150000000  0.5486190000000 1.0
C      1  0.4638150000000  0.4473340000000  0.5718100000000 1.0
C      1  0.4704670000000  0.5690270000000  0.4320230000000 1.0
C      1  0.5358660000000  0.4762110000000  0.5232900000000 1.0
C      1  0.5041160000000  0.4182770000000  0.5460650000000 1.0
C      1  0.4917730000000  0.5302320000000  0.4166550000000 1.0
C      1  0.4968790000000  0.4593570000000  0.4663740000000 1.0
C      1  0.4911490000000  0.4358790000000  0.5687080000000 1.0
C      1  0.4128990000000  0.4959200000000  0.4949870000000 1.0
C      1  0.4745220000000  0.4927940000000  0.5462780000000 1.0
C      1  0.5224240000000  0.5657700000000  0.4263660000000 1.0
C      1  0.4817030000000  0.5320130000000  0.5450650000000 1.0
C      1  0.5343740000000  0.4078340000000  0.5324670000000 1.0
C      1  0.4302140000000  0.4478400000000  0.4675860000000 1.0
C      1  0.4770360000000  0.5711550000000  0.5508150000000 1.0
C      1  0.5661970000000  0.4978300000000  0.4879580000000 1.0
C      1  0.5044100000000  0.5820610000000  0.5445870000000 1.0
C      1  0.4601480000000  0.5566760000000  0.5679350000000 1.0
C      1  0.4958110000000  0.4967240000000  0.5693050000000 1.0
C      1  0.4834220000000  0.5435600000000  0.4716590000000 1.0
C      1  0.5280050000000  0.4543500000000  0.4675170000000 1.0
C      1  0.4697180000000  0.4456080000000  0.5250300000000 1.0
C      1  0.5157380000000  0.4246390000000  0.4616880000000 1.0
C      1  0.5109440000000  0.4095170000000  0.5079520000000 1.0
C      1  0.4313140000000  0.5462370000000  0.5593060000000 1.0
C      1  0.5674840000000  0.4716610000000  0.5297230000000 1.0
C      1  0.5099560000000  0.4536250000000  0.5818720000000 1.0
C      1  0.4349910000000  0.5064560000000  0.4341000000000 1.0
C      1  0.4336410000000  0.5524560000000  0.4717090000000 1.0
END
