TITL C-2778431-5191-1319 0.0024938514670523 125000 -583.742153288065 0 0 103 (C1) n - 1
REM
REM in /home/nfs/bkarasulu/CARBON/AIRSS/Generating-Clusters/REBO/Only-C1/SD-CG/HFTN-CG
REM
REM
REM
REM
REM
REM ./C.cell (11c1c37f851c82e70ff6c80c92926a4b)
REM
REM compiler GCC version 9.2.1 20190827 (Red Hat 9.2.1-1)
REM options -cpp -mtune=generic -march=x86-64 -g -O0 -fpre-include=/usr/include/finclude/math-vector-fortran.h
REM seed 1063320509 1559914185 516420241 588977383 2127226879 -800867123 -1431760247 1322466836 99736931 895379946 -1820727148 -126076377 729125909 -31140926 655844546 -221783675 -778127080 2010807893 1696433073 -368773644 -803209255 2024936795 217086063 -1888480848 1702625348 -1906887113 2143015483 219086902 -1362893488 -1434626095 -574183716 196246039 -1241699066
REM
CELL 1.54180   50.00000   50.00000   50.00000   90.00000   90.00000   90.00000
LATT -1
SFAC C  
C      1  0.5039060000000  0.5181260000000  0.4158350000000 1.0
C      1  0.4507750000000  0.4636270000000  0.4368240000000 1.0
C      1  0.4714780000000  0.5528570000000  0.4725320000000 1.0
C      1  0.4821090000000  0.4259580000000  0.4502230000000 1.0
C      1  0.5101750000000  0.5952780000000  0.4760130000000 1.0
C      1  0.5375240000000  0.5057600000000  0.5216900000000 1.0
C      1  0.5518310000000  0.4612060000000  0.4998490000000 1.0
C      1  0.4242150000000  0.4798310000000  0.4953750000000 1.0
C      1  0.4849020000000  0.5439810000000  0.4153640000000 1.0
C      1  0.4766770000000  0.4625720000000  0.5324270000000 1.0
C      1  0.5088820000000  0.4830770000000  0.4821260000000 1.0
C      1  0.4270140000000  0.5656350000000  0.4971780000000 1.0
C      1  0.4085390000000  0.4756770000000  0.5247560000000 1.0
C      1  0.4528070000000  0.5614160000000  0.4971170000000 1.0
C      1  0.5296740000000  0.6027980000000  0.4987140000000 1.0
C      1  0.5193980000000  0.4277440000000  0.5339040000000 1.0
C      1  0.5097230000000  0.4383630000000  0.4548050000000 1.0
C      1  0.5161110000000  0.4907670000000  0.6028570000000 1.0
C      1  0.4853790000000  0.5368680000000  0.5264920000000 1.0
C      1  0.5600690000000  0.5522820000000  0.5240720000000 1.0
C      1  0.4776390000000  0.5666470000000  0.5194790000000 1.0
C      1  0.5764400000000  0.4932210000000  0.5302270000000 1.0
C      1  0.5215990000000  0.5746450000000  0.4544520000000 1.0
C      1  0.5143660000000  0.4953200000000  0.4311740000000 1.0
C      1  0.5020570000000  0.4881040000000  0.5153600000000 1.0
C      1  0.5141590000000  0.5206370000000  0.5613220000000 1.0
C      1  0.4214890000000  0.4643020000000  0.4236060000000 1.0
C      1  0.5627320000000  0.5238010000000  0.5361350000000 1.0
C      1  0.5133940000000  0.4699280000000  0.4142140000000 1.0
C      1  0.4691340000000  0.4880970000000  0.3953540000000 1.0
C      1  0.4478000000000  0.5394060000000  0.4295570000000 1.0
C      1  0.5489810000000  0.5316090000000  0.4492720000000 1.0
C      1  0.5462120000000  0.5580390000000  0.4600290000000 1.0
C      1  0.4949580000000  0.5347600000000  0.4895850000000 1.0
C      1  0.4628730000000  0.5318800000000  0.4514460000000 1.0
C      1  0.5466170000000  0.4526930000000  0.4527970000000 1.0
C      1  0.4309120000000  0.4994460000000  0.5352620000000 1.0
C      1  0.5675360000000  0.4632460000000  0.5754380000000 1.0
C      1  0.5569880000000  0.5132830000000  0.4753210000000 1.0
C      1  0.4700380000000  0.5047130000000  0.4576570000000 1.0
C      1  0.4366440000000  0.5416870000000  0.5568530000000 1.0
C      1  0.4133330000000  0.5281350000000  0.5141480000000 1.0
C      1  0.5304960000000  0.4059390000000  0.4914190000000 1.0
C      1  0.5886420000000  0.4931770000000  0.5030420000000 1.0
C      1  0.5131320000000  0.5843280000000  0.5503440000000 1.0
C      1  0.4894530000000  0.5829740000000  0.5429210000000 1.0
C      1  0.5402510000000  0.5128450000000  0.5802920000000 1.0
C      1  0.4840760000000  0.4168400000000  0.4970300000000 1.0
C      1  0.5830520000000  0.5181040000000  0.4899250000000 1.0
C      1  0.4926670000000  0.4708740000000  0.3945330000000 1.0
C      1  0.4961510000000  0.4979320000000  0.5777030000000 1.0
C      1  0.5092560000000  0.4094570000000  0.5091690000000 1.0
C      1  0.4819330000000  0.4718300000000  0.5630480000000 1.0
C      1  0.4710180000000  0.4457850000000  0.4844360000000 1.0
C      1  0.5819650000000  0.5450590000000  0.4997510000000 1.0
C      1  0.4571870000000  0.5192880000000  0.5309760000000 1.0
C      1  0.4752130000000  0.4584830000000  0.4530850000000 1.0
C      1  0.4829290000000  0.5815460000000  0.4602760000000 1.0
C      1  0.4743030000000  0.4087270000000  0.4698460000000 1.0
C      1  0.5082750000000  0.5169260000000  0.5305280000000 1.0
C      1  0.5555450000000  0.4808790000000  0.4639350000000 1.0
C      1  0.4902480000000  0.5595740000000  0.4378750000000 1.0
C      1  0.4521840000000  0.5166620000000  0.5640870000000 1.0
C      1  0.4490360000000  0.4532430000000  0.5431520000000 1.0
C      1  0.5160650000000  0.4674210000000  0.5371010000000 1.0
C      1  0.5420390000000  0.5017650000000  0.4406840000000 1.0
C      1  0.4594750000000  0.4945960000000  0.4850050000000 1.0
C      1  0.5088410000000  0.4281970000000  0.5625820000000 1.0
C      1  0.5104830000000  0.4519740000000  0.4860560000000 1.0
C      1  0.4319830000000  0.5120150000000  0.4953670000000 1.0
C      1  0.4245370000000  0.5470990000000  0.5324840000000 1.0
C      1  0.3980770000000  0.5067490000000  0.5298270000000 1.0
C      1  0.5015570000000  0.4481730000000  0.5144030000000 1.0
C      1  0.5685540000000  0.4636550000000  0.5452580000000 1.0
C      1  0.5258130000000  0.4500440000000  0.4292650000000 1.0
C      1  0.5441110000000  0.4504310000000  0.5279780000000 1.0
C      1  0.5473560000000  0.4892630000000  0.5484120000000 1.0
C      1  0.5419530000000  0.5695980000000  0.5411240000000 1.0
C      1  0.5086430000000  0.5445570000000  0.4604060000000 1.0
C      1  0.5317050000000  0.5158130000000  0.6131780000000 1.0
C      1  0.4412760000000  0.4530920000000  0.4942020000000 1.0
C      1  0.5983290000000  0.4511910000000  0.4768670000000 1.0
C      1  0.5636300000000  0.5253740000000  0.5652440000000 1.0
C      1  0.5261170000000  0.5488300000000  0.5623950000000 1.0
C      1  0.4640710000000  0.5230750000000  0.4979350000000 1.0
C      1  0.5207220000000  0.4813300000000  0.5644190000000 1.0
C      1  0.4947540000000  0.4454180000000  0.5738620000000 1.0
C      1  0.4758290000000  0.5141790000000  0.4040330000000 1.0
C      1  0.4467300000000  0.4768500000000  0.4082200000000 1.0
C      1  0.5368490000000  0.4886760000000  0.4962830000000 1.0
C      1  0.4746240000000  0.4741230000000  0.5006480000000 1.0
C      1  0.4568310000000  0.4914550000000  0.5744560000000 1.0
C      1  0.5354660000000  0.4315550000000  0.4753220000000 1.0
C      1  0.5375680000000  0.5949490000000  0.5206950000000 1.0
C      1  0.4843680000000  0.5840980000000  0.4937510000000 1.0
C      1  0.4299870000000  0.4517450000000  0.5226980000000 1.0
C      1  0.5285800000000  0.5311220000000  0.4836390000000 1.0
C      1  0.3958060000000  0.4582980000000  0.4244310000000 1.0
C      1  0.4428770000000  0.4652630000000  0.5682740000000 1.0
C      1  0.5514420000000  0.5551230000000  0.4917350000000 1.0
C      1  0.5444500000000  0.4794960000000  0.5872880000000 1.0
C      1  0.5793940000000  0.4693980000000  0.4855440000000 1.0
C      1  0.4950130000000  0.4861110000000  0.4547140000000 1.0
END
