TITL C-2778424-3986-1457 0.00283018783378238 125000 -486.142923902812 0 0 86 (C1) n - 1
REM
REM in /home/nfs/bkarasulu/CARBON/AIRSS/Generating-Clusters/REBO/Only-C1/SD-CG/HFTN-CG
REM
REM
REM
REM
REM
REM ./C.cell (11c1c37f851c82e70ff6c80c92926a4b)
REM
REM compiler GCC version 9.2.1 20190827 (Red Hat 9.2.1-1)
REM options -cpp -mtune=generic -march=x86-64 -g -O0 -fpre-include=/usr/include/finclude/math-vector-fortran.h
REM seed -1847715453 1134148755 1615014050 2129057386 -847940349 -1163066839 -356553731 484504633 42692110 -194827825 -1159841641 868889225 107797515 1015775472 -186890414 -262113178 -596406014 -2137257697 496346278 -22101192 1319884665 -463841770 -1833170195 -1192030178 1974728750 -1634100089 1136954618 1409195825 -272818270 -1549503837 -1024025917 1920283620 763532970
REM
CELL 1.54180   50.00000   50.00000   50.00000   90.00000   90.00000   90.00000
LATT -1
SFAC C  
C      1  0.5250580000000  0.4999710000000  0.5576540000000 1.0
C      1  0.5097530000000  0.4615270000000  0.5305920000000 1.0
C      1  0.5046540000000  0.5620290000000  0.5435150000000 1.0
C      1  0.4334450000000  0.4939060000000  0.4265560000000 1.0
C      1  0.4633280000000  0.5047150000000  0.4231030000000 1.0
C      1  0.5176890000000  0.5169520000000  0.4735930000000 1.0
C      1  0.4485430000000  0.5020310000000  0.4924980000000 1.0
C      1  0.4357610000000  0.4708480000000  0.4452320000000 1.0
C      1  0.4070880000000  0.4613270000000  0.5562360000000 1.0
C      1  0.4864180000000  0.4446100000000  0.4393420000000 1.0
C      1  0.4401970000000  0.5327710000000  0.5516190000000 1.0
C      1  0.4296890000000  0.4723280000000  0.5488210000000 1.0
C      1  0.4253200000000  0.4542840000000  0.4947850000000 1.0
C      1  0.5120260000000  0.4356260000000  0.5086060000000 1.0
C      1  0.4150190000000  0.4735620000000  0.5116360000000 1.0
C      1  0.5619740000000  0.5676730000000  0.4964930000000 1.0
C      1  0.5029860000000  0.4232110000000  0.5391240000000 1.0
C      1  0.5141350000000  0.5146860000000  0.4129330000000 1.0
C      1  0.5308650000000  0.4947550000000  0.5240910000000 1.0
C      1  0.4806810000000  0.5169720000000  0.4401580000000 1.0
C      1  0.5417900000000  0.4844790000000  0.4449850000000 1.0
C      1  0.5228020000000  0.5693470000000  0.4683050000000 1.0
C      1  0.4283420000000  0.4982330000000  0.5132450000000 1.0
C      1  0.5589700000000  0.5127600000000  0.5952980000000 1.0
C      1  0.4871780000000  0.5641580000000  0.4644670000000 1.0
C      1  0.4303310000000  0.5485230000000  0.5691060000000 1.0
C      1  0.5282020000000  0.4392560000000  0.4622520000000 1.0
C      1  0.4754520000000  0.5763620000000  0.4940420000000 1.0
C      1  0.4484650000000  0.4617590000000  0.4754660000000 1.0
C      1  0.5318640000000  0.5559120000000  0.5360420000000 1.0
C      1  0.4520580000000  0.5138020000000  0.5305380000000 1.0
C      1  0.4355280000000  0.5497400000000  0.4826970000000 1.0
C      1  0.4558210000000  0.5538500000000  0.5004700000000 1.0
C      1  0.5023860000000  0.4632930000000  0.4915710000000 1.0
C      1  0.4826500000000  0.4910210000000  0.5668390000000 1.0
C      1  0.5775460000000  0.5110980000000  0.5468410000000 1.0
C      1  0.5470690000000  0.4456260000000  0.4864760000000 1.0
C      1  0.5553070000000  0.5046120000000  0.5694290000000 1.0
C      1  0.5096270000000  0.4864110000000  0.4209080000000 1.0
C      1  0.4185570000000  0.4894770000000  0.4033390000000 1.0
C      1  0.5098350000000  0.5587220000000  0.4406300000000 1.0
C      1  0.5080750000000  0.4874220000000  0.5843040000000 1.0
C      1  0.5231500000000  0.4607810000000  0.5764680000000 1.0
C      1  0.4708680000000  0.5401010000000  0.4526930000000 1.0
C      1  0.5770290000000  0.4849960000000  0.4745880000000 1.0
C      1  0.4528800000000  0.4836170000000  0.5412130000000 1.0
C      1  0.5022400000000  0.5103730000000  0.5346130000000 1.0
C      1  0.5132830000000  0.5402030000000  0.4220290000000 1.0
C      1  0.5002970000000  0.4336340000000  0.4619870000000 1.0
C      1  0.5058970000000  0.5009350000000  0.4495790000000 1.0
C      1  0.5534280000000  0.4267300000000  0.5062790000000 1.0
C      1  0.5605580000000  0.5596680000000  0.5240320000000 1.0
C      1  0.5676800000000  0.4927840000000  0.5026480000000 1.0
C      1  0.5330820000000  0.4614830000000  0.5506890000000 1.0
C      1  0.4793380000000  0.4670940000000  0.5455940000000 1.0
C      1  0.5370480000000  0.4552930000000  0.4398910000000 1.0
C      1  0.4821010000000  0.4282240000000  0.4832190000000 1.0
C      1  0.4780800000000  0.4375550000000  0.5335660000000 1.0
C      1  0.5480470000000  0.5258720000000  0.4730430000000 1.0
C      1  0.4697290000000  0.4802070000000  0.4906760000000 1.0
C      1  0.5614690000000  0.5017060000000  0.4566700000000 1.0
C      1  0.4710820000000  0.5282580000000  0.5124690000000 1.0
C      1  0.4990910000000  0.5204130000000  0.4941010000000 1.0
C      1  0.5393740000000  0.4765340000000  0.4984910000000 1.0
C      1  0.5081450000000  0.4960620000000  0.6104760000000 1.0
C      1  0.4894960000000  0.5378300000000  0.5468030000000 1.0
C      1  0.5007750000000  0.4599900000000  0.4201400000000 1.0
C      1  0.5491270000000  0.5572010000000  0.4744860000000 1.0
C      1  0.5599070000000  0.5226840000000  0.5022240000000 1.0
C      1  0.5779820000000  0.4859990000000  0.5298220000000 1.0
C      1  0.4750390000000  0.5170160000000  0.5630760000000 1.0
C      1  0.5364040000000  0.5279910000000  0.5249320000000 1.0
C      1  0.4859950000000  0.6103660000000  0.5352290000000 1.0
C      1  0.4922040000000  0.5834800000000  0.5231650000000 1.0
C      1  0.4426110000000  0.5395460000000  0.4573350000000 1.0
C      1  0.5566310000000  0.4771380000000  0.5490910000000 1.0
C      1  0.5094740000000  0.5756180000000  0.4951870000000 1.0
C      1  0.5754790000000  0.5340210000000  0.5299260000000 1.0
C      1  0.4695320000000  0.4329650000000  0.5069380000000 1.0
C      1  0.4603940000000  0.4513780000000  0.4459000000000 1.0
C      1  0.5737000000000  0.4576610000000  0.4718220000000 1.0
C      1  0.5185160000000  0.4142090000000  0.4918160000000 1.0
C      1  0.4932750000000  0.4864290000000  0.5139000000000 1.0
C      1  0.4277840000000  0.5213090000000  0.4419060000000 1.0
C      1  0.4988640000000  0.5473940000000  0.5073760000000 1.0
C      1  0.5204260000000  0.4776080000000  0.4700740000000 1.0
END
