TITL C-2778429-3646-824 -0.0154835374127898 125000 -413.609659431959 0 0 73 (C1) n - 1
REM
REM in /home/nfs/bkarasulu/CARBON/AIRSS/Generating-Clusters/REBO/Only-C1/SD-CG/HFTN-CG
REM
REM
REM
REM
REM
REM ./C.cell (11c1c37f851c82e70ff6c80c92926a4b)
REM
REM compiler GCC version 9.2.1 20190827 (Red Hat 9.2.1-1)
REM options -cpp -mtune=generic -march=x86-64 -g -O0 -fpre-include=/usr/include/finclude/math-vector-fortran.h
REM seed 1313267787 -1985830773 670728275 1388174915 418738555 1619550661 1659790632 1703831950 -526378787 -274541597 -1051387698 696420497 819054831 -1743563319 -1751398835 -806255334 1641145316 -914268208 -987199838 1235807685 -1807386235 460554068 -470099894 2113768105 -1819567349 1048829493 798606757 981766989 -851074512 1640271977 -1937299613 1356164117 -1212091004
REM
CELL 1.54180   50.00000   50.00000   50.00000   90.00000   90.00000   90.00000
LATT -1
SFAC C  
C      1  0.5299170000000  0.4676200000000  0.5640640000000 1.0
C      1  0.4720880000000  0.5362850000000  0.4403770000000 1.0
C      1  0.5291670000000  0.4433840000000  0.4627200000000 1.0
C      1  0.5552930000000  0.4560990000000  0.4511110000000 1.0
C      1  0.5038680000000  0.4908060000000  0.4664980000000 1.0
C      1  0.5168590000000  0.5952040000000  0.4876240000000 1.0
C      1  0.4358620000000  0.4667870000000  0.4914930000000 1.0
C      1  0.4604830000000  0.5087970000000  0.4455400000000 1.0
C      1  0.5243260000000  0.3837920000000  0.4946080000000 1.0
C      1  0.4895100000000  0.4279820000000  0.5380050000000 1.0
C      1  0.4756820000000  0.5567910000000  0.5046410000000 1.0
C      1  0.5668260000000  0.4856740000000  0.5267060000000 1.0
C      1  0.4406490000000  0.5604060000000  0.4680340000000 1.0
C      1  0.5202410000000  0.4680570000000  0.5133630000000 1.0
C      1  0.5196910000000  0.5200640000000  0.4285660000000 1.0
C      1  0.5642850000000  0.4666000000000  0.4283550000000 1.0
C      1  0.5381840000000  0.4940020000000  0.5432410000000 1.0
C      1  0.5049830000000  0.4899540000000  0.5428130000000 1.0
C      1  0.4538370000000  0.4602210000000  0.5151370000000 1.0
C      1  0.5251420000000  0.4459710000000  0.5397210000000 1.0
C      1  0.4635840000000  0.5219240000000  0.5439300000000 1.0
C      1  0.4880910000000  0.5026920000000  0.5189340000000 1.0
C      1  0.4706410000000  0.4765120000000  0.5579830000000 1.0
C      1  0.5268560000000  0.5132570000000  0.4784680000000 1.0
C      1  0.5067680000000  0.5770620000000  0.4676920000000 1.0
C      1  0.4358410000000  0.5074210000000  0.5197330000000 1.0
C      1  0.5182250000000  0.5460050000000  0.4754140000000 1.0
C      1  0.4638450000000  0.4988190000000  0.4778110000000 1.0
C      1  0.4530690000000  0.4945000000000  0.5456370000000 1.0
C      1  0.5491280000000  0.4509360000000  0.5181990000000 1.0
C      1  0.5206510000000  0.5016570000000  0.5081340000000 1.0
C      1  0.5763840000000  0.4995060000000  0.4803460000000 1.0
C      1  0.5701650000000  0.4771770000000  0.4967070000000 1.0
C      1  0.5155380000000  0.5304000000000  0.5260150000000 1.0
C      1  0.5243680000000  0.5539820000000  0.5065830000000 1.0
C      1  0.4501700000000  0.4624290000000  0.4414860000000 1.0
C      1  0.4448880000000  0.5401400000000  0.5234710000000 1.0
C      1  0.4965580000000  0.4721530000000  0.4319590000000 1.0
C      1  0.4281290000000  0.4948420000000  0.4949460000000 1.0
C      1  0.5882250000000  0.5026780000000  0.5344130000000 1.0
C      1  0.5437340000000  0.5214410000000  0.5563570000000 1.0
C      1  0.5002110000000  0.4806090000000  0.5745650000000 1.0
C      1  0.4682500000000  0.4339690000000  0.5165900000000 1.0
C      1  0.5558600000000  0.5123040000000  0.4681830000000 1.0
C      1  0.4703560000000  0.5593210000000  0.5373730000000 1.0
C      1  0.4880940000000  0.5199430000000  0.4729950000000 1.0
C      1  0.4887510000000  0.4611980000000  0.5370090000000 1.0
C      1  0.5599000000000  0.4615140000000  0.5487450000000 1.0
C      1  0.5264710000000  0.4086650000000  0.5062330000000 1.0
C      1  0.4917920000000  0.4554840000000  0.5035710000000 1.0
C      1  0.4917480000000  0.6093130000000  0.5202600000000 1.0
C      1  0.5408240000000  0.4317880000000  0.4925590000000 1.0
C      1  0.4614000000000  0.5612770000000  0.4485740000000 1.0
C      1  0.5483150000000  0.5440910000000  0.5671830000000 1.0
C      1  0.4829650000000  0.5852870000000  0.5206290000000 1.0
C      1  0.4671410000000  0.4868270000000  0.5057270000000 1.0
C      1  0.5157440000000  0.4165990000000  0.5312740000000 1.0
C      1  0.4826170000000  0.5799910000000  0.4532810000000 1.0
C      1  0.4849680000000  0.4641940000000  0.4763830000000 1.0
C      1  0.4685990000000  0.4816520000000  0.4305600000000 1.0
C      1  0.4104510000000  0.5256390000000  0.4561940000000 1.0
C      1  0.4541700000000  0.4603640000000  0.4693910000000 1.0
C      1  0.5623540000000  0.4550600000000  0.4810970000000 1.0
C      1  0.5167920000000  0.4938900000000  0.4350040000000 1.0
C      1  0.5027610000000  0.5369840000000  0.4473300000000 1.0
C      1  0.5014460000000  0.5296560000000  0.5780160000000 1.0
C      1  0.5264730000000  0.5812290000000  0.5097530000000 1.0
C      1  0.4336100000000  0.5098770000000  0.4666120000000 1.0
C      1  0.5023280000000  0.5075640000000  0.5899950000000 1.0
C      1  0.5042280000000  0.4529500000000  0.4536970000000 1.0
C      1  0.4926280000000  0.5364520000000  0.5492350000000 1.0
C      1  0.4453280000000  0.5546710000000  0.4937630000000 1.0
C      1  0.4916730000000  0.5316080000000  0.5013810000000 1.0
END
