TITL C-2778430-5657-129 0.000813142100738188 125000 -633.380640139664 0 0 106 (C1) n - 1
REM
REM in /home/nfs/bkarasulu/CARBON/AIRSS/Generating-Clusters/REBO/Only-C1/SD-CG/HFTN-CG
REM
REM
REM
REM
REM
REM ./C.cell (11c1c37f851c82e70ff6c80c92926a4b)
REM
REM compiler GCC version 9.2.1 20190827 (Red Hat 9.2.1-1)
REM options -cpp -mtune=generic -march=x86-64 -g -O0 -fpre-include=/usr/include/finclude/math-vector-fortran.h
REM seed 1847816092 473280013 -1719762027 -1466241238 -744358550 -452238573 1006596531 938708658 -1727311828 1898528731 1485446347 705993210 -2091767360 -1549350900 -1781362943 -1771831055 1577383525 -1506220669 -1338876549 -1211912140 -1745939811 -1795741674 1528658172 -1703422929 495728420 -170085091 208610302 -1050159853 -1071500811 -2085356678 -1770956971 -1161813689 -1012250978
REM
CELL 1.54180   50.00000   50.00000   50.00000   90.00000   90.00000   90.00000
LATT -1
SFAC C  
C      1  0.5241400000000  0.4571650000000  0.5400680000000 1.0
C      1  0.5899720000000  0.5299630000000  0.4804610000000 1.0
C      1  0.4701570000000  0.4316470000000  0.5279850000000 1.0
C      1  0.4551810000000  0.4274240000000  0.4591260000000 1.0
C      1  0.5635100000000  0.5707790000000  0.5317050000000 1.0
C      1  0.5802620000000  0.4852710000000  0.5085940000000 1.0
C      1  0.4736720000000  0.4441620000000  0.4365100000000 1.0
C      1  0.4979550000000  0.4540510000000  0.4240770000000 1.0
C      1  0.5130190000000  0.5498750000000  0.4479590000000 1.0
C      1  0.5373370000000  0.5463870000000  0.4931200000000 1.0
C      1  0.4728870000000  0.5287850000000  0.4273980000000 1.0
C      1  0.4145980000000  0.5318980000000  0.5534930000000 1.0
C      1  0.4719690000000  0.4120070000000  0.4805470000000 1.0
C      1  0.5512780000000  0.5427020000000  0.4388210000000 1.0
C      1  0.4358710000000  0.4869440000000  0.4514900000000 1.0
C      1  0.5685100000000  0.5047780000000  0.5665500000000 1.0
C      1  0.4412120000000  0.4511480000000  0.4764280000000 1.0
C      1  0.5672650000000  0.5495760000000  0.4887530000000 1.0
C      1  0.5836800000000  0.4633820000000  0.4853000000000 1.0
C      1  0.5263110000000  0.4468870000000  0.4264070000000 1.0
C      1  0.5449440000000  0.4703280000000  0.4240920000000 1.0
C      1  0.4770170000000  0.5718820000000  0.5160910000000 1.0
C      1  0.4798920000000  0.4855720000000  0.4814060000000 1.0
C      1  0.4745260000000  0.4632080000000  0.5171940000000 1.0
C      1  0.5280120000000  0.5058560000000  0.5327730000000 1.0
C      1  0.5305950000000  0.4950400000000  0.4212900000000 1.0
C      1  0.5073100000000  0.4444650000000  0.5660530000000 1.0
C      1  0.4149490000000  0.4713040000000  0.4987110000000 1.0
C      1  0.4571520000000  0.5032240000000  0.4983750000000 1.0
C      1  0.4550810000000  0.5417820000000  0.4444850000000 1.0
C      1  0.4175330000000  0.4917670000000  0.5787830000000 1.0
C      1  0.5320460000000  0.4662490000000  0.5750440000000 1.0
C      1  0.4079140000000  0.5038270000000  0.5545000000000 1.0
C      1  0.4787290000000  0.4421110000000  0.5592670000000 1.0
C      1  0.5239450000000  0.4934090000000  0.5018900000000 1.0
C      1  0.5234890000000  0.4227800000000  0.4682210000000 1.0
C      1  0.5063370000000  0.5957050000000  0.5043300000000 1.0
C      1  0.4855520000000  0.5184750000000  0.5661140000000 1.0
C      1  0.4247330000000  0.4403510000000  0.5022020000000 1.0
C      1  0.4141220000000  0.5159330000000  0.4842500000000 1.0
C      1  0.4832750000000  0.6020760000000  0.5271460000000 1.0
C      1  0.4462180000000  0.4907190000000  0.5803530000000 1.0
C      1  0.4489370000000  0.4720550000000  0.5025750000000 1.0
C      1  0.4397310000000  0.5366350000000  0.5665220000000 1.0
C      1  0.5177500000000  0.4455580000000  0.4914180000000 1.0
C      1  0.4831510000000  0.5496560000000  0.4744590000000 1.0
C      1  0.4486990000000  0.4852490000000  0.4263870000000 1.0
C      1  0.4521040000000  0.5579670000000  0.4746770000000 1.0
C      1  0.4292710000000  0.5361780000000  0.4657850000000 1.0
C      1  0.4146760000000  0.4894180000000  0.4734880000000 1.0
C      1  0.4778400000000  0.4785620000000  0.5432350000000 1.0
C      1  0.5445070000000  0.5844440000000  0.4715460000000 1.0
C      1  0.5010090000000  0.4717480000000  0.5002420000000 1.0
C      1  0.5238240000000  0.5524000000000  0.5710760000000 1.0
C      1  0.5685920000000  0.5295560000000  0.5647980000000 1.0
C      1  0.4001500000000  0.5507040000000  0.5403900000000 1.0
C      1  0.4390280000000  0.4391890000000  0.5268330000000 1.0
C      1  0.5495930000000  0.5505320000000  0.5539100000000 1.0
C      1  0.4987610000000  0.5404440000000  0.4255120000000 1.0
C      1  0.5029780000000  0.5198720000000  0.5411200000000 1.0
C      1  0.5527100000000  0.4871140000000  0.5189830000000 1.0
C      1  0.4336390000000  0.4622740000000  0.5429090000000 1.0
C      1  0.5005070000000  0.5737690000000  0.4616340000000 1.0
C      1  0.5311020000000  0.4092870000000  0.5118190000000 1.0
C      1  0.5134380000000  0.5268920000000  0.5790200000000 1.0
C      1  0.5052790000000  0.3989700000000  0.5130830000000 1.0
C      1  0.5249790000000  0.5327270000000  0.4672380000000 1.0
C      1  0.4218220000000  0.5158520000000  0.5118630000000 1.0
C      1  0.5814860000000  0.5676310000000  0.5104100000000 1.0
C      1  0.5534400000000  0.5647870000000  0.4544470000000 1.0
C      1  0.4672370000000  0.4648530000000  0.4627440000000 1.0
C      1  0.4164580000000  0.4872560000000  0.5287980000000 1.0
C      1  0.5036690000000  0.5463160000000  0.4980990000000 1.0
C      1  0.4795330000000  0.4101750000000  0.5082920000000 1.0
C      1  0.5560990000000  0.4255060000000  0.4989050000000 1.0
C      1  0.6004670000000  0.4864610000000  0.5279040000000 1.0
C      1  0.4566590000000  0.4678490000000  0.5637120000000 1.0
C      1  0.4987470000000  0.4871150000000  0.4221830000000 1.0
C      1  0.4492440000000  0.5291020000000  0.5154800000000 1.0
C      1  0.4499950000000  0.5097980000000  0.4677490000000 1.0
C      1  0.5171530000000  0.5892570000000  0.4788630000000 1.0
C      1  0.5089340000000  0.5717760000000  0.5284860000000 1.0
C      1  0.5656640000000  0.4371500000000  0.4514100000000 1.0
C      1  0.5343190000000  0.5566060000000  0.5237780000000 1.0
C      1  0.5696620000000  0.4642580000000  0.4389530000000 1.0
C      1  0.4720920000000  0.5009400000000  0.4210220000000 1.0
C      1  0.4828330000000  0.5180780000000  0.4716120000000 1.0
C      1  0.4926600000000  0.5991610000000  0.5546710000000 1.0
C      1  0.5340500000000  0.4420460000000  0.5184790000000 1.0
C      1  0.5837080000000  0.4801510000000  0.4589060000000 1.0
C      1  0.6055900000000  0.5511510000000  0.4983470000000 1.0
C      1  0.5389070000000  0.4284100000000  0.4454200000000 1.0
C      1  0.5416310000000  0.5200250000000  0.4276100000000 1.0
C      1  0.4941740000000  0.4212000000000  0.4631870000000 1.0
C      1  0.4584820000000  0.5163660000000  0.5746980000000 1.0
C      1  0.5102820000000  0.4812760000000  0.4526230000000 1.0
C      1  0.4999180000000  0.4547760000000  0.4642770000000 1.0
C      1  0.5070020000000  0.5731950000000  0.5607430000000 1.0
C      1  0.5035450000000  0.4814810000000  0.5521340000000 1.0
C      1  0.5726300000000  0.4376420000000  0.4799390000000 1.0
C      1  0.4935500000000  0.5357790000000  0.5206040000000 1.0
C      1  0.4585350000000  0.5542540000000  0.5056290000000 1.0
C      1  0.5174430000000  0.4967860000000  0.5761890000000 1.0
C      1  0.5479330000000  0.4865630000000  0.5527000000000 1.0
C      1  0.5860070000000  0.5025160000000  0.4800470000000 1.0
C      1  0.5140300000000  0.5043670000000  0.4730710000000 1.0
END
