TITL C-2778422-5617-658 0.00254791382393733 125000 -1028.87099438626 0 0 178 (C1) n - 1
REM
REM in /home/nfs/bkarasulu/CARBON/AIRSS/Generating-Clusters/REBO/Only-C1/SD-CG/HFTN-CG
REM
REM
REM
REM
REM
REM ./C.cell (11c1c37f851c82e70ff6c80c92926a4b)
REM
REM compiler GCC version 9.2.1 20190827 (Red Hat 9.2.1-1)
REM options -cpp -mtune=generic -march=x86-64 -g -O0 -fpre-include=/usr/include/finclude/math-vector-fortran.h
REM seed -1999682961 -1912540012 -239162204 898169993 -2145731548 507990376 1628475130 866229818 968250073 -314616990 613700688 -1197339853 718080276 505809954 41652005 -785117920 -2003489518 1118873139 -116766992 -368611890 1616830012 1020993961 -1214926019 -2008481130 -491473827 1938669401 -1630077364 1214421116 642853164 -1894383774 1594467166 1728018084 -1905908915
REM
CELL 1.54180   50.00000   50.00000   50.00000   90.00000   90.00000   90.00000
LATT -1
SFAC C  
C      1  0.3924810000000  0.5101350000000  0.4745840000000 1.0
C      1  0.5330230000000  0.5047450000000  0.4356200000000 1.0
C      1  0.4350330000000  0.5615020000000  0.5732570000000 1.0
C      1  0.5363530000000  0.5208210000000  0.5034750000000 1.0
C      1  0.5407390000000  0.4240920000000  0.5456160000000 1.0
C      1  0.4784180000000  0.6019600000000  0.5137410000000 1.0
C      1  0.4728530000000  0.5853830000000  0.4425460000000 1.0
C      1  0.4880050000000  0.4049020000000  0.4519940000000 1.0
C      1  0.5506130000000  0.4904910000000  0.4551910000000 1.0
C      1  0.5653830000000  0.4161030000000  0.5002660000000 1.0
C      1  0.4855670000000  0.4449040000000  0.5941040000000 1.0
C      1  0.4758720000000  0.5472960000000  0.5143050000000 1.0
C      1  0.5898800000000  0.5415910000000  0.5511780000000 1.0
C      1  0.4461880000000  0.5279520000000  0.4217920000000 1.0
C      1  0.5163690000000  0.5198030000000  0.4094460000000 1.0
C      1  0.4840670000000  0.4164280000000  0.4905860000000 1.0
C      1  0.5978600000000  0.4392560000000  0.5337930000000 1.0
C      1  0.4669360000000  0.5174030000000  0.5142820000000 1.0
C      1  0.5583770000000  0.5466430000000  0.5068330000000 1.0
C      1  0.5919350000000  0.5232220000000  0.4390880000000 1.0
C      1  0.4772510000000  0.4719030000000  0.6033810000000 1.0
C      1  0.4982100000000  0.4656680000000  0.5558060000000 1.0
C      1  0.4520640000000  0.4866980000000  0.6006650000000 1.0
C      1  0.4580920000000  0.5524390000000  0.5520070000000 1.0
C      1  0.5323210000000  0.4824210000000  0.3970060000000 1.0
C      1  0.5432190000000  0.4867930000000  0.5232660000000 1.0
C      1  0.4894210000000  0.4820030000000  0.5297350000000 1.0
C      1  0.4201800000000  0.5780480000000  0.4386500000000 1.0
C      1  0.5310490000000  0.5640170000000  0.5746010000000 1.0
C      1  0.4747810000000  0.4812160000000  0.4765720000000 1.0
C      1  0.4912330000000  0.5929340000000  0.5440840000000 1.0
C      1  0.4197220000000  0.5845690000000  0.5133140000000 1.0
C      1  0.4796760000000  0.5593310000000  0.4605930000000 1.0
C      1  0.4928210000000  0.4874380000000  0.4372570000000 1.0
C      1  0.4889520000000  0.4107590000000  0.5588140000000 1.0
C      1  0.5536010000000  0.4691420000000  0.4763950000000 1.0
C      1  0.4403920000000  0.4934610000000  0.5533410000000 1.0
C      1  0.5064310000000  0.4887450000000  0.4834380000000 1.0
C      1  0.5579050000000  0.4408990000000  0.4620370000000 1.0
C      1  0.5038360000000  0.4429150000000  0.4117160000000 1.0
C      1  0.4477890000000  0.5979480000000  0.4998870000000 1.0
C      1  0.4168370000000  0.4341060000000  0.4417000000000 1.0
C      1  0.5206200000000  0.5336730000000  0.4465880000000 1.0
C      1  0.5614260000000  0.4746690000000  0.5489590000000 1.0
C      1  0.5745780000000  0.5661490000000  0.5377670000000 1.0
C      1  0.4620550000000  0.5570790000000  0.4165810000000 1.0
C      1  0.5210720000000  0.5446740000000  0.4848270000000 1.0
C      1  0.4544980000000  0.4083710000000  0.4909200000000 1.0
C      1  0.4511420000000  0.4642540000000  0.4121790000000 1.0
C      1  0.5387040000000  0.5836250000000  0.4405250000000 1.0
C      1  0.5179110000000  0.4160860000000  0.5690700000000 1.0
C      1  0.4684120000000  0.4270980000000  0.4554720000000 1.0
C      1  0.4583970000000  0.5181370000000  0.5907920000000 1.0
C      1  0.5164040000000  0.4798950000000  0.5108000000000 1.0
C      1  0.5991940000000  0.4956280000000  0.4830840000000 1.0
C      1  0.4444480000000  0.4614360000000  0.5123960000000 1.0
C      1  0.5178480000000  0.5891420000000  0.5039430000000 1.0
C      1  0.4348000000000  0.4521480000000  0.4649750000000 1.0
C      1  0.4845900000000  0.5504690000000  0.5671700000000 1.0
C      1  0.5936280000000  0.4951660000000  0.5343940000000 1.0
C      1  0.4123180000000  0.5530910000000  0.4491950000000 1.0
C      1  0.4357030000000  0.4386050000000  0.5324910000000 1.0
C      1  0.5922720000000  0.4312390000000  0.5046760000000 1.0
C      1  0.4585350000000  0.5213900000000  0.5463810000000 1.0
C      1  0.4292410000000  0.5081600000000  0.5061000000000 1.0
C      1  0.5779240000000  0.4948200000000  0.4245720000000 1.0
C      1  0.4710860000000  0.5952990000000  0.4750990000000 1.0
C      1  0.5055410000000  0.3935970000000  0.4791490000000 1.0
C      1  0.4672890000000  0.5645800000000  0.4901490000000 1.0
C      1  0.4899670000000  0.5098350000000  0.5458950000000 1.0
C      1  0.5709790000000  0.5878000000000  0.5201170000000 1.0
C      1  0.5157750000000  0.4287080000000  0.4951670000000 1.0
C      1  0.5447740000000  0.5366750000000  0.4150640000000 1.0
C      1  0.5145380000000  0.5171660000000  0.5247410000000 1.0
C      1  0.5740700000000  0.5125750000000  0.4930190000000 1.0
C      1  0.5741150000000  0.4614270000000  0.5235960000000 1.0
C      1  0.5741130000000  0.4635880000000  0.4377240000000 1.0
C      1  0.5117260000000  0.4407080000000  0.5454030000000 1.0
C      1  0.5130880000000  0.5379210000000  0.5621310000000 1.0
C      1  0.5508900000000  0.5467550000000  0.5529340000000 1.0
C      1  0.4667200000000  0.5333990000000  0.4483840000000 1.0
C      1  0.4878800000000  0.3971500000000  0.5335050000000 1.0
C      1  0.4378300000000  0.4121250000000  0.5204660000000 1.0
C      1  0.5529740000000  0.5040130000000  0.4084660000000 1.0
C      1  0.5078290000000  0.4385720000000  0.4441790000000 1.0
C      1  0.4147860000000  0.5234210000000  0.5516810000000 1.0
C      1  0.4069090000000  0.4641500000000  0.4379370000000 1.0
C      1  0.4111610000000  0.4826760000000  0.5183610000000 1.0
C      1  0.5318380000000  0.4561540000000  0.4065390000000 1.0
C      1  0.4211350000000  0.5444240000000  0.4780300000000 1.0
C      1  0.6113520000000  0.4664820000000  0.5371030000000 1.0
C      1  0.4780850000000  0.4971890000000  0.5724390000000 1.0
C      1  0.6011550000000  0.5730200000000  0.4785230000000 1.0
C      1  0.5553890000000  0.4459740000000  0.5012490000000 1.0
C      1  0.5688400000000  0.5259710000000  0.5732870000000 1.0
C      1  0.5100160000000  0.5163360000000  0.4738770000000 1.0
C      1  0.5382710000000  0.5653550000000  0.5169880000000 1.0
C      1  0.5152040000000  0.5712540000000  0.5391080000000 1.0
C      1  0.4979340000000  0.6077770000000  0.4862640000000 1.0
C      1  0.4096800000000  0.5058030000000  0.4464110000000 1.0
C      1  0.5449800000000  0.4208160000000  0.4405830000000 1.0
C      1  0.4881150000000  0.5356770000000  0.4121610000000 1.0
C      1  0.5949240000000  0.4841490000000  0.5874720000000 1.0
C      1  0.5652980000000  0.4841530000000  0.5008850000000 1.0
C      1  0.4713310000000  0.4281550000000  0.5741520000000 1.0
C      1  0.4842120000000  0.5665690000000  0.5943370000000 1.0
C      1  0.4212390000000  0.4793020000000  0.4109300000000 1.0
C      1  0.5244030000000  0.5600650000000  0.4291040000000 1.0
C      1  0.4037780000000  0.4792920000000  0.4673750000000 1.0
C      1  0.4219720000000  0.4672680000000  0.4900280000000 1.0
C      1  0.5223580000000  0.4018970000000  0.4506910000000 1.0
C      1  0.5156410000000  0.4831890000000  0.5741880000000 1.0
C      1  0.5226430000000  0.5965040000000  0.4656180000000 1.0
C      1  0.4463690000000  0.4430440000000  0.5623660000000 1.0
C      1  0.4206290000000  0.4672300000000  0.5438620000000 1.0
C      1  0.4484600000000  0.4370170000000  0.4306170000000 1.0
C      1  0.5058570000000  0.4949510000000  0.3904950000000 1.0
C      1  0.4445990000000  0.5821010000000  0.4277770000000 1.0
C      1  0.5488620000000  0.5142130000000  0.5408750000000 1.0
C      1  0.5081860000000  0.4679580000000  0.4590790000000 1.0
C      1  0.4598400000000  0.4694570000000  0.4508290000000 1.0
C      1  0.5656000000000  0.5552740000000  0.4753790000000 1.0
C      1  0.4793200000000  0.4474730000000  0.4776700000000 1.0
C      1  0.5139940000000  0.4380540000000  0.5916090000000 1.0
C      1  0.3972180000000  0.5301670000000  0.4980030000000 1.0
C      1  0.4445590000000  0.5237850000000  0.4689700000000 1.0
C      1  0.5833270000000  0.4972050000000  0.4572860000000 1.0
C      1  0.3954040000000  0.5112950000000  0.5263630000000 1.0
C      1  0.4342030000000  0.4846370000000  0.4421240000000 1.0
C      1  0.4372890000000  0.4187050000000  0.4642270000000 1.0
C      1  0.4495250000000  0.4982780000000  0.4079790000000 1.0
C      1  0.5410220000000  0.5987670000000  0.5260550000000 1.0
C      1  0.4800830000000  0.5038210000000  0.4108030000000 1.0
C      1  0.5609420000000  0.5321960000000  0.4431080000000 1.0
C      1  0.5795030000000  0.5882150000000  0.4926490000000 1.0
C      1  0.4215030000000  0.3999790000000  0.4935470000000 1.0
C      1  0.5933930000000  0.4587630000000  0.4617780000000 1.0
C      1  0.5522840000000  0.5257670000000  0.4734950000000 1.0
C      1  0.4320320000000  0.5319560000000  0.5743530000000 1.0
C      1  0.5785190000000  0.4967800000000  0.5648800000000 1.0
C      1  0.5037760000000  0.5845170000000  0.5748620000000 1.0
C      1  0.4084920000000  0.5566420000000  0.5162090000000 1.0
C      1  0.4612740000000  0.3911460000000  0.5263260000000 1.0
C      1  0.5059270000000  0.5695280000000  0.4784260000000 1.0
C      1  0.4941500000000  0.5661930000000  0.4239830000000 1.0
C      1  0.5546040000000  0.5854540000000  0.4702220000000 1.0
C      1  0.5425040000000  0.5044830000000  0.5942710000000 1.0
C      1  0.5415450000000  0.5376320000000  0.5907220000000 1.0
C      1  0.4675000000000  0.4667600000000  0.5650330000000 1.0
C      1  0.5260360000000  0.4410040000000  0.4700600000000 1.0
C      1  0.4835200000000  0.5367810000000  0.6041660000000 1.0
C      1  0.5044620000000  0.4115330000000  0.4232680000000 1.0
C      1  0.4999650000000  0.4953940000000  0.5983340000000 1.0
C      1  0.4357690000000  0.5676260000000  0.4893940000000 1.0
C      1  0.5086430000000  0.3943370000000  0.5130570000000 1.0
C      1  0.4559530000000  0.5020600000000  0.4883490000000 1.0
C      1  0.5771620000000  0.5237170000000  0.5251050000000 1.0
C      1  0.4662880000000  0.5746380000000  0.5303220000000 1.0
C      1  0.5372800000000  0.4124350000000  0.5159990000000 1.0
C      1  0.4280930000000  0.5328030000000  0.5231550000000 1.0
C      1  0.5290350000000  0.5974840000000  0.5561600000000 1.0
C      1  0.4803640000000  0.4603080000000  0.4250950000000 1.0
C      1  0.4172810000000  0.5304810000000  0.4325250000000 1.0
C      1  0.5499850000000  0.4511410000000  0.5636380000000 1.0
C      1  0.5313960000000  0.4588370000000  0.5835570000000 1.0
C      1  0.4757940000000  0.4573040000000  0.5084510000000 1.0
C      1  0.4171390000000  0.4531440000000  0.5748650000000 1.0
C      1  0.5128110000000  0.5241300000000  0.6040990000000 1.0
C      1  0.5991950000000  0.4542230000000  0.4880110000000 1.0
C      1  0.4562320000000  0.4871160000000  0.5262700000000 1.0
C      1  0.5522610000000  0.4455820000000  0.4231090000000 1.0
C      1  0.5280460000000  0.5112950000000  0.5640910000000 1.0
C      1  0.4916440000000  0.5167360000000  0.4471450000000 1.0
C      1  0.6074920000000  0.4793960000000  0.5073130000000 1.0
C      1  0.5941100000000  0.5500540000000  0.4598950000000 1.0
C      1  0.4329480000000  0.4792440000000  0.5805900000000 1.0
C      1  0.5066060000000  0.4486560000000  0.5162810000000 1.0
C      1  0.5009140000000  0.5450970000000  0.5311330000000 1.0
END
