TITL C-2778429-3646-876 -0.00097472598356056 125000 -1024.05433999718 0 0 178 (C1) n - 1
REM
REM in /home/nfs/bkarasulu/CARBON/AIRSS/Generating-Clusters/REBO/Only-C1/SD-CG/HFTN-CG
REM
REM
REM
REM
REM
REM ./C.cell (11c1c37f851c82e70ff6c80c92926a4b)
REM
REM compiler GCC version 9.2.1 20190827 (Red Hat 9.2.1-1)
REM options -cpp -mtune=generic -march=x86-64 -g -O0 -fpre-include=/usr/include/finclude/math-vector-fortran.h
REM seed -563073688 -114557591 -549870713 762983209 1397488361 -1445343982 -1788975887 -1012791213 -800400057 -225047169 -1128429064 1050199720 499248795 -1989374290 -757511484 1228960330 -869965873 969361099 618974704 -761275716 2049652238 1359453059 89318860 1911589384 -530327416 1945538083 -61568550 -749317939 479256093 1340487989 -1058552243 -447988577 -229725116
REM
CELL 1.54180   50.00000   50.00000   50.00000   90.00000   90.00000   90.00000
LATT -1
SFAC C  
C      1  0.5475030000000  0.4829580000000  0.4807280000000 1.0
C      1  0.4651090000000  0.4026880000000  0.5131970000000 1.0
C      1  0.5659250000000  0.4335250000000  0.4458390000000 1.0
C      1  0.4204140000000  0.4270070000000  0.5061300000000 1.0
C      1  0.5156290000000  0.4444640000000  0.5623570000000 1.0
C      1  0.4350030000000  0.5890260000000  0.4894300000000 1.0
C      1  0.5033140000000  0.5730190000000  0.4311300000000 1.0
C      1  0.5017350000000  0.5604320000000  0.5052640000000 1.0
C      1  0.4933310000000  0.4495450000000  0.5159070000000 1.0
C      1  0.6202690000000  0.5124790000000  0.4764010000000 1.0
C      1  0.4698360000000  0.4919420000000  0.4580630000000 1.0
C      1  0.4398740000000  0.5434550000000  0.5248960000000 1.0
C      1  0.4598420000000  0.4144320000000  0.4573450000000 1.0
C      1  0.6005240000000  0.5078660000000  0.5205520000000 1.0
C      1  0.4413590000000  0.4218510000000  0.5242440000000 1.0
C      1  0.4838160000000  0.5135260000000  0.5509660000000 1.0
C      1  0.4776590000000  0.5961180000000  0.4935130000000 1.0
C      1  0.5649380000000  0.4417100000000  0.5613850000000 1.0
C      1  0.4717080000000  0.4816510000000  0.5026710000000 1.0
C      1  0.5421580000000  0.4822050000000  0.4510460000000 1.0
C      1  0.5032840000000  0.4525600000000  0.4850790000000 1.0
C      1  0.5658100000000  0.4098660000000  0.4704790000000 1.0
C      1  0.4884940000000  0.5227870000000  0.5057810000000 1.0
C      1  0.4322740000000  0.5269740000000  0.4266420000000 1.0
C      1  0.5540760000000  0.5554350000000  0.5298840000000 1.0
C      1  0.5411430000000  0.5676330000000  0.5741170000000 1.0
C      1  0.4291520000000  0.4285070000000  0.4762820000000 1.0
C      1  0.6148360000000  0.4818990000000  0.5052370000000 1.0
C      1  0.5760820000000  0.5187180000000  0.5023450000000 1.0
C      1  0.5391200000000  0.5331500000000  0.4576690000000 1.0
C      1  0.5240210000000  0.5095480000000  0.4427030000000 1.0
C      1  0.4225980000000  0.5200570000000  0.5091760000000 1.0
C      1  0.4029920000000  0.5427990000000  0.4690420000000 1.0
C      1  0.5327030000000  0.5834160000000  0.4385330000000 1.0
C      1  0.4322730000000  0.5743420000000  0.5179400000000 1.0
C      1  0.4264410000000  0.4458940000000  0.5527860000000 1.0
C      1  0.4537490000000  0.6009190000000  0.5154170000000 1.0
C      1  0.5449200000000  0.5242950000000  0.4896720000000 1.0
C      1  0.5498070000000  0.4523770000000  0.4918820000000 1.0
C      1  0.5647280000000  0.4366840000000  0.5091030000000 1.0
C      1  0.4865650000000  0.4296990000000  0.5611980000000 1.0
C      1  0.3967520000000  0.4961700000000  0.5589090000000 1.0
C      1  0.4319940000000  0.4610660000000  0.5235320000000 1.0
C      1  0.5201460000000  0.4696460000000  0.5521170000000 1.0
C      1  0.4492850000000  0.4683700000000  0.4103430000000 1.0
C      1  0.5822880000000  0.5349990000000  0.4777230000000 1.0
C      1  0.5086980000000  0.5051600000000  0.5210480000000 1.0
C      1  0.4805740000000  0.4175960000000  0.4305690000000 1.0
C      1  0.5055790000000  0.5877680000000  0.5204110000000 1.0
C      1  0.4816150000000  0.5523660000000  0.5591310000000 1.0
C      1  0.6242070000000  0.5205470000000  0.5024340000000 1.0
C      1  0.5792840000000  0.4629530000000  0.4360450000000 1.0
C      1  0.4095920000000  0.4315470000000  0.5659010000000 1.0
C      1  0.5614360000000  0.4663250000000  0.4071120000000 1.0
C      1  0.5032470000000  0.6206560000000  0.4573060000000 1.0
C      1  0.4417090000000  0.5735410000000  0.4644920000000 1.0
C      1  0.5257860000000  0.4993970000000  0.4949580000000 1.0
C      1  0.5334620000000  0.4820410000000  0.3957010000000 1.0
C      1  0.5512430000000  0.5786240000000  0.5499950000000 1.0
C      1  0.4864020000000  0.5274360000000  0.6067950000000 1.0
C      1  0.5980330000000  0.4977750000000  0.4708980000000 1.0
C      1  0.5155570000000  0.5258050000000  0.5472780000000 1.0
C      1  0.5867010000000  0.4276980000000  0.5728280000000 1.0
C      1  0.4269570000000  0.4618520000000  0.4358130000000 1.0
C      1  0.4482180000000  0.5029000000000  0.4111680000000 1.0
C      1  0.5047230000000  0.5842600000000  0.5530810000000 1.0
C      1  0.4603650000000  0.5125790000000  0.5994400000000 1.0
C      1  0.4697990000000  0.5747000000000  0.5806070000000 1.0
C      1  0.5196010000000  0.5391700000000  0.4007760000000 1.0
C      1  0.4487500000000  0.4396410000000  0.4378340000000 1.0
C      1  0.4960750000000  0.5500970000000  0.3970750000000 1.0
C      1  0.4796000000000  0.5473550000000  0.5253570000000 1.0
C      1  0.3975560000000  0.4453620000000  0.5063120000000 1.0
C      1  0.5144850000000  0.4868320000000  0.4228520000000 1.0
C      1  0.4922330000000  0.3848370000000  0.5080250000000 1.0
C      1  0.5334760000000  0.5492500000000  0.5065660000000 1.0
C      1  0.5516630000000  0.3925680000000  0.5167650000000 1.0
C      1  0.5831900000000  0.5284020000000  0.4501760000000 1.0
C      1  0.4756900000000  0.4800680000000  0.4283730000000 1.0
C      1  0.5450940000000  0.5283890000000  0.6003800000000 1.0
C      1  0.4328300000000  0.4984170000000  0.4713650000000 1.0
C      1  0.4394430000000  0.4907580000000  0.4412220000000 1.0
C      1  0.5574210000000  0.4941990000000  0.4250080000000 1.0
C      1  0.4502260000000  0.5220280000000  0.4795700000000 1.0
C      1  0.4974210000000  0.4809060000000  0.4914870000000 1.0
C      1  0.4996770000000  0.4778410000000  0.5312350000000 1.0
C      1  0.5478400000000  0.5283730000000  0.5445850000000 1.0
C      1  0.4716370000000  0.5574690000000  0.4056730000000 1.0
C      1  0.5268620000000  0.5566950000000  0.4747990000000 1.0
C      1  0.5311960000000  0.4005810000000  0.5322020000000 1.0
C      1  0.4689720000000  0.5690780000000  0.4826270000000 1.0
C      1  0.4744690000000  0.4504220000000  0.5829120000000 1.0
C      1  0.5160140000000  0.4082750000000  0.4678250000000 1.0
C      1  0.5667280000000  0.5714040000000  0.5051540000000 1.0
C      1  0.4994570000000  0.4809730000000  0.3932830000000 1.0
C      1  0.4977950000000  0.5225000000000  0.4298310000000 1.0
C      1  0.5277460000000  0.4692520000000  0.5913050000000 1.0
C      1  0.4012080000000  0.5454030000000  0.5152060000000 1.0
C      1  0.4859070000000  0.3965420000000  0.5390080000000 1.0
C      1  0.4353870000000  0.4895410000000  0.5955520000000 1.0
C      1  0.4831680000000  0.4824440000000  0.5593340000000 1.0
C      1  0.4780950000000  0.5141270000000  0.4804680000000 1.0
C      1  0.5371120000000  0.4519010000000  0.4457450000000 1.0
C      1  0.4108680000000  0.4871570000000  0.5848860000000 1.0
C      1  0.4871400000000  0.5487660000000  0.4414250000000 1.0
C      1  0.5422480000000  0.5400040000000  0.4244590000000 1.0
C      1  0.5569610000000  0.4675570000000  0.5778010000000 1.0
C      1  0.4153200000000  0.4490700000000  0.4618760000000 1.0
C      1  0.4569040000000  0.4610660000000  0.5547730000000 1.0
C      1  0.5185790000000  0.4364000000000  0.4225570000000 1.0
C      1  0.5129580000000  0.5538840000000  0.5668860000000 1.0
C      1  0.5904310000000  0.4592800000000  0.4673910000000 1.0
C      1  0.4999050000000  0.4728820000000  0.5874420000000 1.0
C      1  0.5516420000000  0.5548540000000  0.5969600000000 1.0
C      1  0.5688640000000  0.5497310000000  0.4369430000000 1.0
C      1  0.5841420000000  0.5418910000000  0.5776490000000 1.0
C      1  0.4031930000000  0.5103900000000  0.4755620000000 1.0
C      1  0.3810380000000  0.4990720000000  0.5365390000000 1.0
C      1  0.4674310000000  0.4394260000000  0.4092970000000 1.0
C      1  0.6131060000000  0.4634880000000  0.4853500000000 1.0
C      1  0.4944630000000  0.5551290000000  0.4719810000000 1.0
C      1  0.4551230000000  0.5506810000000  0.4327260000000 1.0
C      1  0.5693700000000  0.5221720000000  0.5677420000000 1.0
C      1  0.5714500000000  0.4518170000000  0.5320700000000 1.0
C      1  0.5352560000000  0.5093250000000  0.5840540000000 1.0
C      1  0.5408680000000  0.4901380000000  0.5599230000000 1.0
C      1  0.5731770000000  0.5613540000000  0.4803120000000 1.0
C      1  0.4676260000000  0.4802910000000  0.5961060000000 1.0
C      1  0.5275310000000  0.4460010000000  0.4742950000000 1.0
C      1  0.4478590000000  0.5468710000000  0.4934690000000 1.0
C      1  0.4978490000000  0.4259770000000  0.4557140000000 1.0
C      1  0.4425070000000  0.4886410000000  0.5408290000000 1.0
C      1  0.4529390000000  0.4531540000000  0.5001620000000 1.0
C      1  0.4438680000000  0.5622650000000  0.5675430000000 1.0
C      1  0.4595730000000  0.4220300000000  0.4888360000000 1.0
C      1  0.4786100000000  0.5985690000000  0.5360610000000 1.0
C      1  0.5135880000000  0.4014080000000  0.4946200000000 1.0
C      1  0.6116370000000  0.4874050000000  0.5741800000000 1.0
C      1  0.3939540000000  0.5569020000000  0.4905820000000 1.0
C      1  0.4145970000000  0.4813060000000  0.5024020000000 1.0
C      1  0.5049170000000  0.4199020000000  0.5219740000000 1.0
C      1  0.5091940000000  0.6046700000000  0.4348320000000 1.0
C      1  0.4080140000000  0.5149200000000  0.4419960000000 1.0
C      1  0.4456550000000  0.5312290000000  0.5806610000000 1.0
C      1  0.5407870000000  0.4038320000000  0.4542590000000 1.0
C      1  0.5405410000000  0.5133550000000  0.4061450000000 1.0
C      1  0.5253110000000  0.6097050000000  0.5106920000000 1.0
C      1  0.5043520000000  0.5409680000000  0.5965180000000 1.0
C      1  0.5657140000000  0.4099110000000  0.4991390000000 1.0
C      1  0.5779110000000  0.4917970000000  0.5744360000000 1.0
C      1  0.4196210000000  0.5416370000000  0.5608530000000 1.0
C      1  0.5477710000000  0.6032780000000  0.5355580000000 1.0
C      1  0.5059470000000  0.6056950000000  0.4846660000000 1.0
C      1  0.5733780000000  0.4786780000000  0.5223290000000 1.0
C      1  0.5846840000000  0.4963790000000  0.4421870000000 1.0
C      1  0.4622770000000  0.5718910000000  0.5415090000000 1.0
C      1  0.5982420000000  0.5022830000000  0.5490260000000 1.0
C      1  0.3994830000000  0.4628620000000  0.4811740000000 1.0
C      1  0.5571080000000  0.5743150000000  0.4555940000000 1.0
C      1  0.4855650000000  0.4565990000000  0.3894390000000 1.0
C      1  0.5555240000000  0.6001200000000  0.5029640000000 1.0
C      1  0.4541550000000  0.5262130000000  0.5479890000000 1.0
C      1  0.4695480000000  0.4370450000000  0.5342200000000 1.0
C      1  0.4446630000000  0.4960640000000  0.5094750000000 1.0
C      1  0.3926890000000  0.5046600000000  0.5075460000000 1.0
C      1  0.4997030000000  0.4591970000000  0.4335410000000 1.0
C      1  0.5351320000000  0.5889110000000  0.4780600000000 1.0
C      1  0.4260340000000  0.5506310000000  0.4506010000000 1.0
C      1  0.5775960000000  0.4809210000000  0.4907620000000 1.0
C      1  0.5106270000000  0.4054310000000  0.5587450000000 1.0
C      1  0.4249640000000  0.5093160000000  0.5548860000000 1.0
C      1  0.4820980000000  0.5056520000000  0.4090780000000 1.0
C      1  0.5385360000000  0.4250910000000  0.5616810000000 1.0
C      1  0.3992040000000  0.5523000000000  0.5413250000000 1.0
C      1  0.4503500000000  0.4684860000000  0.4720940000000 1.0
C      1  0.4749310000000  0.4511280000000  0.4556060000000 1.0
C      1  0.5421010000000  0.4172380000000  0.4269880000000 1.0
C      1  0.5604040000000  0.4990000000000  0.5364940000000 1.0
END
