TITL C-2778436-5916-965 0.0003066052889429 125000 -484.174388075447 0 0 84 (C1) n - 1
REM
REM in /home/nfs/bkarasulu/CARBON/AIRSS/Generating-Clusters/REBO/Only-C1/SD-CG/HFTN-CG
REM
REM
REM
REM
REM
REM ./C.cell (11c1c37f851c82e70ff6c80c92926a4b)
REM
REM compiler GCC version 9.2.1 20190827 (Red Hat 9.2.1-1)
REM options -cpp -mtune=generic -march=x86-64 -g -O0 -fpre-include=/usr/include/finclude/math-vector-fortran.h
REM seed 923699876 -392474006 -279975233 -1445859541 157173748 817357635 1720076200 -255402897 565690498 -1547469239 -2416501 -863082276 -1954358845 604687815 -2102632186 -1456221704 1840715841 -565780079 -221427860 -1561048688 -1335229480 -1955079131 1746224522 -63460204 636660948 -789111788 2134162137 1730376768 -1817248892 -1180494068 2047328801 -460725228 1114113022
REM
CELL 1.54180   50.00000   50.00000   50.00000   90.00000   90.00000   90.00000
LATT -1
SFAC C  
C      1  0.5472940000000  0.4712760000000  0.4715320000000 1.0
C      1  0.5293640000000  0.4928780000000  0.5785980000000 1.0
C      1  0.4709970000000  0.4527390000000  0.5264760000000 1.0
C      1  0.4592450000000  0.4536310000000  0.4402090000000 1.0
C      1  0.4872280000000  0.4484040000000  0.4433410000000 1.0
C      1  0.4847320000000  0.4413460000000  0.5554310000000 1.0
C      1  0.4303200000000  0.5470010000000  0.5226780000000 1.0
C      1  0.4614170000000  0.5398750000000  0.4502940000000 1.0
C      1  0.5407650000000  0.5191920000000  0.5686080000000 1.0
C      1  0.5286820000000  0.5759460000000  0.4878180000000 1.0
C      1  0.4726900000000  0.5241930000000  0.5629950000000 1.0
C      1  0.4822220000000  0.5898520000000  0.4980610000000 1.0
C      1  0.5746460000000  0.4548490000000  0.5063510000000 1.0
C      1  0.4287170000000  0.5169280000000  0.4829080000000 1.0
C      1  0.5638890000000  0.5198980000000  0.5509270000000 1.0
C      1  0.5804320000000  0.5438990000000  0.5466360000000 1.0
C      1  0.4119810000000  0.4733020000000  0.4862010000000 1.0
C      1  0.4291660000000  0.5209030000000  0.5101270000000 1.0
C      1  0.4907580000000  0.5463230000000  0.5640900000000 1.0
C      1  0.5302620000000  0.4312210000000  0.5003360000000 1.0
C      1  0.5113380000000  0.5467620000000  0.4752090000000 1.0
C      1  0.5405510000000  0.4320560000000  0.4677900000000 1.0
C      1  0.5169880000000  0.4205220000000  0.5250600000000 1.0
C      1  0.5096970000000  0.5408160000000  0.4185520000000 1.0
C      1  0.5642390000000  0.5367650000000  0.4524080000000 1.0
C      1  0.5816240000000  0.5198680000000  0.5065920000000 1.0
C      1  0.5656420000000  0.4904090000000  0.4697210000000 1.0
C      1  0.4503060000000  0.4819430000000  0.4447290000000 1.0
C      1  0.4237670000000  0.4806460000000  0.4634390000000 1.0
C      1  0.5353890000000  0.5297150000000  0.4048440000000 1.0
C      1  0.5341900000000  0.4553740000000  0.4497900000000 1.0
C      1  0.4481460000000  0.4745810000000  0.5711970000000 1.0
C      1  0.4921930000000  0.4354640000000  0.4684590000000 1.0
C      1  0.4759060000000  0.5029330000000  0.4461660000000 1.0
C      1  0.4709710000000  0.5424260000000  0.4991470000000 1.0
C      1  0.4561990000000  0.5564850000000  0.5240340000000 1.0
C      1  0.4515320000000  0.5008530000000  0.5611090000000 1.0
C      1  0.4969820000000  0.5768810000000  0.4785470000000 1.0
C      1  0.5057520000000  0.4736090000000  0.5010000000000 1.0
C      1  0.5415010000000  0.5353500000000  0.4851370000000 1.0
C      1  0.4901090000000  0.5355620000000  0.5256280000000 1.0
C      1  0.4814810000000  0.5050450000000  0.5358370000000 1.0
C      1  0.4941180000000  0.4769050000000  0.5307410000000 1.0
C      1  0.4515950000000  0.4854510000000  0.4917400000000 1.0
C      1  0.5622720000000  0.4359230000000  0.4914980000000 1.0
C      1  0.4490510000000  0.5032050000000  0.5272640000000 1.0
C      1  0.5358290000000  0.4649160000000  0.4990020000000 1.0
C      1  0.5689160000000  0.5191520000000  0.4791670000000 1.0
C      1  0.4716150000000  0.4591090000000  0.5776140000000 1.0
C      1  0.4880030000000  0.4508870000000  0.4904440000000 1.0
C      1  0.5911020000000  0.5435200000000  0.5203440000000 1.0
C      1  0.4862120000000  0.5395410000000  0.4340250000000 1.0
C      1  0.4607560000000  0.4242650000000  0.5391920000000 1.0
C      1  0.5186600000000  0.5197330000000  0.5353720000000 1.0
C      1  0.4449510000000  0.5136270000000  0.4561680000000 1.0
C      1  0.5265270000000  0.5111440000000  0.4390140000000 1.0
C      1  0.5565700000000  0.4760480000000  0.5229470000000 1.0
C      1  0.4990430000000  0.5031760000000  0.4907150000000 1.0
C      1  0.5182430000000  0.5387700000000  0.5619230000000 1.0
C      1  0.4077060000000  0.4651960000000  0.5114040000000 1.0
C      1  0.4680300000000  0.5099350000000  0.4987210000000 1.0
C      1  0.5098600000000  0.4654670000000  0.4380540000000 1.0
C      1  0.4422380000000  0.4352000000000  0.4541670000000 1.0
C      1  0.4829110000000  0.5657590000000  0.5401190000000 1.0
C      1  0.5394980000000  0.5301120000000  0.3780160000000 1.0
C      1  0.5561300000000  0.5178400000000  0.4252920000000 1.0
C      1  0.4949910000000  0.5231570000000  0.4638390000000 1.0
C      1  0.5170450000000  0.4912490000000  0.5476640000000 1.0
C      1  0.4400170000000  0.4365200000000  0.4816570000000 1.0
C      1  0.5056130000000  0.4935570000000  0.4391260000000 1.0
C      1  0.4254560000000  0.4611250000000  0.5606960000000 1.0
C      1  0.5126710000000  0.4313580000000  0.5498860000000 1.0
C      1  0.4957730000000  0.5876620000000  0.5237810000000 1.0
C      1  0.5342400000000  0.4465880000000  0.5599190000000 1.0
C      1  0.5326370000000  0.5449140000000  0.4416440000000 1.0
C      1  0.5466650000000  0.5628760000000  0.4656950000000 1.0
C      1  0.5292610000000  0.4772650000000  0.6007440000000 1.0
C      1  0.4579110000000  0.4559110000000  0.4980010000000 1.0
C      1  0.5233070000000  0.5854220000000  0.5175770000000 1.0
C      1  0.5682800000000  0.5035470000000  0.5264070000000 1.0
C      1  0.4637750000000  0.5553900000000  0.4728010000000 1.0
C      1  0.4117500000000  0.4597400000000  0.5374020000000 1.0
C      1  0.5405430000000  0.4701070000000  0.5479300000000 1.0
C      1  0.5209170000000  0.5210080000000  0.5042770000000 1.0
END
