TITL C-2778433-5640-1161 -0.00377659653470382 125000 -1054.59272958328 0 0 184 (C1) n - 1
REM
REM in /home/nfs/bkarasulu/CARBON/AIRSS/Generating-Clusters/REBO/Only-C1/SD-CG/HFTN-CG
REM
REM
REM
REM
REM
REM ./C.cell (11c1c37f851c82e70ff6c80c92926a4b)
REM
REM compiler GCC version 9.2.1 20190827 (Red Hat 9.2.1-1)
REM options -cpp -mtune=generic -march=x86-64 -g -O0 -fpre-include=/usr/include/finclude/math-vector-fortran.h
REM seed -1541630531 1645859200 -1408245109 -410711209 1745580831 387936441 -1792866285 -514061082 -622562893 -1630550481 2123017054 425087466 1107684075 432094050 2095542651 -478719077 1781463584 -873411029 -273126757 -1188765637 953288051 -498221272 -1669232448 -1338839040 1967283733 537957429 -1440371134 -860272500 389989020 1577594543 1466871866 252026525 -555999493
REM
CELL 1.54180   50.00000   50.00000   50.00000   90.00000   90.00000   90.00000
LATT -1
SFAC C  
C      1  0.4894270000000  0.5874190000000  0.4957640000000 1.0
C      1  0.5223190000000  0.3948360000000  0.4943980000000 1.0
C      1  0.4892590000000  0.3923890000000  0.5000060000000 1.0
C      1  0.5540360000000  0.4053680000000  0.4386320000000 1.0
C      1  0.5079990000000  0.4218810000000  0.4812990000000 1.0
C      1  0.4794610000000  0.5316980000000  0.6017960000000 1.0
C      1  0.4407250000000  0.5072350000000  0.3978860000000 1.0
C      1  0.5534970000000  0.5369260000000  0.4062130000000 1.0
C      1  0.4368640000000  0.5373660000000  0.5040550000000 1.0
C      1  0.4552970000000  0.6016720000000  0.4621790000000 1.0
C      1  0.4931260000000  0.5152370000000  0.3962830000000 1.0
C      1  0.5348600000000  0.5147230000000  0.5783130000000 1.0
C      1  0.5727390000000  0.5480630000000  0.5057260000000 1.0
C      1  0.5274020000000  0.5171830000000  0.3965350000000 1.0
C      1  0.5758510000000  0.4936730000000  0.5319830000000 1.0
C      1  0.4749420000000  0.4440900000000  0.5381320000000 1.0
C      1  0.4867640000000  0.4982500000000  0.5447720000000 1.0
C      1  0.4831840000000  0.4593260000000  0.6028440000000 1.0
C      1  0.4535910000000  0.6102190000000  0.4929420000000 1.0
C      1  0.5553470000000  0.4669400000000  0.4580150000000 1.0
C      1  0.4379270000000  0.5194200000000  0.5473920000000 1.0
C      1  0.4586860000000  0.4402490000000  0.4850840000000 1.0
C      1  0.5312420000000  0.5462770000000  0.4236290000000 1.0
C      1  0.4819500000000  0.5446510000000  0.4067780000000 1.0
C      1  0.4698790000000  0.5900400000000  0.5499120000000 1.0
C      1  0.5242670000000  0.5499860000000  0.5090420000000 1.0
C      1  0.5315530000000  0.4926340000000  0.4167180000000 1.0
C      1  0.4666380000000  0.4286850000000  0.5639040000000 1.0
C      1  0.4360930000000  0.4866130000000  0.5407790000000 1.0
C      1  0.5349180000000  0.4203730000000  0.4166560000000 1.0
C      1  0.5066560000000  0.5395820000000  0.5557690000000 1.0
C      1  0.5418860000000  0.5397220000000  0.4535900000000 1.0
C      1  0.5635110000000  0.5164760000000  0.4412300000000 1.0
C      1  0.4442420000000  0.5456400000000  0.5592790000000 1.0
C      1  0.4674870000000  0.4179840000000  0.5213890000000 1.0
C      1  0.4080950000000  0.5366240000000  0.5272500000000 1.0
C      1  0.5295250000000  0.4384580000000  0.4681800000000 1.0
C      1  0.5540650000000  0.4790420000000  0.6097480000000 1.0
C      1  0.5025590000000  0.5154010000000  0.4736450000000 1.0
C      1  0.4926340000000  0.5132260000000  0.6240030000000 1.0
C      1  0.4847210000000  0.4067530000000  0.5643230000000 1.0
C      1  0.4346670000000  0.5464250000000  0.5875590000000 1.0
C      1  0.4935350000000  0.5807950000000  0.4188950000000 1.0
C      1  0.5623020000000  0.5505540000000  0.5513780000000 1.0
C      1  0.6082690000000  0.4624760000000  0.4764650000000 1.0
C      1  0.5512830000000  0.4371620000000  0.5938780000000 1.0
C      1  0.4350170000000  0.4607130000000  0.4895610000000 1.0
C      1  0.5263040000000  0.5744580000000  0.4872990000000 1.0
C      1  0.5283970000000  0.4415770000000  0.3989170000000 1.0
C      1  0.5462220000000  0.4524140000000  0.5731850000000 1.0
C      1  0.5307000000000  0.5519280000000  0.5383490000000 1.0
C      1  0.5010860000000  0.4825240000000  0.4287480000000 1.0
C      1  0.4076020000000  0.4760940000000  0.5561600000000 1.0
C      1  0.5109790000000  0.4159910000000  0.5732630000000 1.0
C      1  0.4104920000000  0.5848490000000  0.4974510000000 1.0
C      1  0.5346040000000  0.5704900000000  0.5743210000000 1.0
C      1  0.4799750000000  0.5659880000000  0.5280340000000 1.0
C      1  0.4158380000000  0.4041060000000  0.4918250000000 1.0
C      1  0.4186220000000  0.4054510000000  0.5316780000000 1.0
C      1  0.5193930000000  0.4646670000000  0.3871410000000 1.0
C      1  0.4947400000000  0.5560790000000  0.5034380000000 1.0
C      1  0.5816630000000  0.5403230000000  0.4551530000000 1.0
C      1  0.5276210000000  0.4694900000000  0.6092130000000 1.0
C      1  0.5553360000000  0.4224170000000  0.4943140000000 1.0
C      1  0.5703990000000  0.4995880000000  0.5879690000000 1.0
C      1  0.4723560000000  0.5391500000000  0.4845430000000 1.0
C      1  0.4725500000000  0.4887060000000  0.5157200000000 1.0
C      1  0.3888760000000  0.4993500000000  0.4725030000000 1.0
C      1  0.4993100000000  0.5164020000000  0.5047500000000 1.0
C      1  0.6195710000000  0.4736470000000  0.5066190000000 1.0
C      1  0.5162910000000  0.4626150000000  0.4487930000000 1.0
C      1  0.5724310000000  0.5862530000000  0.4724880000000 1.0
C      1  0.4617780000000  0.4499400000000  0.5813730000000 1.0
C      1  0.4114550000000  0.4664420000000  0.4718480000000 1.0
C      1  0.4909390000000  0.5423180000000  0.4577460000000 1.0
C      1  0.5095780000000  0.5661840000000  0.4615940000000 1.0
C      1  0.4906890000000  0.5547110000000  0.5819390000000 1.0
C      1  0.4616170000000  0.4854440000000  0.5983180000000 1.0
C      1  0.4007930000000  0.5066130000000  0.5415660000000 1.0
C      1  0.4134100000000  0.5626630000000  0.5411210000000 1.0
C      1  0.5087920000000  0.6075360000000  0.5152500000000 1.0
C      1  0.6023420000000  0.4874560000000  0.4541040000000 1.0
C      1  0.4757660000000  0.4790630000000  0.5692620000000 1.0
C      1  0.4697840000000  0.4961670000000  0.4054500000000 1.0
C      1  0.5285040000000  0.4128050000000  0.5500250000000 1.0
C      1  0.4896850000000  0.5161810000000  0.5733010000000 1.0
C      1  0.5730620000000  0.4412890000000  0.5337470000000 1.0
C      1  0.6173480000000  0.4960580000000  0.4817070000000 1.0
C      1  0.4614550000000  0.5715820000000  0.4876800000000 1.0
C      1  0.5465240000000  0.4710760000000  0.5113010000000 1.0
C      1  0.5803070000000  0.4288150000000  0.5087590000000 1.0
C      1  0.4336230000000  0.4506180000000  0.4223330000000 1.0
C      1  0.4184920000000  0.5045140000000  0.5713740000000 1.0
C      1  0.4413060000000  0.5754460000000  0.5381950000000 1.0
C      1  0.5413500000000  0.4767280000000  0.5419520000000 1.0
C      1  0.5072450000000  0.4544940000000  0.5405940000000 1.0
C      1  0.5442480000000  0.5061670000000  0.5303540000000 1.0
C      1  0.5080870000000  0.6117140000000  0.4824040000000 1.0
C      1  0.5354590000000  0.4691730000000  0.4827140000000 1.0
C      1  0.4870270000000  0.5041780000000  0.4464430000000 1.0
C      1  0.5727760000000  0.5696230000000  0.4441250000000 1.0
C      1  0.5870460000000  0.4758220000000  0.4286170000000 1.0
C      1  0.4556710000000  0.4651940000000  0.5318750000000 1.0
C      1  0.5880180000000  0.4639330000000  0.5410630000000 1.0
C      1  0.5588810000000  0.4241540000000  0.4632310000000 1.0
C      1  0.5905150000000  0.4983990000000  0.5610620000000 1.0
C      1  0.4229790000000  0.5269680000000  0.4456840000000 1.0
C      1  0.4345380000000  0.4395400000000  0.4535360000000 1.0
C      1  0.5407120000000  0.5837700000000  0.5461590000000 1.0
C      1  0.5939770000000  0.4965320000000  0.5054870000000 1.0
C      1  0.5112150000000  0.5573560000000  0.4079690000000 1.0
C      1  0.5062010000000  0.4669330000000  0.5692260000000 1.0
C      1  0.5480770000000  0.5410140000000  0.4871130000000 1.0
C      1  0.4372870000000  0.4978450000000  0.5960520000000 1.0
C      1  0.6149410000000  0.4623830000000  0.5344540000000 1.0
C      1  0.4711760000000  0.5578700000000  0.5579120000000 1.0
C      1  0.5119760000000  0.4443300000000  0.5921610000000 1.0
C      1  0.4065490000000  0.5128220000000  0.4952440000000 1.0
C      1  0.5462340000000  0.5906450000000  0.4419900000000 1.0
C      1  0.5624580000000  0.5721770000000  0.5249080000000 1.0
C      1  0.4796130000000  0.4652720000000  0.4122870000000 1.0
C      1  0.5032910000000  0.4656940000000  0.4806430000000 1.0
C      1  0.5068710000000  0.4915850000000  0.6149820000000 1.0
C      1  0.4016990000000  0.4776560000000  0.5226480000000 1.0
C      1  0.4585110000000  0.4826940000000  0.4856760000000 1.0
C      1  0.5647530000000  0.4931950000000  0.4212770000000 1.0
C      1  0.4849900000000  0.3935930000000  0.5337350000000 1.0
C      1  0.4727530000000  0.5298240000000  0.4328060000000 1.0
C      1  0.5811890000000  0.5087950000000  0.4683900000000 1.0
C      1  0.4977510000000  0.5988030000000  0.5618120000000 1.0
C      1  0.4814940000000  0.4504550000000  0.4638410000000 1.0
C      1  0.4358260000000  0.4239650000000  0.5239830000000 1.0
C      1  0.5154560000000  0.4132840000000  0.4404650000000 1.0
C      1  0.5565320000000  0.5826940000000  0.4950070000000 1.0
C      1  0.4777970000000  0.4071610000000  0.4735520000000 1.0
C      1  0.4632090000000  0.5098080000000  0.4696290000000 1.0
C      1  0.5759560000000  0.5496590000000  0.4167390000000 1.0
C      1  0.5098290000000  0.4943800000000  0.5835710000000 1.0
C      1  0.5879020000000  0.4371600000000  0.4765410000000 1.0
C      1  0.5786870000000  0.5283980000000  0.5713800000000 1.0
C      1  0.4489530000000  0.4863830000000  0.4309700000000 1.0
C      1  0.4310160000000  0.5062280000000  0.5160900000000 1.0
C      1  0.5163290000000  0.5818100000000  0.4389920000000 1.0
C      1  0.4310400000000  0.4218890000000  0.4811100000000 1.0
C      1  0.5633720000000  0.4952980000000  0.4940160000000 1.0
C      1  0.4590550000000  0.4158240000000  0.4536350000000 1.0
C      1  0.5081490000000  0.5795300000000  0.5813480000000 1.0
C      1  0.4961420000000  0.4648510000000  0.5114420000000 1.0
C      1  0.4660520000000  0.5682750000000  0.4263080000000 1.0
C      1  0.4941850000000  0.4299480000000  0.4435050000000 1.0
C      1  0.5316270000000  0.5114370000000  0.4648260000000 1.0
C      1  0.5118500000000  0.4902530000000  0.3823160000000 1.0
C      1  0.3934860000000  0.5408390000000  0.5003690000000 1.0
C      1  0.4859700000000  0.4357360000000  0.5006110000000 1.0
C      1  0.4494950000000  0.5379670000000  0.6061860000000 1.0
C      1  0.4450580000000  0.5189270000000  0.4270960000000 1.0
C      1  0.5138450000000  0.5157920000000  0.5338540000000 1.0
C      1  0.4026880000000  0.5012450000000  0.4476940000000 1.0
C      1  0.4184800000000  0.4743770000000  0.4407530000000 1.0
C      1  0.5794620000000  0.4552240000000  0.4497550000000 1.0
C      1  0.5332300000000  0.5121080000000  0.4990760000000 1.0
C      1  0.4787680000000  0.6194700000000  0.4744220000000 1.0
C      1  0.5462930000000  0.4841570000000  0.5711660000000 1.0
C      1  0.5412050000000  0.5412420000000  0.5756480000000 1.0
C      1  0.5395790000000  0.4417750000000  0.5412400000000 1.0
C      1  0.4656570000000  0.4389170000000  0.4289850000000 1.0
C      1  0.5342620000000  0.6017770000000  0.4682780000000 1.0
C      1  0.5354900000000  0.4888100000000  0.4479130000000 1.0
C      1  0.4527860000000  0.5708120000000  0.4546830000000 1.0
C      1  0.5174140000000  0.6032560000000  0.5412930000000 1.0
C      1  0.5967950000000  0.5260400000000  0.5424560000000 1.0
C      1  0.4267730000000  0.4548430000000  0.5187260000000 1.0
C      1  0.4306100000000  0.5125180000000  0.4740000000000 1.0
C      1  0.5929280000000  0.5345540000000  0.5175740000000 1.0
C      1  0.4507920000000  0.4614270000000  0.3998240000000 1.0
C      1  0.3907300000000  0.4762320000000  0.4930610000000 1.0
C      1  0.4547440000000  0.4668550000000  0.4554880000000 1.0
C      1  0.4354460000000  0.5464400000000  0.4710380000000 1.0
C      1  0.5309890000000  0.3957620000000  0.4618480000000 1.0
C      1  0.3919760000000  0.5661280000000  0.4914650000000 1.0
C      1  0.4396600000000  0.5855920000000  0.5081450000000 1.0
C      1  0.4666190000000  0.5223290000000  0.5124630000000 1.0
C      1  0.5173180000000  0.3968650000000  0.5277230000000 1.0
C      1  0.5360260000000  0.4384860000000  0.5076370000000 1.0
END
