TITL C-2778432-5617-1464 -0.00429217237430369 125000 -665.100011076826 0 0 114 (C1) n - 1
REM
REM in /home/nfs/bkarasulu/CARBON/AIRSS/Generating-Clusters/REBO/Only-C1/SD-CG/HFTN-CG
REM
REM
REM
REM
REM
REM ./C.cell (11c1c37f851c82e70ff6c80c92926a4b)
REM
REM compiler GCC version 9.2.1 20190827 (Red Hat 9.2.1-1)
REM options -cpp -mtune=generic -march=x86-64 -g -O0 -fpre-include=/usr/include/finclude/math-vector-fortran.h
REM seed 729118302 -1617650723 -2108304012 1979481605 1589238390 73811783 -1083919675 339180048 -1609020329 -1426885394 843491943 873455410 612230521 -678913178 -826294820 991322357 -829100085 -1817245746 341526033 -1361675404 1575812896 -1095636122 2018971036 -1144048906 1721413810 1177202593 138408539 -1870645449 -365520023 -1678962820 1675355642 -568501784 651456802
REM
CELL 1.54180   50.00000   50.00000   50.00000   90.00000   90.00000   90.00000
LATT -1
SFAC C  
C      1  0.5102610000000  0.5097460000000  0.5904460000000 1.0
C      1  0.5115380000000  0.4624230000000  0.5867340000000 1.0
C      1  0.5222780000000  0.4516100000000  0.5055780000000 1.0
C      1  0.5318190000000  0.4704520000000  0.5300250000000 1.0
C      1  0.5007980000000  0.4508040000000  0.4796600000000 1.0
C      1  0.5871160000000  0.5058620000000  0.4909240000000 1.0
C      1  0.4965730000000  0.4181190000000  0.4464620000000 1.0
C      1  0.5119050000000  0.4617740000000  0.4430030000000 1.0
C      1  0.4069720000000  0.5022210000000  0.4683070000000 1.0
C      1  0.5317820000000  0.5617440000000  0.4711180000000 1.0
C      1  0.5203240000000  0.5359890000000  0.5260330000000 1.0
C      1  0.4942300000000  0.4994260000000  0.4941320000000 1.0
C      1  0.4692140000000  0.4844460000000  0.5784580000000 1.0
C      1  0.4974910000000  0.5544200000000  0.4263930000000 1.0
C      1  0.4284660000000  0.4899650000000  0.4506800000000 1.0
C      1  0.4652060000000  0.5455300000000  0.5237760000000 1.0
C      1  0.5244270000000  0.5409050000000  0.4309620000000 1.0
C      1  0.4853520000000  0.5051550000000  0.5594890000000 1.0
C      1  0.4322280000000  0.5242430000000  0.4708640000000 1.0
C      1  0.5404540000000  0.4500760000000  0.4283440000000 1.0
C      1  0.5467000000000  0.4821180000000  0.5783010000000 1.0
C      1  0.5900330000000  0.4816020000000  0.5146530000000 1.0
C      1  0.4339630000000  0.5687290000000  0.5071330000000 1.0
C      1  0.4784840000000  0.5952300000000  0.5098170000000 1.0
C      1  0.4487750000000  0.4503410000000  0.5453320000000 1.0
C      1  0.5017120000000  0.5109040000000  0.5237040000000 1.0
C      1  0.5479120000000  0.4725380000000  0.4604390000000 1.0
C      1  0.4421040000000  0.4451030000000  0.4704700000000 1.0
C      1  0.5519370000000  0.5591120000000  0.4919480000000 1.0
C      1  0.4900070000000  0.4191600000000  0.5476930000000 1.0
C      1  0.4511680000000  0.5677040000000  0.5429250000000 1.0
C      1  0.5299080000000  0.4468910000000  0.4667610000000 1.0
C      1  0.5418400000000  0.4163440000000  0.5335450000000 1.0
C      1  0.4026000000000  0.4997190000000  0.4987230000000 1.0
C      1  0.4895580000000  0.5813120000000  0.4323220000000 1.0
C      1  0.5067660000000  0.5452570000000  0.4715720000000 1.0
C      1  0.4863120000000  0.4743370000000  0.4625680000000 1.0
C      1  0.5224700000000  0.4259330000000  0.5563070000000 1.0
C      1  0.4516230000000  0.4956430000000  0.5190520000000 1.0
C      1  0.5077820000000  0.4934920000000  0.4189960000000 1.0
C      1  0.4579410000000  0.5240190000000  0.4253750000000 1.0
C      1  0.4248900000000  0.5474520000000  0.5316780000000 1.0
C      1  0.4409140000000  0.4958790000000  0.4882000000000 1.0
C      1  0.5833480000000  0.4927810000000  0.4631310000000 1.0
C      1  0.4415170000000  0.4970500000000  0.4255560000000 1.0
C      1  0.4525620000000  0.4740320000000  0.4668650000000 1.0
C      1  0.5401300000000  0.4488100000000  0.5743310000000 1.0
C      1  0.4190850000000  0.5438130000000  0.4923880000000 1.0
C      1  0.4633130000000  0.5389440000000  0.5670600000000 1.0
C      1  0.5396510000000  0.4881090000000  0.4313700000000 1.0
C      1  0.4835470000000  0.5634030000000  0.5544800000000 1.0
C      1  0.5681310000000  0.5132570000000  0.5448120000000 1.0
C      1  0.4372160000000  0.5031340000000  0.5472460000000 1.0
C      1  0.5615820000000  0.5080340000000  0.4481120000000 1.0
C      1  0.5629460000000  0.5518730000000  0.5367050000000 1.0
C      1  0.4941020000000  0.5314050000000  0.5758140000000 1.0
C      1  0.4690020000000  0.5209850000000  0.4924830000000 1.0
C      1  0.4752330000000  0.5844800000000  0.4569040000000 1.0
C      1  0.4066190000000  0.5254340000000  0.5128940000000 1.0
C      1  0.4388730000000  0.4868550000000  0.5693470000000 1.0
C      1  0.5783240000000  0.4851690000000  0.5407910000000 1.0
C      1  0.4476240000000  0.4271200000000  0.5132950000000 1.0
C      1  0.5368470000000  0.5084130000000  0.5806840000000 1.0
C      1  0.5178100000000  0.5704440000000  0.5260160000000 1.0
C      1  0.4901160000000  0.4649640000000  0.4188930000000 1.0
C      1  0.5055530000000  0.4550600000000  0.5557630000000 1.0
C      1  0.4576100000000  0.5530110000000  0.4912640000000 1.0
C      1  0.5654600000000  0.5127960000000  0.5150800000000 1.0
C      1  0.4499090000000  0.5386580000000  0.4490980000000 1.0
C      1  0.4833620000000  0.5059310000000  0.4503230000000 1.0
C      1  0.4492660000000  0.5930230000000  0.5211270000000 1.0
C      1  0.5218250000000  0.5123000000000  0.4417460000000 1.0
C      1  0.4799460000000  0.4782620000000  0.5167920000000 1.0
C      1  0.5042880000000  0.4193620000000  0.5205220000000 1.0
C      1  0.4831150000000  0.4235490000000  0.4766790000000 1.0
C      1  0.4946560000000  0.5393420000000  0.4956200000000 1.0
C      1  0.4963850000000  0.4526350000000  0.5255230000000 1.0
C      1  0.5438000000000  0.5563780000000  0.4448840000000 1.0
C      1  0.4713220000000  0.5177580000000  0.5321480000000 1.0
C      1  0.4553440000000  0.4270600000000  0.4860290000000 1.0
C      1  0.4965960000000  0.4852860000000  0.5936060000000 1.0
C      1  0.5553530000000  0.4673130000000  0.5500520000000 1.0
C      1  0.5614350000000  0.4386790000000  0.4439970000000 1.0
C      1  0.5796600000000  0.4605830000000  0.4601360000000 1.0
C      1  0.5168800000000  0.5031640000000  0.4742540000000 1.0
C      1  0.4291710000000  0.4533730000000  0.5210870000000 1.0
C      1  0.5061410000000  0.4101950000000  0.4950670000000 1.0
C      1  0.4857130000000  0.5188630000000  0.4127080000000 1.0
C      1  0.5439770000000  0.5239110000000  0.4724740000000 1.0
C      1  0.4601090000000  0.5614250000000  0.4626740000000 1.0
C      1  0.4897180000000  0.5638870000000  0.5124470000000 1.0
C      1  0.5438390000000  0.4882780000000  0.4894910000000 1.0
C      1  0.5451270000000  0.5333650000000  0.5590900000000 1.0
C      1  0.4896460000000  0.5342260000000  0.4494190000000 1.0
C      1  0.5469400000000  0.4189790000000  0.4627990000000 1.0
C      1  0.5714180000000  0.4685380000000  0.4923560000000 1.0
C      1  0.5670460000000  0.4375350000000  0.4978750000000 1.0
C      1  0.5185880000000  0.4085550000000  0.4667180000000 1.0
C      1  0.4907940000000  0.4330970000000  0.4249270000000 1.0
C      1  0.5688790000000  0.5400790000000  0.4563330000000 1.0
C      1  0.4951040000000  0.5916140000000  0.5393700000000 1.0
C      1  0.5083700000000  0.4867740000000  0.5435000000000 1.0
C      1  0.5859770000000  0.5462850000000  0.5213830000000 1.0
C      1  0.4697110000000  0.4861470000000  0.4285010000000 1.0
C      1  0.4681780000000  0.4712740000000  0.5473070000000 1.0
C      1  0.4194870000000  0.4755340000000  0.5069650000000 1.0
C      1  0.5375290000000  0.5188880000000  0.5044840000000 1.0
C      1  0.4621140000000  0.4224520000000  0.5431620000000 1.0
C      1  0.4799310000000  0.6017740000000  0.4792490000000 1.0
C      1  0.4399200000000  0.5307630000000  0.5531740000000 1.0
C      1  0.5794370000000  0.5390840000000  0.4887340000000 1.0
C      1  0.5138420000000  0.5471270000000  0.5576090000000 1.0
C      1  0.5438490000000  0.4301800000000  0.5099080000000 1.0
C      1  0.5462700000000  0.5654060000000  0.5184670000000 1.0
END
