TITL C-2778424-3986-388 -0.00392750763269414 125000 -188.169668848417 0 0 33 (C1) n - 1
REM
REM in /home/nfs/bkarasulu/CARBON/AIRSS/Generating-Clusters/REBO/Only-C1/SD-CG/HFTN-CG
REM
REM
REM
REM
REM
REM ./C.cell (11c1c37f851c82e70ff6c80c92926a4b)
REM
REM compiler GCC version 9.2.1 20190827 (Red Hat 9.2.1-1)
REM options -cpp -mtune=generic -march=x86-64 -g -O0 -fpre-include=/usr/include/finclude/math-vector-fortran.h
REM seed -1955182452 547611465 1280831322 1303941404 -128886554 -1575270047 599580077 -163971379 1746594565 483328607 -2064756472 -2118485499 294876254 800918053 863851522 -76307709 -1524404980 -1362896302 421460280 -1255411942 2002910570 713813931 692870559 -605097343 108793092 2050064876 -366200619 1221696883 1669318109 2020218099 -396355609 -1656663569 210815039
REM
CELL 1.54180   50.00000   50.00000   50.00000   90.00000   90.00000   90.00000
LATT -1
SFAC C  
C      1  0.4750540000000  0.4607200000000  0.5046000000000 1.0
C      1  0.4886340000000  0.4992630000000  0.5599680000000 1.0
C      1  0.4780310000000  0.5451650000000  0.4661700000000 1.0
C      1  0.5192430000000  0.5111740000000  0.4468550000000 1.0
C      1  0.4583220000000  0.4838950000000  0.4990720000000 1.0
C      1  0.5157980000000  0.4897800000000  0.5602050000000 1.0
C      1  0.4981810000000  0.4580060000000  0.4857110000000 1.0
C      1  0.4612080000000  0.5258860000000  0.5299040000000 1.0
C      1  0.4511380000000  0.4931840000000  0.4365680000000 1.0
C      1  0.4693750000000  0.4819940000000  0.5459320000000 1.0
C      1  0.5635600000000  0.4948710000000  0.4825780000000 1.0
C      1  0.4826560000000  0.5274270000000  0.5526180000000 1.0
C      1  0.4770520000000  0.4571920000000  0.5330220000000 1.0
C      1  0.4847040000000  0.5437750000000  0.5163200000000 1.0
C      1  0.4639520000000  0.5188390000000  0.4529680000000 1.0
C      1  0.5312740000000  0.5407090000000  0.5364600000000 1.0
C      1  0.5028670000000  0.5495530000000  0.5453660000000 1.0
C      1  0.5162500000000  0.4976440000000  0.5126430000000 1.0
C      1  0.5583440000000  0.5008690000000  0.5337830000000 1.0
C      1  0.5363520000000  0.4912280000000  0.4684680000000 1.0
C      1  0.5078450000000  0.4318140000000  0.4661060000000 1.0
C      1  0.4554170000000  0.4982690000000  0.5244130000000 1.0
C      1  0.5316540000000  0.4885110000000  0.5362230000000 1.0
C      1  0.4643030000000  0.4662830000000  0.4483650000000 1.0
C      1  0.4845270000000  0.4504300000000  0.4562320000000 1.0
C      1  0.4556420000000  0.4908970000000  0.4705220000000 1.0
C      1  0.5124620000000  0.5262370000000  0.5148940000000 1.0
C      1  0.5561650000000  0.5284260000000  0.5419820000000 1.0
C      1  0.5373780000000  0.4885470000000  0.4345580000000 1.0
C      1  0.4779470000000  0.5568450000000  0.4899730000000 1.0
C      1  0.5167860000000  0.4814170000000  0.4890360000000 1.0
C      1  0.4967090000000  0.5251430000000  0.4498010000000 1.0
C      1  0.5711680000000  0.4960090000000  0.5086790000000 1.0
END
