TITL C-2778434-4341-1361 -0.000116692999959781 125000 -296.002196320827 0 0 51 (C1) n - 1
REM
REM in /home/nfs/bkarasulu/CARBON/AIRSS/Generating-Clusters/REBO/Only-C1/SD-CG/HFTN-CG
REM
REM
REM
REM
REM
REM ./C.cell (11c1c37f851c82e70ff6c80c92926a4b)
REM
REM compiler GCC version 9.2.1 20190827 (Red Hat 9.2.1-1)
REM options -cpp -mtune=generic -march=x86-64 -g -O0 -fpre-include=/usr/include/finclude/math-vector-fortran.h
REM seed 270439333 -1550474835 1019503287 -422972983 664349617 431416007 -479453757 -1856251358 166786850 -1742437260 787676401 -1962041104 -1568538883 67979914 1771311766 106982397 -1570075641 1734702777 320547395 -713881085 -899993125 -1533468509 -1672863732 60464824 1593597333 762112221 -106704489 -1148754395 -141061625 -267321346 -69493182 1904045871 -1316924056
REM
CELL 1.54180   50.00000   50.00000   50.00000   90.00000   90.00000   90.00000
LATT -1
SFAC C  
C      1  0.4720300000000  0.4604450000000  0.4279220000000 1.0
C      1  0.4545230000000  0.5110900000000  0.5475220000000 1.0
C      1  0.4699360000000  0.4317750000000  0.4875840000000 1.0
C      1  0.5316790000000  0.5390940000000  0.5499900000000 1.0
C      1  0.4497850000000  0.4684500000000  0.4432280000000 1.0
C      1  0.5681410000000  0.4626720000000  0.5199670000000 1.0
C      1  0.4837600000000  0.5479650000000  0.5321470000000 1.0
C      1  0.4154350000000  0.4967050000000  0.5804290000000 1.0
C      1  0.3961370000000  0.4896040000000  0.5966760000000 1.0
C      1  0.4828080000000  0.4267180000000  0.4638640000000 1.0
C      1  0.4932960000000  0.4992180000000  0.5387420000000 1.0
C      1  0.4522700000000  0.4930100000000  0.4646660000000 1.0
C      1  0.4605000000000  0.5234390000000  0.4644550000000 1.0
C      1  0.5025290000000  0.5041520000000  0.5061160000000 1.0
C      1  0.4895150000000  0.5596960000000  0.4626520000000 1.0
C      1  0.5506990000000  0.4640340000000  0.4737350000000 1.0
C      1  0.4851380000000  0.4376000000000  0.4387550000000 1.0
C      1  0.4387730000000  0.4646800000000  0.4729410000000 1.0
C      1  0.5239260000000  0.5596540000000  0.5004960000000 1.0
C      1  0.5737890000000  0.4621180000000  0.4915080000000 1.0
C      1  0.5417890000000  0.5099270000000  0.4483380000000 1.0
C      1  0.5455180000000  0.5591410000000  0.5260600000000 1.0
C      1  0.5172530000000  0.5589750000000  0.4693420000000 1.0
C      1  0.5579650000000  0.5282650000000  0.5308460000000 1.0
C      1  0.5226420000000  0.5271840000000  0.4923210000000 1.0
C      1  0.5416170000000  0.5112770000000  0.5103410000000 1.0
C      1  0.5096930000000  0.4538930000000  0.5101400000000 1.0
C      1  0.4744410000000  0.5033780000000  0.4884340000000 1.0
C      1  0.4568480000000  0.5069000000000  0.5166930000000 1.0
C      1  0.5746020000000  0.4809940000000  0.5427070000000 1.0
C      1  0.4701280000000  0.5374970000000  0.5087730000000 1.0
C      1  0.5532840000000  0.4802800000000  0.5628210000000 1.0
C      1  0.5273540000000  0.4871910000000  0.5230320000000 1.0
C      1  0.5115220000000  0.5591690000000  0.5311680000000 1.0
C      1  0.5256690000000  0.4532970000000  0.4836650000000 1.0
C      1  0.4841730000000  0.5337030000000  0.4176310000000 1.0
C      1  0.5289130000000  0.4899840000000  0.5540340000000 1.0
C      1  0.4532360000000  0.4538270000000  0.4948710000000 1.0
C      1  0.4815720000000  0.5262410000000  0.5544870000000 1.0
C      1  0.4839400000000  0.5544790000000  0.4350870000000 1.0
C      1  0.5135480000000  0.5168230000000  0.5602300000000 1.0
C      1  0.4896210000000  0.4703280000000  0.5229150000000 1.0
C      1  0.4852330000000  0.5079110000000  0.4098310000000 1.0
C      1  0.4721830000000  0.5447390000000  0.4810970000000 1.0
C      1  0.4630550000000  0.4737020000000  0.5125290000000 1.0
C      1  0.4350450000000  0.5039220000000  0.5639200000000 1.0
C      1  0.5394570000000  0.4585650000000  0.5207080000000 1.0
C      1  0.5816330000000  0.5087360000000  0.5373610000000 1.0
C      1  0.5494340000000  0.4845640000000  0.4542930000000 1.0
C      1  0.4830250000000  0.4809930000000  0.4119180000000 1.0
C      1  0.5309370000000  0.5319950000000  0.4610120000000 1.0
END
