TITL C-2778437-8639-436 -0.00238950303443239 125000 -738.953884039046 0 0 127 (C1) n - 1
REM
REM in /home/nfs/bkarasulu/CARBON/AIRSS/Generating-Clusters/REBO/Only-C1/SD-CG/HFTN-CG
REM
REM
REM
REM
REM
REM ./C.cell (11c1c37f851c82e70ff6c80c92926a4b)
REM
REM compiler GCC version 9.2.1 20190827 (Red Hat 9.2.1-1)
REM options -cpp -mtune=generic -march=x86-64 -g -O0 -fpre-include=/usr/include/finclude/math-vector-fortran.h
REM seed 1121354448 -1151166165 1187804500 998791848 916796857 -1293236562 1247717376 754923934 -1601254437 -1175900629 1158972690 2104628693 1513083345 1515005558 658740342 -1604189932 -973112195 436894049 -518268319 360413450 -1875491099 1051256867 1705680166 -1496232330 -1975761769 -2097158628 1173780560 -84333008 -1923201820 -275023507 1507903830 1413784039 -1196135207
REM
CELL 1.54180   50.00000   50.00000   50.00000   90.00000   90.00000   90.00000
LATT -1
SFAC C  
C      1  0.5319840000000  0.4380060000000  0.4495550000000 1.0
C      1  0.5105520000000  0.4494450000000  0.5131940000000 1.0
C      1  0.4513570000000  0.4646930000000  0.4575130000000 1.0
C      1  0.5330060000000  0.5274280000000  0.5018850000000 1.0
C      1  0.5431360000000  0.4985900000000  0.5046260000000 1.0
C      1  0.4631450000000  0.5455180000000  0.4731420000000 1.0
C      1  0.5118290000000  0.4662670000000  0.4771210000000 1.0
C      1  0.6006200000000  0.5299760000000  0.4729860000000 1.0
C      1  0.4887770000000  0.4685490000000  0.4229860000000 1.0
C      1  0.5501120000000  0.4845260000000  0.5667090000000 1.0
C      1  0.5338870000000  0.5852460000000  0.5385720000000 1.0
C      1  0.5310580000000  0.5455870000000  0.4750540000000 1.0
C      1  0.4238970000000  0.5033430000000  0.4341930000000 1.0
C      1  0.5026780000000  0.4001290000000  0.4947800000000 1.0
C      1  0.4581220000000  0.4670180000000  0.4306030000000 1.0
C      1  0.4365560000000  0.4721490000000  0.4984040000000 1.0
C      1  0.5592280000000  0.4828100000000  0.4462120000000 1.0
C      1  0.4046800000000  0.5003850000000  0.5186520000000 1.0
C      1  0.5486260000000  0.4315880000000  0.4791100000000 1.0
C      1  0.5477030000000  0.5618110000000  0.4427490000000 1.0
C      1  0.4520080000000  0.4166470000000  0.4750340000000 1.0
C      1  0.5908280000000  0.4744630000000  0.4992580000000 1.0
C      1  0.5442100000000  0.5366770000000  0.4296870000000 1.0
C      1  0.5848470000000  0.5509810000000  0.4833470000000 1.0
C      1  0.4370740000000  0.5731260000000  0.5142870000000 1.0
C      1  0.4118900000000  0.4505700000000  0.4871400000000 1.0
C      1  0.5045870000000  0.4407480000000  0.4300760000000 1.0
C      1  0.4416130000000  0.4882070000000  0.4172880000000 1.0
C      1  0.5187250000000  0.5844590000000  0.4862990000000 1.0
C      1  0.5610410000000  0.4918380000000  0.4790570000000 1.0
C      1  0.5525280000000  0.5114360000000  0.5747310000000 1.0
C      1  0.4821120000000  0.5293480000000  0.5906580000000 1.0
C      1  0.4536400000000  0.4785340000000  0.5814910000000 1.0
C      1  0.5030280000000  0.4828110000000  0.5594280000000 1.0
C      1  0.4083210000000  0.4666170000000  0.5170770000000 1.0
C      1  0.4442890000000  0.5220380000000  0.5064220000000 1.0
C      1  0.4931470000000  0.4992490000000  0.4646060000000 1.0
C      1  0.4710330000000  0.5770340000000  0.4743270000000 1.0
C      1  0.5402190000000  0.5092880000000  0.5367620000000 1.0
C      1  0.4973190000000  0.5074510000000  0.6073290000000 1.0
C      1  0.4449700000000  0.4555120000000  0.5580960000000 1.0
C      1  0.5905520000000  0.4897550000000  0.4354060000000 1.0
C      1  0.5606330000000  0.4295080000000  0.5108910000000 1.0
C      1  0.4349460000000  0.5041580000000  0.5687890000000 1.0
C      1  0.4816890000000  0.4901360000000  0.5836510000000 1.0
C      1  0.5308030000000  0.4612580000000  0.5777020000000 1.0
C      1  0.4914070000000  0.4814250000000  0.5273860000000 1.0
C      1  0.4816010000000  0.5287990000000  0.4939100000000 1.0
C      1  0.4638540000000  0.5867950000000  0.5235030000000 1.0
C      1  0.5570580000000  0.4794620000000  0.5366890000000 1.0
C      1  0.5070830000000  0.5014810000000  0.4096660000000 1.0
C      1  0.4443230000000  0.5067180000000  0.4803300000000 1.0
C      1  0.4425610000000  0.4850370000000  0.5441580000000 1.0
C      1  0.5488980000000  0.5528890000000  0.5099910000000 1.0
C      1  0.4622430000000  0.5216180000000  0.4247410000000 1.0
C      1  0.4221950000000  0.4652640000000  0.4621910000000 1.0
C      1  0.5216380000000  0.5771330000000  0.4525350000000 1.0
C      1  0.5620280000000  0.4634300000000  0.5070720000000 1.0
C      1  0.4139550000000  0.5407250000000  0.4851350000000 1.0
C      1  0.4674210000000  0.4852940000000  0.4768170000000 1.0
C      1  0.4878730000000  0.5840130000000  0.5006990000000 1.0
C      1  0.4837240000000  0.5536960000000  0.5140910000000 1.0
C      1  0.5602200000000  0.5154960000000  0.4375010000000 1.0
C      1  0.4816080000000  0.5139120000000  0.5245430000000 1.0
C      1  0.4441370000000  0.4950490000000  0.5185890000000 1.0
C      1  0.4736620000000  0.4948400000000  0.4069010000000 1.0
C      1  0.6074140000000  0.4845790000000  0.4164870000000 1.0
C      1  0.5077770000000  0.4766480000000  0.4470820000000 1.0
C      1  0.5149590000000  0.4053190000000  0.5213590000000 1.0
C      1  0.4756610000000  0.5719610000000  0.5487430000000 1.0
C      1  0.4726790000000  0.5771990000000  0.4272620000000 1.0
C      1  0.4715620000000  0.5471240000000  0.4414340000000 1.0
C      1  0.4597240000000  0.5221420000000  0.5433100000000 1.0
C      1  0.5011790000000  0.5596210000000  0.4317410000000 1.0
C      1  0.4931950000000  0.4235700000000  0.5380690000000 1.0
C      1  0.4514370000000  0.5531230000000  0.5546300000000 1.0
C      1  0.5061080000000  0.5266860000000  0.5733860000000 1.0
C      1  0.4233380000000  0.5422340000000  0.5400750000000 1.0
C      1  0.5180940000000  0.4894920000000  0.5898190000000 1.0
C      1  0.5621210000000  0.5580010000000  0.4682100000000 1.0
C      1  0.5104940000000  0.5178080000000  0.5421010000000 1.0
C      1  0.4763420000000  0.4093570000000  0.5132660000000 1.0
C      1  0.4337580000000  0.5414720000000  0.4636980000000 1.0
C      1  0.4127540000000  0.5649240000000  0.5010660000000 1.0
C      1  0.4560690000000  0.5284840000000  0.5764860000000 1.0
C      1  0.5368840000000  0.4674680000000  0.4362830000000 1.0
C      1  0.4263850000000  0.4367550000000  0.5137260000000 1.0
C      1  0.5847220000000  0.5357320000000  0.5339860000000 1.0
C      1  0.6040550000000  0.4874370000000  0.5240000000000 1.0
C      1  0.5078580000000  0.5211430000000  0.4810950000000 1.0
C      1  0.4646510000000  0.5936790000000  0.4492030000000 1.0
C      1  0.4515130000000  0.4488760000000  0.5268820000000 1.0
C      1  0.5868990000000  0.4402970000000  0.5280530000000 1.0
C      1  0.4529520000000  0.5480670000000  0.5138540000000 1.0
C      1  0.4803950000000  0.4509660000000  0.5408510000000 1.0
C      1  0.4506990000000  0.4165870000000  0.5034030000000 1.0
C      1  0.5331170000000  0.5344140000000  0.5800810000000 1.0
C      1  0.4976780000000  0.4381470000000  0.4840610000000 1.0
C      1  0.5868800000000  0.4662290000000  0.5380480000000 1.0
C      1  0.4766620000000  0.4243710000000  0.4643230000000 1.0
C      1  0.4749740000000  0.4522940000000  0.5736810000000 1.0
C      1  0.5594450000000  0.5333520000000  0.5504010000000 1.0
C      1  0.4860410000000  0.4217950000000  0.4380190000000 1.0
C      1  0.4696740000000  0.4678270000000  0.5049390000000 1.0
C      1  0.5153300000000  0.5321820000000  0.4222300000000 1.0
C      1  0.4167720000000  0.4957110000000  0.4645910000000 1.0
C      1  0.5041020000000  0.4409550000000  0.5784170000000 1.0
C      1  0.5252770000000  0.4797730000000  0.4112550000000 1.0
C      1  0.4918600000000  0.5131520000000  0.4369470000000 1.0
C      1  0.5426180000000  0.4138310000000  0.5296110000000 1.0
C      1  0.6030350000000  0.5144280000000  0.5321150000000 1.0
C      1  0.5228450000000  0.4245970000000  0.5551120000000 1.0
C      1  0.5431540000000  0.4636330000000  0.4805950000000 1.0
C      1  0.5002530000000  0.5598590000000  0.4716220000000 1.0
C      1  0.4161910000000  0.5148200000000  0.5422340000000 1.0
C      1  0.6021130000000  0.4722260000000  0.4742730000000 1.0
C      1  0.4067560000000  0.5130850000000  0.4920830000000 1.0
C      1  0.5860970000000  0.5068870000000  0.4623940000000 1.0
C      1  0.5774910000000  0.5497660000000  0.5107760000000 1.0
C      1  0.5407280000000  0.5600550000000  0.5605610000000 1.0
C      1  0.4977560000000  0.5470180000000  0.5400840000000 1.0
C      1  0.5367130000000  0.5781250000000  0.5109160000000 1.0
C      1  0.5181590000000  0.4810340000000  0.5063510000000 1.0
C      1  0.5196950000000  0.4158480000000  0.4725110000000 1.0
C      1  0.5194480000000  0.4566270000000  0.5451610000000 1.0
C      1  0.4338680000000  0.5305250000000  0.4377250000000 1.0
C      1  0.5090980000000  0.5726960000000  0.5559890000000 1.0
END
