TITL C-2778434-4341-623 -0.0168954059187272 125000 -338.227324738027 0 0 58 (C1) n - 1
REM
REM in /home/nfs/bkarasulu/CARBON/AIRSS/Generating-Clusters/REBO/Only-C1/SD-CG/HFTN-CG
REM
REM
REM
REM
REM
REM ./C.cell (11c1c37f851c82e70ff6c80c92926a4b)
REM
REM compiler GCC version 9.2.1 20190827 (Red Hat 9.2.1-1)
REM options -cpp -mtune=generic -march=x86-64 -g -O0 -fpre-include=/usr/include/finclude/math-vector-fortran.h
REM seed 1416441773 -1135826629 -1179932074 -2106824043 -2100687936 540411949 -1202223123 966981365 1605469050 -1331734545 -498356724 -1260067936 2052922458 1768929987 1800483223 1778238857 384969282 -285079191 1894633756 1113359892 -2127827758 370887509 1213052725 1595255647 -1623367502 1980644872 1746034664 -83186110 1786507946 -1106845016 -1855577892 -1469672790 568349639
REM
CELL 1.54180   50.00000   50.00000   50.00000   90.00000   90.00000   90.00000
LATT -1
SFAC C  
C      1  0.5263840000000  0.4350940000000  0.5302610000000 1.0
C      1  0.5550860000000  0.4785310000000  0.4993670000000 1.0
C      1  0.5929860000000  0.5167500000000  0.5065490000000 1.0
C      1  0.5233400000000  0.4887190000000  0.4919920000000 1.0
C      1  0.5205750000000  0.5555910000000  0.4645440000000 1.0
C      1  0.4660740000000  0.4461290000000  0.4819060000000 1.0
C      1  0.5500560000000  0.5164240000000  0.5665980000000 1.0
C      1  0.5078470000000  0.5081340000000  0.5233420000000 1.0
C      1  0.4515230000000  0.4915240000000  0.5597600000000 1.0
C      1  0.4986770000000  0.4932300000000  0.4726120000000 1.0
C      1  0.5527950000000  0.5604420000000  0.4973890000000 1.0
C      1  0.5286060000000  0.4658810000000  0.4417030000000 1.0
C      1  0.5668520000000  0.5051130000000  0.5463130000000 1.0
C      1  0.4912260000000  0.5526860000000  0.4590530000000 1.0
C      1  0.3869300000000  0.5456670000000  0.4931630000000 1.0
C      1  0.4997630000000  0.4458780000000  0.5243200000000 1.0
C      1  0.4980900000000  0.4419690000000  0.4715320000000 1.0
C      1  0.5244240000000  0.4517930000000  0.4659980000000 1.0
C      1  0.5757110000000  0.5573450000000  0.4802310000000 1.0
C      1  0.3987330000000  0.5164610000000  0.5012850000000 1.0
C      1  0.5884730000000  0.5317380000000  0.4788350000000 1.0
C      1  0.5437140000000  0.5144000000000  0.4864980000000 1.0
C      1  0.5050870000000  0.4748140000000  0.5167050000000 1.0
C      1  0.4912470000000  0.5120350000000  0.4968690000000 1.0
C      1  0.4111310000000  0.4817890000000  0.5346610000000 1.0
C      1  0.4899490000000  0.5556450000000  0.5400020000000 1.0
C      1  0.5485380000000  0.5339940000000  0.5124550000000 1.0
C      1  0.5740300000000  0.5240640000000  0.5267140000000 1.0
C      1  0.4503640000000  0.4549710000000  0.5266820000000 1.0
C      1  0.4794050000000  0.4737790000000  0.4563240000000 1.0
C      1  0.4840550000000  0.5271470000000  0.4395040000000 1.0
C      1  0.4361600000000  0.5228660000000  0.4671920000000 1.0
C      1  0.4139940000000  0.5341960000000  0.4791300000000 1.0
C      1  0.5220010000000  0.5346600000000  0.5286940000000 1.0
C      1  0.4797470000000  0.4166730000000  0.4799740000000 1.0
C      1  0.4619930000000  0.5363390000000  0.4638870000000 1.0
C      1  0.4539710000000  0.4801010000000  0.4494070000000 1.0
C      1  0.5436970000000  0.4508750000000  0.4872530000000 1.0
C      1  0.5354590000000  0.5322700000000  0.4615660000000 1.0
C      1  0.5008430000000  0.5047090000000  0.4431000000000 1.0
C      1  0.4834210000000  0.5415930000000  0.4900750000000 1.0
C      1  0.4286220000000  0.4800270000000  0.4899540000000 1.0
C      1  0.4737730000000  0.4404270000000  0.5329760000000 1.0
C      1  0.4772520000000  0.5376860000000  0.5554100000000 1.0
C      1  0.4647580000000  0.5148690000000  0.5622070000000 1.0
C      1  0.4363100000000  0.4942560000000  0.4662070000000 1.0
C      1  0.4465600000000  0.4589670000000  0.4983690000000 1.0
C      1  0.5394810000000  0.4550650000000  0.5468790000000 1.0
C      1  0.5258690000000  0.5674920000000  0.4899980000000 1.0
C      1  0.5300990000000  0.5342020000000  0.5590210000000 1.0
C      1  0.5741800000000  0.5010080000000  0.4841950000000 1.0
C      1  0.5561560000000  0.4797940000000  0.5317150000000 1.0
C      1  0.5245300000000  0.4850220000000  0.5414690000000 1.0
C      1  0.5185210000000  0.4879870000000  0.4287340000000 1.0
C      1  0.4365680000000  0.4731940000000  0.5443050000000 1.0
C      1  0.5035740000000  0.5567670000000  0.5107320000000 1.0
C      1  0.5413150000000  0.4296540000000  0.5062990000000 1.0
C      1  0.4094740000000  0.4915670000000  0.5080840000000 1.0
END
