TITL C-2778430-5657-89 -0.000446405288533764 125000 -763.21429695147 0 0 132 (C1) n - 1
REM
REM in /home/nfs/bkarasulu/CARBON/AIRSS/Generating-Clusters/REBO/Only-C1/SD-CG/HFTN-CG
REM
REM
REM
REM
REM
REM ./C.cell (11c1c37f851c82e70ff6c80c92926a4b)
REM
REM compiler GCC version 9.2.1 20190827 (Red Hat 9.2.1-1)
REM options -cpp -mtune=generic -march=x86-64 -g -O0 -fpre-include=/usr/include/finclude/math-vector-fortran.h
REM seed -980797592 87843716 957428331 -2013290125 -150024869 1526615451 943973079 1628931020 -639450803 -652120611 -1771833484 -750833279 -1158772466 -1247227128 1749599282 -217120168 170914120 704268669 -880105157 501377854 -1060959861 -880486622 -2082542456 -302736662 898030805 -1020812982 1306666433 140333367 -1287122627 1441104114 1405285071 432166507 2122061256
REM
CELL 1.54180   50.00000   50.00000   50.00000   90.00000   90.00000   90.00000
LATT -1
SFAC C  
C      1  0.5007250000000  0.4296660000000  0.5109370000000 1.0
C      1  0.5408970000000  0.5234760000000  0.4819830000000 1.0
C      1  0.4249130000000  0.5258190000000  0.5263350000000 1.0
C      1  0.5435850000000  0.4470720000000  0.5781890000000 1.0
C      1  0.4521940000000  0.5581300000000  0.5653320000000 1.0
C      1  0.4118120000000  0.4514250000000  0.5040570000000 1.0
C      1  0.4791540000000  0.4994580000000  0.4088780000000 1.0
C      1  0.4926920000000  0.5233950000000  0.4798840000000 1.0
C      1  0.5245600000000  0.4316370000000  0.5763850000000 1.0
C      1  0.5292070000000  0.4469100000000  0.4389810000000 1.0
C      1  0.4872720000000  0.4379690000000  0.4648900000000 1.0
C      1  0.5229350000000  0.5419830000000  0.5039530000000 1.0
C      1  0.5391610000000  0.4842410000000  0.5234560000000 1.0
C      1  0.4673930000000  0.5948890000000  0.5391390000000 1.0
C      1  0.5683870000000  0.4884840000000  0.4373200000000 1.0
C      1  0.5270920000000  0.4094740000000  0.5324840000000 1.0
C      1  0.5263810000000  0.5115180000000  0.3908590000000 1.0
C      1  0.5084470000000  0.5515010000000  0.5865130000000 1.0
C      1  0.4522520000000  0.5663920000000  0.4696030000000 1.0
C      1  0.4944560000000  0.4037140000000  0.5411850000000 1.0
C      1  0.5097270000000  0.4663470000000  0.4290760000000 1.0
C      1  0.5348410000000  0.4374130000000  0.4919390000000 1.0
C      1  0.5995390000000  0.5409490000000  0.4708350000000 1.0
C      1  0.5656830000000  0.4926150000000  0.5074260000000 1.0
C      1  0.4052680000000  0.4464870000000  0.5305360000000 1.0
C      1  0.5522480000000  0.5173820000000  0.4010080000000 1.0
C      1  0.5337540000000  0.5086520000000  0.5545320000000 1.0
C      1  0.5323450000000  0.5849580000000  0.4397330000000 1.0
C      1  0.4678200000000  0.4325810000000  0.5773900000000 1.0
C      1  0.5474200000000  0.4789870000000  0.5774660000000 1.0
C      1  0.5268880000000  0.5044410000000  0.5878090000000 1.0
C      1  0.4572560000000  0.5263260000000  0.5543420000000 1.0
C      1  0.5162570000000  0.5662790000000  0.5409760000000 1.0
C      1  0.4596730000000  0.5183390000000  0.4584700000000 1.0
C      1  0.5539160000000  0.5412480000000  0.5659070000000 1.0
C      1  0.5190210000000  0.4729670000000  0.5958810000000 1.0
C      1  0.4285550000000  0.4784170000000  0.5003540000000 1.0
C      1  0.5781470000000  0.4652960000000  0.4933990000000 1.0
C      1  0.5047710000000  0.4964290000000  0.5557250000000 1.0
C      1  0.5852530000000  0.4813760000000  0.3903380000000 1.0
C      1  0.5536520000000  0.5408910000000  0.4157890000000 1.0
C      1  0.4694440000000  0.5734440000000  0.4915650000000 1.0
C      1  0.4439630000000  0.5773920000000  0.5435210000000 1.0
C      1  0.5770290000000  0.5407820000000  0.4475330000000 1.0
C      1  0.5575050000000  0.5143680000000  0.4527610000000 1.0
C      1  0.5351140000000  0.4912290000000  0.4761330000000 1.0
C      1  0.4669010000000  0.5654380000000  0.4457680000000 1.0
C      1  0.4143450000000  0.4658770000000  0.4350630000000 1.0
C      1  0.4617400000000  0.4802830000000  0.5710260000000 1.0
C      1  0.4209170000000  0.5108660000000  0.5564180000000 1.0
C      1  0.4420670000000  0.4290700000000  0.4768790000000 1.0
C      1  0.4840860000000  0.4715380000000  0.4156560000000 1.0
C      1  0.5922080000000  0.4785530000000  0.5219300000000 1.0
C      1  0.5399520000000  0.5189190000000  0.5225040000000 1.0
C      1  0.5526860000000  0.4166600000000  0.5219170000000 1.0
C      1  0.4908940000000  0.5171070000000  0.5350320000000 1.0
C      1  0.5663840000000  0.4371950000000  0.4984690000000 1.0
C      1  0.5033510000000  0.5207680000000  0.5953680000000 1.0
C      1  0.4009860000000  0.4487900000000  0.4572180000000 1.0
C      1  0.4524020000000  0.4448900000000  0.5324360000000 1.0
C      1  0.5239180000000  0.5156830000000  0.4467420000000 1.0
C      1  0.4296740000000  0.5291670000000  0.4474180000000 1.0
C      1  0.5007280000000  0.5165330000000  0.4008530000000 1.0
C      1  0.5772380000000  0.5370010000000  0.5504810000000 1.0
C      1  0.4962040000000  0.5717230000000  0.4500520000000 1.0
C      1  0.5303500000000  0.5544100000000  0.5660730000000 1.0
C      1  0.3887660000000  0.4268830000000  0.5405850000000 1.0
C      1  0.5553680000000  0.4577580000000  0.4426710000000 1.0
C      1  0.4952550000000  0.4251380000000  0.5658280000000 1.0
C      1  0.5596460000000  0.5677000000000  0.4358920000000 1.0
C      1  0.4894200000000  0.4766400000000  0.5034000000000 1.0
C      1  0.4909750000000  0.5232860000000  0.4456440000000 1.0
C      1  0.4644850000000  0.5451660000000  0.4255000000000 1.0
C      1  0.4444830000000  0.5077920000000  0.5789000000000 1.0
C      1  0.4870960000000  0.5940570000000  0.4896030000000 1.0
C      1  0.4241940000000  0.4916090000000  0.5285460000000 1.0
C      1  0.4146450000000  0.4357910000000  0.4802290000000 1.0
C      1  0.4135270000000  0.5242910000000  0.4262260000000 1.0
C      1  0.4622710000000  0.5170660000000  0.4927050000000 1.0
C      1  0.4577710000000  0.4687030000000  0.4560060000000 1.0
C      1  0.5182470000000  0.4316740000000  0.4626600000000 1.0
C      1  0.4605500000000  0.4604450000000  0.4275060000000 1.0
C      1  0.4604160000000  0.4764210000000  0.5396930000000 1.0
C      1  0.5695850000000  0.5679090000000  0.4897760000000 1.0
C      1  0.5831810000000  0.5597330000000  0.5348380000000 1.0
C      1  0.4828770000000  0.5343110000000  0.5718190000000 1.0
C      1  0.5359160000000  0.4529100000000  0.5222550000000 1.0
C      1  0.5647280000000  0.5723530000000  0.5173450000000 1.0
C      1  0.4961780000000  0.5424860000000  0.4176530000000 1.0
C      1  0.5874140000000  0.4543330000000  0.5407310000000 1.0
C      1  0.4587090000000  0.4777580000000  0.4885780000000 1.0
C      1  0.5159790000000  0.4094540000000  0.4885350000000 1.0
C      1  0.5242450000000  0.5748450000000  0.4936050000000 1.0
C      1  0.4847300000000  0.4480500000000  0.4939650000000 1.0
C      1  0.5931730000000  0.5359790000000  0.4944690000000 1.0
C      1  0.5348010000000  0.5455800000000  0.4437110000000 1.0
C      1  0.4451250000000  0.5523550000000  0.5265840000000 1.0
C      1  0.5640260000000  0.4415510000000  0.5378690000000 1.0
C      1  0.5070110000000  0.4970840000000  0.4893280000000 1.0
C      1  0.4724930000000  0.5066580000000  0.5982360000000 1.0
C      1  0.5843700000000  0.5067720000000  0.5396590000000 1.0
C      1  0.5611690000000  0.4773910000000  0.4688830000000 1.0
C      1  0.5207680000000  0.5861220000000  0.4686300000000 1.0
C      1  0.4820550000000  0.5680870000000  0.5763130000000 1.0
C      1  0.4604080000000  0.5080110000000  0.5256650000000 1.0
C      1  0.4926000000000  0.4848210000000  0.5816020000000 1.0
C      1  0.5113210000000  0.4395510000000  0.5394850000000 1.0
C      1  0.4665520000000  0.4145340000000  0.5247400000000 1.0
C      1  0.4217470000000  0.4645650000000  0.5489430000000 1.0
C      1  0.5119580000000  0.5474340000000  0.4678770000000 1.0
C      1  0.4911420000000  0.3971310000000  0.5082190000000 1.0
C      1  0.5113760000000  0.5706860000000  0.4206780000000 1.0
C      1  0.4624500000000  0.4288870000000  0.4562370000000 1.0
C      1  0.4314300000000  0.5464310000000  0.4721520000000 1.0
C      1  0.5723170000000  0.5240070000000  0.5130050000000 1.0
C      1  0.4704350000000  0.5545810000000  0.5126090000000 1.0
C      1  0.4337020000000  0.5303440000000  0.4957560000000 1.0
C      1  0.4970940000000  0.5436940000000  0.5242080000000 1.0
C      1  0.4344880000000  0.4597940000000  0.4162560000000 1.0
C      1  0.4907510000000  0.5847870000000  0.5508290000000 1.0
C      1  0.5700080000000  0.4957720000000  0.4082470000000 1.0
C      1  0.4257730000000  0.4718310000000  0.4669820000000 1.0
C      1  0.5366180000000  0.5758320000000  0.5206980000000 1.0
C      1  0.4301570000000  0.4724820000000  0.5807770000000 1.0
C      1  0.5603500000000  0.5477440000000  0.4743810000000 1.0
C      1  0.4828540000000  0.4873020000000  0.4658670000000 1.0
C      1  0.5112970000000  0.4868700000000  0.4513550000000 1.0
C      1  0.4586880000000  0.5145400000000  0.4241560000000 1.0
C      1  0.4458450000000  0.4445160000000  0.5635420000000 1.0
C      1  0.4901800000000  0.4825590000000  0.5313710000000 1.0
C      1  0.5600420000000  0.4895930000000  0.5499540000000 1.0
C      1  0.4571340000000  0.4363350000000  0.5019240000000 1.0
END
