TITL C-2778436-5916-393 -0.000780053973781971 125000 -1145.72408442278 0 0 199 (C1) n - 1
REM
REM in /home/nfs/bkarasulu/CARBON/AIRSS/Generating-Clusters/REBO/Only-C1/SD-CG/HFTN-CG
REM
REM
REM
REM
REM
REM ./C.cell (11c1c37f851c82e70ff6c80c92926a4b)
REM
REM compiler GCC version 9.2.1 20190827 (Red Hat 9.2.1-1)
REM options -cpp -mtune=generic -march=x86-64 -g -O0 -fpre-include=/usr/include/finclude/math-vector-fortran.h
REM seed -1609953778 -1513711493 1522040087 -926248823 -929969826 -856949363 -1157547649 -668381048 -1611323390 -1441705778 -59432270 -376143528 -1945363988 1265331766 -1570175189 975571637 -1061809190 -927739673 -385430970 -1629113362 -1969265888 964721215 -804411423 -1808676628 -1936320887 544912312 963124007 1666482312 427136570 719425805 370213786 392449038 -515128396
REM
CELL 1.54180   50.00000   50.00000   50.00000   90.00000   90.00000   90.00000
LATT -1
SFAC C  
C      1  0.5249950000000  0.3925700000000  0.4596040000000 1.0
C      1  0.5544110000000  0.5159660000000  0.5276140000000 1.0
C      1  0.4038070000000  0.5618750000000  0.4704130000000 1.0
C      1  0.4482280000000  0.5780570000000  0.5631250000000 1.0
C      1  0.4137300000000  0.5123510000000  0.4792330000000 1.0
C      1  0.5168100000000  0.6133070000000  0.4577090000000 1.0
C      1  0.4863050000000  0.5700980000000  0.5712280000000 1.0
C      1  0.6151850000000  0.5360240000000  0.4978570000000 1.0
C      1  0.5244410000000  0.4137390000000  0.4810540000000 1.0
C      1  0.4759010000000  0.5047650000000  0.4241240000000 1.0
C      1  0.4019760000000  0.5353880000000  0.4608450000000 1.0
C      1  0.4957810000000  0.4683520000000  0.4920810000000 1.0
C      1  0.5295010000000  0.6117070000000  0.5130910000000 1.0
C      1  0.4538750000000  0.4940510000000  0.5940360000000 1.0
C      1  0.5066890000000  0.4679910000000  0.3915660000000 1.0
C      1  0.4402360000000  0.4446540000000  0.5362380000000 1.0
C      1  0.5262790000000  0.5713960000000  0.4819640000000 1.0
C      1  0.5541640000000  0.4092800000000  0.4972310000000 1.0
C      1  0.5365500000000  0.5285780000000  0.4948900000000 1.0
C      1  0.5819850000000  0.5765050000000  0.5006720000000 1.0
C      1  0.4569850000000  0.5005820000000  0.3951880000000 1.0
C      1  0.5835700000000  0.4604600000000  0.5946530000000 1.0
C      1  0.4961360000000  0.5496410000000  0.4341320000000 1.0
C      1  0.5712970000000  0.4681410000000  0.5383590000000 1.0
C      1  0.5184510000000  0.5246210000000  0.4722150000000 1.0
C      1  0.5137440000000  0.4232960000000  0.4220960000000 1.0
C      1  0.4801300000000  0.5197190000000  0.6095330000000 1.0
C      1  0.4111210000000  0.4796370000000  0.5304030000000 1.0
C      1  0.5265330000000  0.4436590000000  0.4655350000000 1.0
C      1  0.4514520000000  0.4883450000000  0.4898640000000 1.0
C      1  0.4477060000000  0.5758660000000  0.4582930000000 1.0
C      1  0.5300750000000  0.5166350000000  0.4241950000000 1.0
C      1  0.4690460000000  0.6007790000000  0.5253140000000 1.0
C      1  0.6180930000000  0.5219040000000  0.4614980000000 1.0
C      1  0.4986890000000  0.5636510000000  0.4993810000000 1.0
C      1  0.4464960000000  0.5160800000000  0.4697500000000 1.0
C      1  0.3938620000000  0.4578250000000  0.4826390000000 1.0
C      1  0.6172360000000  0.5029610000000  0.4883990000000 1.0
C      1  0.5677040000000  0.5390890000000  0.4143610000000 1.0
C      1  0.5456070000000  0.5753470000000  0.5207900000000 1.0
C      1  0.4964670000000  0.4387150000000  0.5629450000000 1.0
C      1  0.4751840000000  0.4875250000000  0.6193070000000 1.0
C      1  0.4323820000000  0.4387680000000  0.4348110000000 1.0
C      1  0.4868170000000  0.6220520000000  0.5334010000000 1.0
C      1  0.5082000000000  0.5006470000000  0.3830760000000 1.0
C      1  0.4439610000000  0.5147690000000  0.5222630000000 1.0
C      1  0.5578110000000  0.4333140000000  0.4734200000000 1.0
C      1  0.4376270000000  0.4095350000000  0.4509570000000 1.0
C      1  0.5348230000000  0.4047750000000  0.4363070000000 1.0
C      1  0.4747130000000  0.4147710000000  0.5092260000000 1.0
C      1  0.5932170000000  0.5056270000000  0.5105400000000 1.0
C      1  0.4332720000000  0.5154760000000  0.4129460000000 1.0
C      1  0.4979710000000  0.3678780000000  0.4976430000000 1.0
C      1  0.4903090000000  0.5445910000000  0.5264310000000 1.0
C      1  0.4079880000000  0.4290640000000  0.4945040000000 1.0
C      1  0.4623150000000  0.6256760000000  0.4777870000000 1.0
C      1  0.4443140000000  0.5384360000000  0.4436060000000 1.0
C      1  0.5420610000000  0.5280320000000  0.5948920000000 1.0
C      1  0.5477140000000  0.5086110000000  0.4468740000000 1.0
C      1  0.4515040000000  0.4713920000000  0.4009300000000 1.0
C      1  0.5221010000000  0.5390210000000  0.4434920000000 1.0
C      1  0.5039420000000  0.4997930000000  0.4154540000000 1.0
C      1  0.5582040000000  0.5474000000000  0.5141820000000 1.0
C      1  0.5748830000000  0.5300600000000  0.5608230000000 1.0
C      1  0.5590930000000  0.5583880000000  0.5543710000000 1.0
C      1  0.5959350000000  0.5490110000000  0.5437820000000 1.0
C      1  0.4977040000000  0.5010520000000  0.5594950000000 1.0
C      1  0.4618900000000  0.5343350000000  0.4144840000000 1.0
C      1  0.4703450000000  0.5175650000000  0.5520690000000 1.0
C      1  0.4828060000000  0.5225540000000  0.3893670000000 1.0
C      1  0.5009190000000  0.4997410000000  0.5916660000000 1.0
C      1  0.5658820000000  0.5175590000000  0.5870330000000 1.0
C      1  0.5743500000000  0.4345840000000  0.5320960000000 1.0
C      1  0.4286680000000  0.5375420000000  0.5834000000000 1.0
C      1  0.4890830000000  0.5324340000000  0.4796850000000 1.0
C      1  0.4083270000000  0.5272150000000  0.4307880000000 1.0
C      1  0.4153440000000  0.5859910000000  0.4539520000000 1.0
C      1  0.5171090000000  0.4739570000000  0.5519820000000 1.0
C      1  0.5591340000000  0.4634740000000  0.4879770000000 1.0
C      1  0.5138690000000  0.6133640000000  0.5368360000000 1.0
C      1  0.4233220000000  0.4554820000000  0.5815010000000 1.0
C      1  0.5213480000000  0.6006210000000  0.4310740000000 1.0
C      1  0.5119960000000  0.5011220000000  0.6241200000000 1.0
C      1  0.5082940000000  0.4074580000000  0.5681780000000 1.0
C      1  0.5920930000000  0.5301340000000  0.4526780000000 1.0
C      1  0.5530020000000  0.4882620000000  0.4687680000000 1.0
C      1  0.4357220000000  0.4694550000000  0.4280530000000 1.0
C      1  0.5521900000000  0.4260380000000  0.5577900000000 1.0
C      1  0.5009290000000  0.4699600000000  0.6194320000000 1.0
C      1  0.4160480000000  0.5635330000000  0.4956800000000 1.0
C      1  0.4206710000000  0.5587740000000  0.4343660000000 1.0
C      1  0.5275720000000  0.4503680000000  0.4084140000000 1.0
C      1  0.4850810000000  0.4627420000000  0.5835450000000 1.0
C      1  0.5703670000000  0.4554830000000  0.4413260000000 1.0
C      1  0.4590990000000  0.4401820000000  0.3916000000000 1.0
C      1  0.4553190000000  0.4225500000000  0.4175920000000 1.0
C      1  0.4368460000000  0.6036790000000  0.4735790000000 1.0
C      1  0.5252310000000  0.4839520000000  0.4837210000000 1.0
C      1  0.4944850000000  0.5520340000000  0.4015780000000 1.0
C      1  0.5392240000000  0.4979660000000  0.3971350000000 1.0
C      1  0.5566800000000  0.4052560000000  0.5309820000000 1.0
C      1  0.4676350000000  0.4028960000000  0.4540070000000 1.0
C      1  0.4720030000000  0.4325960000000  0.5936630000000 1.0
C      1  0.5172450000000  0.4354820000000  0.5413730000000 1.0
C      1  0.4050780000000  0.5470760000000  0.5153280000000 1.0
C      1  0.5555940000000  0.4439450000000  0.5930050000000 1.0
C      1  0.5842810000000  0.4445930000000  0.5009510000000 1.0
C      1  0.4137920000000  0.5172960000000  0.5111310000000 1.0
C      1  0.4194770000000  0.4326190000000  0.4655440000000 1.0
C      1  0.4863360000000  0.6201820000000  0.4628310000000 1.0
C      1  0.4949680000000  0.5470200000000  0.5950650000000 1.0
C      1  0.5210260000000  0.5147500000000  0.5210140000000 1.0
C      1  0.5044480000000  0.4411070000000  0.6017480000000 1.0
C      1  0.4313180000000  0.5054720000000  0.5719810000000 1.0
C      1  0.5132780000000  0.5872570000000  0.5586620000000 1.0
C      1  0.4840560000000  0.5907970000000  0.4567970000000 1.0
C      1  0.5599820000000  0.6020720000000  0.5054040000000 1.0
C      1  0.5551940000000  0.4786840000000  0.4214410000000 1.0
C      1  0.5430710000000  0.4556320000000  0.5451970000000 1.0
C      1  0.4974780000000  0.4967190000000  0.5111280000000 1.0
C      1  0.5774650000000  0.5761050000000  0.5344290000000 1.0
C      1  0.4175760000000  0.4500530000000  0.5154280000000 1.0
C      1  0.4087660000000  0.5358620000000  0.5602640000000 1.0
C      1  0.6012790000000  0.4727950000000  0.4901340000000 1.0
C      1  0.4626050000000  0.4692160000000  0.5397680000000 1.0
C      1  0.4163970000000  0.4564460000000  0.5547240000000 1.0
C      1  0.5248900000000  0.4039150000000  0.5386820000000 1.0
C      1  0.6024750000000  0.4691960000000  0.5239620000000 1.0
C      1  0.5096080000000  0.4649410000000  0.4522960000000 1.0
C      1  0.5486990000000  0.4343580000000  0.4283820000000 1.0
C      1  0.5881810000000  0.4411970000000  0.4669300000000 1.0
C      1  0.4670000000000  0.4114380000000  0.5681460000000 1.0
C      1  0.5417240000000  0.4351880000000  0.5098750000000 1.0
C      1  0.4557750000000  0.4074590000000  0.5359200000000 1.0
C      1  0.5030570000000  0.3883780000000  0.5192120000000 1.0
C      1  0.5435270000000  0.5539050000000  0.4616780000000 1.0
C      1  0.5705530000000  0.5536960000000  0.4400520000000 1.0
C      1  0.5043400000000  0.4160210000000  0.5019950000000 1.0
C      1  0.5214600000000  0.4789430000000  0.5824350000000 1.0
C      1  0.4824980000000  0.5748580000000  0.5374360000000 1.0
C      1  0.5785650000000  0.5715880000000  0.4678830000000 1.0
C      1  0.4171560000000  0.4943680000000  0.4345390000000 1.0
C      1  0.4544220000000  0.6062020000000  0.5026260000000 1.0
C      1  0.4768540000000  0.3775730000000  0.4731940000000 1.0
C      1  0.5035570000000  0.4453380000000  0.5150180000000 1.0
C      1  0.4522970000000  0.4606560000000  0.5921490000000 1.0
C      1  0.5712070000000  0.4908910000000  0.5936120000000 1.0
C      1  0.4500840000000  0.5729410000000  0.4246540000000 1.0
C      1  0.5662850000000  0.5995770000000  0.4726500000000 1.0
C      1  0.4352710000000  0.4147860000000  0.5092320000000 1.0
C      1  0.4304830000000  0.4623970000000  0.4680380000000 1.0
C      1  0.5275440000000  0.6007920000000  0.4823630000000 1.0
C      1  0.5159000000000  0.5749440000000  0.5267270000000 1.0
C      1  0.4842810000000  0.4531520000000  0.4373800000000 1.0
C      1  0.4734820000000  0.5733280000000  0.4811160000000 1.0
C      1  0.4590340000000  0.5380400000000  0.4925860000000 1.0
C      1  0.4752050000000  0.5043870000000  0.4547910000000 1.0
C      1  0.6034280000000  0.4901690000000  0.5459000000000 1.0
C      1  0.4059440000000  0.4843640000000  0.4650740000000 1.0
C      1  0.4561080000000  0.4389640000000  0.4962330000000 1.0
C      1  0.4817510000000  0.4594720000000  0.4064780000000 1.0
C      1  0.5185080000000  0.5290450000000  0.6121900000000 1.0
C      1  0.4750070000000  0.5376700000000  0.4519400000000 1.0
C      1  0.5301420000000  0.4269860000000  0.5842220000000 1.0
C      1  0.4675570000000  0.4635230000000  0.4826770000000 1.0
C      1  0.4489840000000  0.4943370000000  0.5458150000000 1.0
C      1  0.4656570000000  0.4410760000000  0.5551310000000 1.0
C      1  0.4651520000000  0.5240970000000  0.5816480000000 1.0
C      1  0.5704730000000  0.5390770000000  0.4766740000000 1.0
C      1  0.5347170000000  0.5643880000000  0.5617860000000 1.0
C      1  0.5018810000000  0.4959520000000  0.4642940000000 1.0
C      1  0.5792930000000  0.5040830000000  0.4426930000000 1.0
C      1  0.5672570000000  0.5136540000000  0.4958890000000 1.0
C      1  0.4576890000000  0.5556460000000  0.5839250000000 1.0
C      1  0.4113210000000  0.5072300000000  0.5440410000000 1.0
C      1  0.4442180000000  0.5649040000000  0.4961700000000 1.0
C      1  0.5850420000000  0.4788660000000  0.4618010000000 1.0
C      1  0.5674350000000  0.5093400000000  0.4121960000000 1.0
C      1  0.4559860000000  0.4004280000000  0.4860030000000 1.0
C      1  0.5712640000000  0.5001340000000  0.5479240000000 1.0
C      1  0.4594160000000  0.4629210000000  0.4516290000000 1.0
C      1  0.4862190000000  0.3946780000000  0.5455550000000 1.0
C      1  0.4843170000000  0.4204880000000  0.4339210000000 1.0
C      1  0.5201740000000  0.5409720000000  0.5740980000000 1.0
C      1  0.5085810000000  0.5281510000000  0.5470520000000 1.0
C      1  0.4802000000000  0.5774320000000  0.4300060000000 1.0
C      1  0.4707340000000  0.5095050000000  0.5040650000000 1.0
C      1  0.5225320000000  0.4773300000000  0.4269540000000 1.0
C      1  0.4398190000000  0.5652860000000  0.5404410000000 1.0
C      1  0.4585580000000  0.5425770000000  0.5322220000000 1.0
C      1  0.4918360000000  0.4727360000000  0.5315910000000 1.0
C      1  0.5460010000000  0.4729350000000  0.5938820000000 1.0
C      1  0.5088970000000  0.3709370000000  0.4669640000000 1.0
C      1  0.6042440000000  0.5191590000000  0.5359700000000 1.0
C      1  0.5073910000000  0.5814620000000  0.4129670000000 1.0
C      1  0.5323700000000  0.4636310000000  0.5074990000000 1.0
C      1  0.4248190000000  0.4767330000000  0.4991790000000 1.0
C      1  0.5923210000000  0.5477610000000  0.5108010000000 1.0
C      1  0.4124540000000  0.5561430000000  0.5408380000000 1.0
END
