TITL C-2778431-5191-16 -0.000781146447614505 125000 -939.069363160397 0 0 165 (C1) n - 1
REM
REM in /home/nfs/bkarasulu/CARBON/AIRSS/Generating-Clusters/REBO/Only-C1/SD-CG/HFTN-CG
REM
REM
REM
REM
REM
REM ./C.cell (11c1c37f851c82e70ff6c80c92926a4b)
REM
REM compiler GCC version 9.2.1 20190827 (Red Hat 9.2.1-1)
REM options -cpp -mtune=generic -march=x86-64 -g -O0 -fpre-include=/usr/include/finclude/math-vector-fortran.h
REM seed 1408335691 -1980477639 -657587688 -1512136226 725711010 -545519238 839104550 -1554625549 -961197402 -609461194 1997571796 593684768 676083114 -876850296 -1792205610 1071628046 1328383201 -461513902 -463565478 -1982957552 703800322 1330527246 2141079884 -1181377589 -1385268014 -665384246 1837954443 715818165 -241703281 -2114456684 998361857 -63123488 -244164399
REM
CELL 1.54180   50.00000   50.00000   50.00000   90.00000   90.00000   90.00000
LATT -1
SFAC C  
C      1  0.5067200000000  0.4225730000000  0.4497010000000 1.0
C      1  0.5635350000000  0.4891000000000  0.5548930000000 1.0
C      1  0.5635900000000  0.5536530000000  0.5607930000000 1.0
C      1  0.3973620000000  0.4793370000000  0.5293550000000 1.0
C      1  0.5268650000000  0.4028450000000  0.4684060000000 1.0
C      1  0.4697570000000  0.4134500000000  0.4465600000000 1.0
C      1  0.5403510000000  0.5429440000000  0.5832750000000 1.0
C      1  0.4763230000000  0.4860450000000  0.4837560000000 1.0
C      1  0.4863630000000  0.4407920000000  0.5595880000000 1.0
C      1  0.5814890000000  0.4441600000000  0.5366740000000 1.0
C      1  0.4985000000000  0.5751420000000  0.5621350000000 1.0
C      1  0.6001500000000  0.4594110000000  0.5136980000000 1.0
C      1  0.5433040000000  0.4873950000000  0.5299320000000 1.0
C      1  0.4508020000000  0.4752710000000  0.5559610000000 1.0
C      1  0.5935480000000  0.4925080000000  0.5094630000000 1.0
C      1  0.4652530000000  0.4634300000000  0.4528390000000 1.0
C      1  0.4157530000000  0.4353310000000  0.4973600000000 1.0
C      1  0.5501750000000  0.5194610000000  0.4578170000000 1.0
C      1  0.4838350000000  0.4825310000000  0.5511510000000 1.0
C      1  0.5092670000000  0.5423690000000  0.5964540000000 1.0
C      1  0.4563970000000  0.5160050000000  0.5997860000000 1.0
C      1  0.4516520000000  0.4411860000000  0.5558050000000 1.0
C      1  0.4480360000000  0.5769240000000  0.4713910000000 1.0
C      1  0.4858250000000  0.5959230000000  0.4928140000000 1.0
C      1  0.5409480000000  0.4151420000000  0.4940220000000 1.0
C      1  0.5848800000000  0.5080230000000  0.5386160000000 1.0
C      1  0.4233940000000  0.4858710000000  0.5113340000000 1.0
C      1  0.5735890000000  0.4870960000000  0.4582790000000 1.0
C      1  0.4717500000000  0.4832810000000  0.5233120000000 1.0
C      1  0.4633790000000  0.5487530000000  0.5785960000000 1.0
C      1  0.4522860000000  0.4526940000000  0.4166990000000 1.0
C      1  0.4695950000000  0.5112160000000  0.4498600000000 1.0
C      1  0.5640850000000  0.4435550000000  0.5090990000000 1.0
C      1  0.4334880000000  0.4369700000000  0.5268060000000 1.0
C      1  0.4465220000000  0.4659360000000  0.5173210000000 1.0
C      1  0.5186310000000  0.5253780000000  0.5516130000000 1.0
C      1  0.4454310000000  0.4371710000000  0.4816350000000 1.0
C      1  0.4438520000000  0.4514320000000  0.5872330000000 1.0
C      1  0.5327470000000  0.4378420000000  0.4502690000000 1.0
C      1  0.5153780000000  0.5335770000000  0.4714320000000 1.0
C      1  0.5325470000000  0.4645590000000  0.5609500000000 1.0
C      1  0.5503730000000  0.5697620000000  0.5073500000000 1.0
C      1  0.4397830000000  0.5129210000000  0.5149650000000 1.0
C      1  0.5253850000000  0.5364620000000  0.4409720000000 1.0
C      1  0.4443090000000  0.5439210000000  0.4336670000000 1.0
C      1  0.5473760000000  0.5808420000000  0.5482460000000 1.0
C      1  0.5556640000000  0.4650810000000  0.4164550000000 1.0
C      1  0.5966700000000  0.4438030000000  0.4862570000000 1.0
C      1  0.4890700000000  0.5419570000000  0.4033010000000 1.0
C      1  0.4175500000000  0.5234750000000  0.4393240000000 1.0
C      1  0.4580130000000  0.5544130000000  0.4113020000000 1.0
C      1  0.4393170000000  0.5490640000000  0.5572310000000 1.0
C      1  0.4527840000000  0.4792970000000  0.4053930000000 1.0
C      1  0.4909470000000  0.4438350000000  0.4948080000000 1.0
C      1  0.5287930000000  0.5590240000000  0.4868140000000 1.0
C      1  0.5733840000000  0.5241520000000  0.5664900000000 1.0
C      1  0.4680110000000  0.5158650000000  0.4102080000000 1.0
C      1  0.5082490000000  0.5041850000000  0.4553350000000 1.0
C      1  0.4719910000000  0.5351740000000  0.5051720000000 1.0
C      1  0.5120720000000  0.5838380000000  0.5255680000000 1.0
C      1  0.4593710000000  0.5194440000000  0.5395940000000 1.0
C      1  0.4309790000000  0.4824160000000  0.5898460000000 1.0
C      1  0.5589160000000  0.5480700000000  0.5291220000000 1.0
C      1  0.5812530000000  0.5673310000000  0.5023360000000 1.0
C      1  0.5875620000000  0.5433590000000  0.4804510000000 1.0
C      1  0.4875110000000  0.5568580000000  0.4547070000000 1.0
C      1  0.5036730000000  0.4468640000000  0.4181450000000 1.0
C      1  0.4170160000000  0.4425540000000  0.4638190000000 1.0
C      1  0.5898330000000  0.5563770000000  0.4536370000000 1.0
C      1  0.5302610000000  0.4266490000000  0.5460000000000 1.0
C      1  0.5516670000000  0.5393920000000  0.4114630000000 1.0
C      1  0.5197700000000  0.5969970000000  0.4948770000000 1.0
C      1  0.5620900000000  0.5216220000000  0.4874170000000 1.0
C      1  0.4879860000000  0.5640350000000  0.5857300000000 1.0
C      1  0.4412530000000  0.5023750000000  0.4463310000000 1.0
C      1  0.4718320000000  0.4150260000000  0.5425230000000 1.0
C      1  0.5243720000000  0.5590020000000  0.5578190000000 1.0
C      1  0.5200830000000  0.5311560000000  0.4017860000000 1.0
C      1  0.5077910000000  0.5802010000000  0.4451320000000 1.0
C      1  0.5092100000000  0.4516210000000  0.5412440000000 1.0
C      1  0.4829900000000  0.4876300000000  0.4082680000000 1.0
C      1  0.4432370000000  0.5364270000000  0.4669880000000 1.0
C      1  0.5091120000000  0.4835930000000  0.3953810000000 1.0
C      1  0.4517750000000  0.5073730000000  0.5668560000000 1.0
C      1  0.4353980000000  0.5071360000000  0.4145580000000 1.0
C      1  0.4779000000000  0.5089150000000  0.6148820000000 1.0
C      1  0.5229210000000  0.5060340000000  0.4254490000000 1.0
C      1  0.4634090000000  0.5895750000000  0.5176110000000 1.0
C      1  0.4831730000000  0.5347660000000  0.4348160000000 1.0
C      1  0.5579170000000  0.4343250000000  0.4287390000000 1.0
C      1  0.5070310000000  0.4183980000000  0.5998170000000 1.0
C      1  0.4197050000000  0.4673900000000  0.4865370000000 1.0
C      1  0.4219260000000  0.4860750000000  0.5511180000000 1.0
C      1  0.5379230000000  0.5106050000000  0.5070020000000 1.0
C      1  0.5320110000000  0.5839520000000  0.4659320000000 1.0
C      1  0.5346380000000  0.4044390000000  0.5214520000000 1.0
C      1  0.5569230000000  0.5779330000000  0.4470210000000 1.0
C      1  0.5552460000000  0.4392260000000  0.5580670000000 1.0
C      1  0.5641530000000  0.5449170000000  0.4411130000000 1.0
C      1  0.4635060000000  0.4592010000000  0.4925120000000 1.0
C      1  0.4878020000000  0.5339610000000  0.5460310000000 1.0
C      1  0.5436630000000  0.4867620000000  0.4509140000000 1.0
C      1  0.5156630000000  0.4916950000000  0.5479400000000 1.0
C      1  0.4550140000000  0.4141520000000  0.5128450000000 1.0
C      1  0.4351430000000  0.4517180000000  0.4409850000000 1.0
C      1  0.4035680000000  0.5324720000000  0.4664520000000 1.0
C      1  0.4657510000000  0.5619730000000  0.4877970000000 1.0
C      1  0.4832000000000  0.5076690000000  0.5079340000000 1.0
C      1  0.4831950000000  0.5844770000000  0.5382600000000 1.0
C      1  0.3931180000000  0.5191170000000  0.4881440000000 1.0
C      1  0.4883020000000  0.5251090000000  0.5776700000000 1.0
C      1  0.5762520000000  0.4635420000000  0.5624470000000 1.0
C      1  0.5324200000000  0.5641720000000  0.4275600000000 1.0
C      1  0.4505870000000  0.5085550000000  0.4845990000000 1.0
C      1  0.4881880000000  0.4148660000000  0.5063650000000 1.0
C      1  0.5323840000000  0.5346480000000  0.5243170000000 1.0
C      1  0.5306010000000  0.5183220000000  0.6049200000000 1.0
C      1  0.5738890000000  0.5141230000000  0.4182830000000 1.0
C      1  0.5290900000000  0.4338230000000  0.4107590000000 1.0
C      1  0.5789890000000  0.4682600000000  0.4814330000000 1.0
C      1  0.5199900000000  0.5056780000000  0.3826880000000 1.0
C      1  0.6070530000000  0.5459380000000  0.5082000000000 1.0
C      1  0.4977000000000  0.5636430000000  0.4945590000000 1.0
C      1  0.4599740000000  0.4096930000000  0.4790470000000 1.0
C      1  0.4186490000000  0.5449990000000  0.5303240000000 1.0
C      1  0.4400950000000  0.4804940000000  0.4681600000000 1.0
C      1  0.4824580000000  0.4406120000000  0.4628340000000 1.0
C      1  0.4769580000000  0.4370930000000  0.4231380000000 1.0
C      1  0.5960010000000  0.5039650000000  0.4775340000000 1.0
C      1  0.5569020000000  0.4159570000000  0.4575660000000 1.0
C      1  0.4303740000000  0.5291010000000  0.5833030000000 1.0
C      1  0.5078710000000  0.4951870000000  0.6152360000000 1.0
C      1  0.5051530000000  0.5508170000000  0.5238880000000 1.0
C      1  0.4200780000000  0.5611870000000  0.4737940000000 1.0
C      1  0.5416800000000  0.5976460000000  0.5210860000000 1.0
C      1  0.5109840000000  0.4603790000000  0.5120720000000 1.0
C      1  0.4069740000000  0.5158540000000  0.5418270000000 1.0
C      1  0.5346880000000  0.4485830000000  0.4951690000000 1.0
C      1  0.5893210000000  0.5864500000000  0.4511010000000 1.0
C      1  0.4934030000000  0.4040340000000  0.4750610000000 1.0
C      1  0.5635690000000  0.4762530000000  0.5092510000000 1.0
C      1  0.5262860000000  0.4726060000000  0.4200010000000 1.0
C      1  0.5223070000000  0.4842020000000  0.5863400000000 1.0
C      1  0.5878560000000  0.5132770000000  0.4456470000000 1.0
C      1  0.5734430000000  0.4211280000000  0.4852090000000 1.0
C      1  0.4903310000000  0.4952130000000  0.5794440000000 1.0
C      1  0.4116040000000  0.5057360000000  0.5743510000000 1.0
C      1  0.5073550000000  0.4805480000000  0.4744010000000 1.0
C      1  0.4839600000000  0.4850800000000  0.4405210000000 1.0
C      1  0.5115920000000  0.4921560000000  0.5044480000000 1.0
C      1  0.4646270000000  0.4774820000000  0.5940130000000 1.0
C      1  0.4786970000000  0.5885770000000  0.4612700000000 1.0
C      1  0.4353040000000  0.5732510000000  0.5192930000000 1.0
C      1  0.4935890000000  0.4663300000000  0.6039280000000 1.0
C      1  0.5702430000000  0.4870220000000  0.4090640000000 1.0
C      1  0.5310190000000  0.4619210000000  0.4670660000000 1.0
C      1  0.4575040000000  0.5515880000000  0.5283130000000 1.0
C      1  0.4833090000000  0.5290820000000  0.4742220000000 1.0
C      1  0.4054320000000  0.4486370000000  0.5390770000000 1.0
C      1  0.4962710000000  0.4403020000000  0.5890340000000 1.0
C      1  0.5495370000000  0.5041910000000  0.5804540000000 1.0
C      1  0.3906330000000  0.5084460000000  0.5129130000000 1.0
C      1  0.5038910000000  0.4092720000000  0.5331360000000 1.0
C      1  0.4290290000000  0.5392960000000  0.4983370000000 1.0
C      1  0.5790700000000  0.5290690000000  0.5163870000000 1.0
END
