TITL C-2778434-4341-422 -0.0288485976719654 125000 -550.108152779392 0 0 96 (C1) n - 1
REM
REM in /home/nfs/bkarasulu/CARBON/AIRSS/Generating-Clusters/REBO/Only-C1/SD-CG/HFTN-CG
REM
REM
REM
REM
REM
REM ./C.cell (11c1c37f851c82e70ff6c80c92926a4b)
REM
REM compiler GCC version 9.2.1 20190827 (Red Hat 9.2.1-1)
REM options -cpp -mtune=generic -march=x86-64 -g -O0 -fpre-include=/usr/include/finclude/math-vector-fortran.h
REM seed -644320533 1431872375 -1323997497 -462075360 1675311745 586192899 1893274917 -727315829 -1888241078 -1690255230 -1941432130 1462953854 -1289479777 891319138 -1008267124 -167819815 -1645061431 1615198466 -1452878233 1301570763 -1135580025 -1129130089 -509047013 -1178681845 -414147693 -656518329 647675937 -102151783 7743770 60314242 -834040485 898920470 -1002901384
REM
CELL 1.54180   50.00000   50.00000   50.00000   90.00000   90.00000   90.00000
LATT -1
SFAC C  
C      1  0.4233530000000  0.5044200000000  0.4694250000000 1.0
C      1  0.4364430000000  0.4370670000000  0.5232310000000 1.0
C      1  0.5693600000000  0.5485810000000  0.4888320000000 1.0
C      1  0.5153950000000  0.4596000000000  0.4585660000000 1.0
C      1  0.4931650000000  0.5298940000000  0.5257190000000 1.0
C      1  0.5274430000000  0.4931620000000  0.5095800000000 1.0
C      1  0.5037770000000  0.5288610000000  0.5799380000000 1.0
C      1  0.5019150000000  0.5058990000000  0.5565020000000 1.0
C      1  0.5545470000000  0.4988190000000  0.4906510000000 1.0
C      1  0.4427930000000  0.5437230000000  0.5280740000000 1.0
C      1  0.5086490000000  0.4551320000000  0.5456900000000 1.0
C      1  0.4993040000000  0.4301380000000  0.4237720000000 1.0
C      1  0.4849980000000  0.5876580000000  0.4649870000000 1.0
C      1  0.5278980000000  0.4281580000000  0.4908580000000 1.0
C      1  0.4709890000000  0.4658400000000  0.4408020000000 1.0
C      1  0.4882310000000  0.5512690000000  0.5015220000000 1.0
C      1  0.4562660000000  0.5603520000000  0.5055300000000 1.0
C      1  0.5086330000000  0.4239150000000  0.5349470000000 1.0
C      1  0.5193990000000  0.4859160000000  0.4771500000000 1.0
C      1  0.4230520000000  0.5291150000000  0.4830830000000 1.0
C      1  0.4962730000000  0.5015630000000  0.4142900000000 1.0
C      1  0.5509260000000  0.4746190000000  0.4690140000000 1.0
C      1  0.4552110000000  0.4239020000000  0.5399880000000 1.0
C      1  0.5288400000000  0.5736560000000  0.4814180000000 1.0
C      1  0.5662460000000  0.4208460000000  0.4826040000000 1.0
C      1  0.4877170000000  0.4577950000000  0.5724230000000 1.0
C      1  0.4254640000000  0.4981440000000  0.5585720000000 1.0
C      1  0.5697430000000  0.4856550000000  0.5153890000000 1.0
C      1  0.5211610000000  0.4050480000000  0.5227950000000 1.0
C      1  0.5709960000000  0.5476500000000  0.5168980000000 1.0
C      1  0.4328450000000  0.5494570000000  0.5570720000000 1.0
C      1  0.4548720000000  0.5363230000000  0.4255790000000 1.0
C      1  0.5665000000000  0.4920850000000  0.5423100000000 1.0
C      1  0.5121500000000  0.5625810000000  0.4341890000000 1.0
C      1  0.4283570000000  0.5276890000000  0.5737140000000 1.0
C      1  0.4932730000000  0.5582790000000  0.5405280000000 1.0
C      1  0.5517100000000  0.4308290000000  0.5124830000000 1.0
C      1  0.4880210000000  0.5794770000000  0.5205300000000 1.0
C      1  0.5110400000000  0.5791640000000  0.4572450000000 1.0
C      1  0.4157200000000  0.4498210000000  0.5382220000000 1.0
C      1  0.5398520000000  0.4952220000000  0.5626570000000 1.0
C      1  0.5248550000000  0.5090250000000  0.4031040000000 1.0
C      1  0.4536010000000  0.4551030000000  0.4661210000000 1.0
C      1  0.5237230000000  0.5416370000000  0.4856860000000 1.0
C      1  0.4645150000000  0.4799630000000  0.4950280000000 1.0
C      1  0.5732630000000  0.4583630000000  0.5105240000000 1.0
C      1  0.4478900000000  0.5023490000000  0.5829150000000 1.0
C      1  0.5618350000000  0.4733950000000  0.3996290000000 1.0
C      1  0.5447830000000  0.5375130000000  0.5300830000000 1.0
C      1  0.4119910000000  0.4704560000000  0.5556670000000 1.0
C      1  0.4635500000000  0.5786230000000  0.4777690000000 1.0
C      1  0.4200240000000  0.5276760000000  0.5116310000000 1.0
C      1  0.5522030000000  0.5253400000000  0.4769800000000 1.0
C      1  0.4740480000000  0.4810790000000  0.5820460000000 1.0
C      1  0.4937170000000  0.5365740000000  0.4728220000000 1.0
C      1  0.5298700000000  0.4764370000000  0.5359300000000 1.0
C      1  0.4963050000000  0.5055110000000  0.4697300000000 1.0
C      1  0.5759430000000  0.5536900000000  0.5481330000000 1.0
C      1  0.4747910000000  0.4370820000000  0.4861080000000 1.0
C      1  0.4499180000000  0.5088340000000  0.4258440000000 1.0
C      1  0.5348050000000  0.4383890000000  0.4653020000000 1.0
C      1  0.4810770000000  0.4324380000000  0.5510360000000 1.0
C      1  0.4295770000000  0.4784550000000  0.5141040000000 1.0
C      1  0.4824900000000  0.5526180000000  0.4248570000000 1.0
C      1  0.5463130000000  0.4948680000000  0.3943850000000 1.0
C      1  0.4846500000000  0.6061010000000  0.5173100000000 1.0
C      1  0.4728840000000  0.4895660000000  0.4239670000000 1.0
C      1  0.4791310000000  0.5116210000000  0.5885900000000 1.0
C      1  0.4996840000000  0.4282410000000  0.4943830000000 1.0
C      1  0.4959410000000  0.4515430000000  0.4402440000000 1.0
C      1  0.5555840000000  0.4507700000000  0.4451760000000 1.0
C      1  0.4790460000000  0.4792260000000  0.5177680000000 1.0
C      1  0.5391010000000  0.4410210000000  0.5705930000000 1.0
C      1  0.5149210000000  0.4427470000000  0.5831850000000 1.0
C      1  0.4460790000000  0.4422460000000  0.4974370000000 1.0
C      1  0.4686540000000  0.5461940000000  0.4550250000000 1.0
C      1  0.4477560000000  0.4990460000000  0.4535230000000 1.0
C      1  0.4707670000000  0.4933190000000  0.4697940000000 1.0
C      1  0.4328850000000  0.4765030000000  0.4827950000000 1.0
C      1  0.5689080000000  0.4503930000000  0.4823820000000 1.0
C      1  0.5488260000000  0.5412220000000  0.5603940000000 1.0
C      1  0.4438050000000  0.5508420000000  0.4756620000000 1.0
C      1  0.5645470000000  0.4555140000000  0.4197320000000 1.0
C      1  0.5551910000000  0.5232360000000  0.4466070000000 1.0
C      1  0.4649510000000  0.5186450000000  0.5301440000000 1.0
C      1  0.5224440000000  0.5901420000000  0.5034300000000 1.0
C      1  0.5580210000000  0.5220490000000  0.4212790000000 1.0
C      1  0.5579120000000  0.4668780000000  0.5626950000000 1.0
C      1  0.4968130000000  0.5565730000000  0.5675820000000 1.0
C      1  0.5221360000000  0.5245400000000  0.5141150000000 1.0
C      1  0.5077690000000  0.5336090000000  0.4167900000000 1.0
C      1  0.5466460000000  0.4464940000000  0.5378680000000 1.0
C      1  0.5340800000000  0.5215360000000  0.5741440000000 1.0
C      1  0.4347820000000  0.5046050000000  0.5299900000000 1.0
C      1  0.4925250000000  0.4906730000000  0.5374440000000 1.0
C      1  0.5599480000000  0.5721720000000  0.4777380000000 1.0
END
