TITL C-2778434-4341-851 0.00185048429945408 125000 -458.752923907052 0 0 78 (C1) n - 1
REM
REM in /home/nfs/bkarasulu/CARBON/AIRSS/Generating-Clusters/REBO/Only-C1/SD-CG/HFTN-CG
REM
REM
REM
REM
REM
REM ./C.cell (11c1c37f851c82e70ff6c80c92926a4b)
REM
REM compiler GCC version 9.2.1 20190827 (Red Hat 9.2.1-1)
REM options -cpp -mtune=generic -march=x86-64 -g -O0 -fpre-include=/usr/include/finclude/math-vector-fortran.h
REM seed 890466979 1046786277 1469504448 1348524106 -1304558568 1234842994 619937272 902932199 -1121393308 -1722788683 -704609895 -1730834617 1071610868 2010049690 357980951 1426077742 10360594 1621410427 1742232808 1894830334 -522617772 -544839803 236174498 -35525162 -458357375 282276697 893416279 67697050 1955890158 867435179 -763557247 -948547838 726117569
REM
CELL 1.54180   50.00000   50.00000   50.00000   90.00000   90.00000   90.00000
LATT -1
SFAC C  
C      1  0.5233520000000  0.5106290000000  0.4096560000000 1.0
C      1  0.5046250000000  0.5587920000000  0.4708890000000 1.0
C      1  0.5605800000000  0.4853730000000  0.4595770000000 1.0
C      1  0.4817960000000  0.5463920000000  0.5202510000000 1.0
C      1  0.5333940000000  0.4570320000000  0.4972380000000 1.0
C      1  0.4847270000000  0.4475430000000  0.4486960000000 1.0
C      1  0.4822190000000  0.5314870000000  0.4261450000000 1.0
C      1  0.4230200000000  0.5160190000000  0.5331780000000 1.0
C      1  0.5106240000000  0.4304790000000  0.5247010000000 1.0
C      1  0.4572820000000  0.4374620000000  0.4883890000000 1.0
C      1  0.5164100000000  0.5137600000000  0.4679460000000 1.0
C      1  0.4895250000000  0.4836650000000  0.5770580000000 1.0
C      1  0.4881560000000  0.4925080000000  0.4194660000000 1.0
C      1  0.4625700000000  0.4540770000000  0.5341930000000 1.0
C      1  0.4650570000000  0.5066530000000  0.5706320000000 1.0
C      1  0.4406000000000  0.5202980000000  0.4513040000000 1.0
C      1  0.4481370000000  0.4623640000000  0.4765180000000 1.0
C      1  0.4847770000000  0.4732980000000  0.5240730000000 1.0
C      1  0.5180570000000  0.4806260000000  0.4248850000000 1.0
C      1  0.5193250000000  0.5705310000000  0.4925890000000 1.0
C      1  0.5334240000000  0.4771280000000  0.5315620000000 1.0
C      1  0.5706540000000  0.4866560000000  0.5206210000000 1.0
C      1  0.4500200000000  0.5010370000000  0.5435120000000 1.0
C      1  0.5708300000000  0.4990880000000  0.4856680000000 1.0
C      1  0.5457050000000  0.5615150000000  0.5000330000000 1.0
C      1  0.4248850000000  0.5081980000000  0.4859410000000 1.0
C      1  0.5370770000000  0.4830770000000  0.5706620000000 1.0
C      1  0.5489540000000  0.5214380000000  0.4233230000000 1.0
C      1  0.5605670000000  0.4437580000000  0.5379650000000 1.0
C      1  0.5561070000000  0.4424370000000  0.5108650000000 1.0
C      1  0.4668230000000  0.5514310000000  0.5439240000000 1.0
C      1  0.5088820000000  0.4585190000000  0.5370260000000 1.0
C      1  0.4943790000000  0.5160350000000  0.5859680000000 1.0
C      1  0.5657420000000  0.5661990000000  0.4803120000000 1.0
C      1  0.5015270000000  0.5548140000000  0.5800690000000 1.0
C      1  0.4216660000000  0.5723520000000  0.5524880000000 1.0
C      1  0.4704760000000  0.5256920000000  0.4543320000000 1.0
C      1  0.5120660000000  0.4688830000000  0.5669400000000 1.0
C      1  0.5205950000000  0.5397600000000  0.4561810000000 1.0
C      1  0.4406880000000  0.5615210000000  0.5367070000000 1.0
C      1  0.5229250000000  0.5541430000000  0.5668830000000 1.0
C      1  0.5026860000000  0.5168630000000  0.5527840000000 1.0
C      1  0.5014830000000  0.5282490000000  0.4076210000000 1.0
C      1  0.4896780000000  0.4756380000000  0.4904130000000 1.0
C      1  0.5308350000000  0.5101980000000  0.5703720000000 1.0
C      1  0.4625590000000  0.4663540000000  0.4512390000000 1.0
C      1  0.4346730000000  0.4821870000000  0.4932320000000 1.0
C      1  0.4851950000000  0.4276980000000  0.4744510000000 1.0
C      1  0.4774250000000  0.5502150000000  0.4724440000000 1.0
C      1  0.4647850000000  0.4877700000000  0.4328620000000 1.0
C      1  0.5603620000000  0.4741750000000  0.5499900000000 1.0
C      1  0.5645850000000  0.5598100000000  0.4536190000000 1.0
C      1  0.4348750000000  0.4798150000000  0.5214910000000 1.0
C      1  0.5320050000000  0.4465930000000  0.4588340000000 1.0
C      1  0.5088180000000  0.5300950000000  0.5156180000000 1.0
C      1  0.5570540000000  0.4563940000000  0.4650640000000 1.0
C      1  0.4379300000000  0.4632420000000  0.5480370000000 1.0
C      1  0.4156720000000  0.5160420000000  0.4478250000000 1.0
C      1  0.4821380000000  0.5040600000000  0.5347450000000 1.0
C      1  0.5451210000000  0.5433650000000  0.4413570000000 1.0
C      1  0.5720710000000  0.4658870000000  0.4935330000000 1.0
C      1  0.5471280000000  0.4939270000000  0.4365610000000 1.0
C      1  0.4374790000000  0.5530320000000  0.5079700000000 1.0
C      1  0.4650160000000  0.5518840000000  0.4973670000000 1.0
C      1  0.4865550000000  0.5028690000000  0.4697330000000 1.0
C      1  0.4747260000000  0.5394260000000  0.5702640000000 1.0
C      1  0.5344600000000  0.4868130000000  0.5037260000000 1.0
C      1  0.4889570000000  0.4228420000000  0.5077630000000 1.0
C      1  0.4611920000000  0.4313410000000  0.5176670000000 1.0
C      1  0.5072080000000  0.4509130000000  0.4814220000000 1.0
C      1  0.4231130000000  0.5278630000000  0.5068210000000 1.0
C      1  0.5331630000000  0.4150290000000  0.5288190000000 1.0
C      1  0.5486180000000  0.5393570000000  0.5178860000000 1.0
C      1  0.4871080000000  0.5070870000000  0.5030770000000 1.0
C      1  0.5259010000000  0.5115240000000  0.4948000000000 1.0
C      1  0.5275630000000  0.5369430000000  0.5408920000000 1.0
C      1  0.5627880000000  0.5168780000000  0.5113460000000 1.0
C      1  0.5108520000000  0.4549580000000  0.4399900000000 1.0
END
