TITL C-2778433-5640-1364 0.00126097288040216 125000 -165.244635823395 0 0 29 (C1) n - 1
REM
REM in /home/nfs/bkarasulu/CARBON/AIRSS/Generating-Clusters/REBO/Only-C1/SD-CG/HFTN-CG
REM
REM
REM
REM
REM
REM ./C.cell (11c1c37f851c82e70ff6c80c92926a4b)
REM
REM compiler GCC version 9.2.1 20190827 (Red Hat 9.2.1-1)
REM options -cpp -mtune=generic -march=x86-64 -g -O0 -fpre-include=/usr/include/finclude/math-vector-fortran.h
REM seed -380247103 -1134370882 -36775827 834244429 -1900002941 -1970652934 1170806213 1647673202 778069087 1753571369 -282136554 -1596440095 -531531318 -491837828 641147736 -1379476725 -1638277724 -858564354 512999561 1428560847 1022085058 1968852651 -1226088819 -1712486013 -840986455 1759773970 -978635515 -808139193 -605999411 312108314 -287091298 -2010182832 -153308351
REM
CELL 1.54180   50.00000   50.00000   50.00000   90.00000   90.00000   90.00000
LATT -1
SFAC C  
C      1  0.5199140000000  0.5313930000000  0.4649290000000 1.0
C      1  0.5309780000000  0.5127060000000  0.5197800000000 1.0
C      1  0.4861240000000  0.4431200000000  0.5190280000000 1.0
C      1  0.4880620000000  0.5535970000000  0.5009380000000 1.0
C      1  0.5122190000000  0.5529670000000  0.4871060000000 1.0
C      1  0.5108540000000  0.5076770000000  0.4529270000000 1.0
C      1  0.4856380000000  0.4681340000000  0.4627530000000 1.0
C      1  0.5295920000000  0.4847410000000  0.4523040000000 1.0
C      1  0.5272070000000  0.4516970000000  0.4880770000000 1.0
C      1  0.4258630000000  0.5219500000000  0.5098710000000 1.0
C      1  0.5267310000000  0.4752680000000  0.5939290000000 1.0
C      1  0.5185150000000  0.5000190000000  0.5476560000000 1.0
C      1  0.4499530000000  0.5086150000000  0.5070320000000 1.0
C      1  0.5543480000000  0.4873250000000  0.4674960000000 1.0
C      1  0.4698780000000  0.5102190000000  0.4805400000000 1.0
C      1  0.5141730000000  0.4611610000000  0.4630690000000 1.0
C      1  0.4843840000000  0.4974190000000  0.4608300000000 1.0
C      1  0.5226770000000  0.4874800000000  0.5710980000000 1.0
C      1  0.4985710000000  0.5134630000000  0.5268310000000 1.0
C      1  0.4595070000000  0.5973510000000  0.5138350000000 1.0
C      1  0.4656490000000  0.4551730000000  0.4780140000000 1.0
C      1  0.5520510000000  0.5015630000000  0.4973960000000 1.0
C      1  0.5371230000000  0.5310170000000  0.4933580000000 1.0
C      1  0.4788090000000  0.5258890000000  0.5085950000000 1.0
C      1  0.5113130000000  0.4404990000000  0.5085630000000 1.0
C      1  0.5509230000000  0.4678930000000  0.4927330000000 1.0
C      1  0.4642870000000  0.4563970000000  0.5065240000000 1.0
C      1  0.4512410000000  0.4792220000000  0.5172350000000 1.0
C      1  0.4734130000000  0.5760430000000  0.5075540000000 1.0
END
