TITL C-2778434-4341-207 0.00230345208600696 125000 -1039.52761566556 0 0 178 (C1) n - 1
REM
REM in /home/nfs/bkarasulu/CARBON/AIRSS/Generating-Clusters/REBO/Only-C1/SD-CG/HFTN-CG
REM
REM
REM
REM
REM
REM ./C.cell (11c1c37f851c82e70ff6c80c92926a4b)
REM
REM compiler GCC version 9.2.1 20190827 (Red Hat 9.2.1-1)
REM options -cpp -mtune=generic -march=x86-64 -g -O0 -fpre-include=/usr/include/finclude/math-vector-fortran.h
REM seed -1635139898 99971046 759559860 834698789 -999319052 1044722131 910128797 1432148309 -218028318 66748160 -999853662 1346065257 472931122 -262311763 -1289662264 1215669464 -207344827 638188262 102766289 382497785 -1744895570 -1705522973 1291640165 -1121056943 -882374094 1755797189 1592014207 872615213 1468140090 -790058385 296822061 -505383903 1279388123
REM
CELL 1.54180   50.00000   50.00000   50.00000   90.00000   90.00000   90.00000
LATT -1
SFAC C  
C      1  0.4264420000000  0.5254890000000  0.5287450000000 1.0
C      1  0.5836510000000  0.4724100000000  0.4486980000000 1.0
C      1  0.4543680000000  0.5021240000000  0.5671070000000 1.0
C      1  0.4404850000000  0.4197940000000  0.4923860000000 1.0
C      1  0.5167140000000  0.6019680000000  0.5133240000000 1.0
C      1  0.4541620000000  0.4061580000000  0.4706610000000 1.0
C      1  0.4681040000000  0.5044010000000  0.4056050000000 1.0
C      1  0.5486830000000  0.4173650000000  0.5660760000000 1.0
C      1  0.5663620000000  0.4594810000000  0.4233910000000 1.0
C      1  0.5055470000000  0.4454430000000  0.5008600000000 1.0
C      1  0.5247560000000  0.4608250000000  0.5228740000000 1.0
C      1  0.5275700000000  0.5058870000000  0.4717910000000 1.0
C      1  0.4769170000000  0.5844890000000  0.5493370000000 1.0
C      1  0.5755810000000  0.5501870000000  0.4445980000000 1.0
C      1  0.4692710000000  0.5966030000000  0.5140550000000 1.0
C      1  0.4444560000000  0.5748990000000  0.5553140000000 1.0
C      1  0.4918030000000  0.6090850000000  0.4952230000000 1.0
C      1  0.5251420000000  0.5437140000000  0.5061020000000 1.0
C      1  0.4281650000000  0.5375660000000  0.4675530000000 1.0
C      1  0.4219330000000  0.5078780000000  0.4289830000000 1.0
C      1  0.5981280000000  0.5232970000000  0.4849630000000 1.0
C      1  0.5189840000000  0.4926780000000  0.5945420000000 1.0
C      1  0.4501710000000  0.5703750000000  0.4931960000000 1.0
C      1  0.5437010000000  0.6072920000000  0.4930860000000 1.0
C      1  0.4603970000000  0.5183160000000  0.3773240000000 1.0
C      1  0.4991080000000  0.5667960000000  0.4778270000000 1.0
C      1  0.5841460000000  0.5526460000000  0.5266510000000 1.0
C      1  0.4582050000000  0.4757970000000  0.4854270000000 1.0
C      1  0.4479940000000  0.5409700000000  0.4875700000000 1.0
C      1  0.5703710000000  0.5064270000000  0.5816230000000 1.0
C      1  0.4394340000000  0.5410150000000  0.5922430000000 1.0
C      1  0.4514550000000  0.5161960000000  0.5953370000000 1.0
C      1  0.4830680000000  0.6120660000000  0.4404690000000 1.0
C      1  0.5277170000000  0.4285040000000  0.4725090000000 1.0
C      1  0.4825450000000  0.5196830000000  0.5286610000000 1.0
C      1  0.4646100000000  0.4224370000000  0.4497210000000 1.0
C      1  0.5237140000000  0.5237660000000  0.5960020000000 1.0
C      1  0.5852070000000  0.5547370000000  0.4826500000000 1.0
C      1  0.6161590000000  0.4886410000000  0.5184260000000 1.0
C      1  0.4593460000000  0.4322960000000  0.5086860000000 1.0
C      1  0.5637170000000  0.5813570000000  0.4829810000000 1.0
C      1  0.5814560000000  0.4508520000000  0.5305290000000 1.0
C      1  0.4035830000000  0.5201640000000  0.4754860000000 1.0
C      1  0.5621480000000  0.4681510000000  0.5784780000000 1.0
C      1  0.4576670000000  0.5638480000000  0.5848180000000 1.0
C      1  0.5565110000000  0.4334810000000  0.4296860000000 1.0
C      1  0.4862400000000  0.5449400000000  0.4981360000000 1.0
C      1  0.4304820000000  0.5515160000000  0.4436960000000 1.0
C      1  0.4055610000000  0.4620580000000  0.5434380000000 1.0
C      1  0.5782150000000  0.4479030000000  0.4691690000000 1.0
C      1  0.4961030000000  0.3998840000000  0.5580820000000 1.0
C      1  0.3766430000000  0.4515270000000  0.4311520000000 1.0
C      1  0.4076190000000  0.5229550000000  0.5529020000000 1.0
C      1  0.4623040000000  0.4596710000000  0.4641390000000 1.0
C      1  0.5558530000000  0.5502640000000  0.5694540000000 1.0
C      1  0.4264660000000  0.4643230000000  0.5672980000000 1.0
C      1  0.4062940000000  0.4730600000000  0.4955720000000 1.0
C      1  0.5169380000000  0.4039800000000  0.4548330000000 1.0
C      1  0.5063980000000  0.4824550000000  0.4632090000000 1.0
C      1  0.5065800000000  0.5176390000000  0.4946750000000 1.0
C      1  0.4530400000000  0.4471230000000  0.5694340000000 1.0
C      1  0.4669490000000  0.5171800000000  0.4995620000000 1.0
C      1  0.5545320000000  0.4560420000000  0.5114860000000 1.0
C      1  0.4497400000000  0.5043180000000  0.4574020000000 1.0
C      1  0.5527050000000  0.4286020000000  0.4931190000000 1.0
C      1  0.5497460000000  0.5376650000000  0.5404630000000 1.0
C      1  0.5554130000000  0.5727950000000  0.4546330000000 1.0
C      1  0.4565710000000  0.5999290000000  0.4489650000000 1.0
C      1  0.5358900000000  0.5066040000000  0.5429590000000 1.0
C      1  0.4836130000000  0.4385640000000  0.5727520000000 1.0
C      1  0.5614820000000  0.5044050000000  0.5218770000000 1.0
C      1  0.4024030000000  0.5474220000000  0.4963040000000 1.0
C      1  0.6019300000000  0.5319550000000  0.5359260000000 1.0
C      1  0.5390460000000  0.4117620000000  0.5345370000000 1.0
C      1  0.5637380000000  0.5348390000000  0.5095740000000 1.0
C      1  0.5241170000000  0.5731430000000  0.4992390000000 1.0
C      1  0.5052980000000  0.4514460000000  0.4694200000000 1.0
C      1  0.5996230000000  0.4805550000000  0.4940970000000 1.0
C      1  0.5721590000000  0.5764860000000  0.5349950000000 1.0
C      1  0.4848440000000  0.5604830000000  0.5933110000000 1.0
C      1  0.5074130000000  0.5692380000000  0.5699570000000 1.0
C      1  0.3820870000000  0.4868620000000  0.5000100000000 1.0
C      1  0.4485770000000  0.4900190000000  0.4265580000000 1.0
C      1  0.5780990000000  0.3919940000000  0.5168570000000 1.0
C      1  0.5096100000000  0.5881740000000  0.5413130000000 1.0
C      1  0.4509160000000  0.4550910000000  0.5275690000000 1.0
C      1  0.4675660000000  0.4013610000000  0.5397300000000 1.0
C      1  0.5607440000000  0.5043900000000  0.4102300000000 1.0
C      1  0.5235590000000  0.4393690000000  0.5443990000000 1.0
C      1  0.4980310000000  0.5105320000000  0.4455870000000 1.0
C      1  0.4881110000000  0.4260660000000  0.5159250000000 1.0
C      1  0.5110430000000  0.4848560000000  0.5027310000000 1.0
C      1  0.5659980000000  0.5761080000000  0.5627650000000 1.0
C      1  0.5036770000000  0.4561010000000  0.5897560000000 1.0
C      1  0.5904870000000  0.4027130000000  0.5393310000000 1.0
C      1  0.5080550000000  0.4532310000000  0.3959660000000 1.0
C      1  0.3649860000000  0.4410910000000  0.4098890000000 1.0
C      1  0.4971000000000  0.4727810000000  0.4328850000000 1.0
C      1  0.5363810000000  0.4960100000000  0.4407060000000 1.0
C      1  0.5028680000000  0.5612700000000  0.4274360000000 1.0
C      1  0.5120280000000  0.5285050000000  0.5325590000000 1.0
C      1  0.4893370000000  0.4354300000000  0.4453820000000 1.0
C      1  0.5989690000000  0.4747590000000  0.5432960000000 1.0
C      1  0.5448820000000  0.5416490000000  0.4570630000000 1.0
C      1  0.4341710000000  0.5891300000000  0.4710560000000 1.0
C      1  0.5589810000000  0.4238060000000  0.4599810000000 1.0
C      1  0.5534810000000  0.4052280000000  0.5115100000000 1.0
C      1  0.3893900000000  0.4772830000000  0.4464280000000 1.0
C      1  0.5097050000000  0.5924740000000  0.4384800000000 1.0
C      1  0.4768470000000  0.3952980000000  0.5101930000000 1.0
C      1  0.4888600000000  0.4858620000000  0.5969150000000 1.0
C      1  0.5806790000000  0.5073830000000  0.4305730000000 1.0
C      1  0.4416330000000  0.5794100000000  0.5241820000000 1.0
C      1  0.4747980000000  0.4710320000000  0.5376240000000 1.0
C      1  0.5503770000000  0.4780790000000  0.4073410000000 1.0
C      1  0.5071000000000  0.5357660000000  0.5715410000000 1.0
C      1  0.5031780000000  0.6121920000000  0.4654730000000 1.0
C      1  0.4157960000000  0.4363060000000  0.5301650000000 1.0
C      1  0.4785440000000  0.5644200000000  0.5207480000000 1.0
C      1  0.4969670000000  0.4987910000000  0.4136930000000 1.0
C      1  0.4751570000000  0.3896520000000  0.4822160000000 1.0
C      1  0.5476300000000  0.4618490000000  0.4630540000000 1.0
C      1  0.5773390000000  0.4252110000000  0.5494510000000 1.0
C      1  0.5358580000000  0.4654550000000  0.5978980000000 1.0
C      1  0.5177630000000  0.5344570000000  0.4422200000000 1.0
C      1  0.4986080000000  0.3876670000000  0.4659080000000 1.0
C      1  0.4149240000000  0.5633900000000  0.5104850000000 1.0
C      1  0.5321720000000  0.5543750000000  0.4112350000000 1.0
C      1  0.5888290000000  0.4822120000000  0.5725210000000 1.0
C      1  0.5447110000000  0.5293940000000  0.4849660000000 1.0
C      1  0.5290690000000  0.4625680000000  0.4373230000000 1.0
C      1  0.5371490000000  0.4701550000000  0.4865110000000 1.0
C      1  0.4941240000000  0.5353850000000  0.6089390000000 1.0
C      1  0.5261610000000  0.4264460000000  0.4327760000000 1.0
C      1  0.5726680000000  0.5012210000000  0.4898590000000 1.0
C      1  0.5407640000000  0.4934580000000  0.5698900000000 1.0
C      1  0.5919970000000  0.5327070000000  0.4335870000000 1.0
C      1  0.3901610000000  0.4478660000000  0.4599440000000 1.0
C      1  0.4318690000000  0.4914280000000  0.5489510000000 1.0
C      1  0.5534170000000  0.5300470000000  0.5892260000000 1.0
C      1  0.6142740000000  0.5175900000000  0.5128850000000 1.0
C      1  0.4137790000000  0.5104930000000  0.5058080000000 1.0
C      1  0.4567400000000  0.5360460000000  0.4061250000000 1.0
C      1  0.4295700000000  0.5343660000000  0.4214230000000 1.0
C      1  0.6027930000000  0.4960060000000  0.4645820000000 1.0
C      1  0.5314700000000  0.4433670000000  0.5746720000000 1.0
C      1  0.5898160000000  0.4518430000000  0.4974330000000 1.0
C      1  0.4025640000000  0.5015830000000  0.4494950000000 1.0
C      1  0.4015660000000  0.4948560000000  0.5338690000000 1.0
C      1  0.4740010000000  0.5568940000000  0.4206900000000 1.0
C      1  0.5525860000000  0.5844150000000  0.5149740000000 1.0
C      1  0.4314920000000  0.4925820000000  0.4831070000000 1.0
C      1  0.5240030000000  0.5581810000000  0.5432570000000 1.0
C      1  0.5872050000000  0.5051870000000  0.5399780000000 1.0
C      1  0.4919160000000  0.4956640000000  0.5433260000000 1.0
C      1  0.5013680000000  0.4363360000000  0.4171660000000 1.0
C      1  0.4297790000000  0.5456180000000  0.5628380000000 1.0
C      1  0.4726770000000  0.5224930000000  0.4576750000000 1.0
C      1  0.5222580000000  0.3957190000000  0.5670630000000 1.0
C      1  0.4794020000000  0.5243320000000  0.5679670000000 1.0
C      1  0.5643920000000  0.4978290000000  0.4588590000000 1.0
C      1  0.4761990000000  0.5120390000000  0.6084130000000 1.0
C      1  0.4446910000000  0.4259690000000  0.5450660000000 1.0
C      1  0.4754080000000  0.5509940000000  0.4602230000000 1.0
C      1  0.4735010000000  0.5876240000000  0.4758980000000 1.0
C      1  0.4145150000000  0.4279280000000  0.5018830000000 1.0
C      1  0.4016980000000  0.4461870000000  0.4846860000000 1.0
C      1  0.4712790000000  0.4759650000000  0.5711660000000 1.0
C      1  0.4316420000000  0.4769150000000  0.5179580000000 1.0
C      1  0.4670440000000  0.4677070000000  0.4385810000000 1.0
C      1  0.4953050000000  0.4291540000000  0.5453210000000 1.0
C      1  0.5373400000000  0.5223200000000  0.4183270000000 1.0
C      1  0.4786910000000  0.4860270000000  0.5070140000000 1.0
C      1  0.4764930000000  0.5515920000000  0.5517530000000 1.0
C      1  0.5375820000000  0.5801800000000  0.4308490000000 1.0
C      1  0.5210690000000  0.4781570000000  0.4014160000000 1.0
C      1  0.4531360000000  0.5350420000000  0.5368100000000 1.0
C      1  0.4551660000000  0.5687590000000  0.4432910000000 1.0
END
