TITL C-2778423-5760-399 -0.00184863424574298 125000 -526.395027917175 0 0 91 (C1) n - 1
REM
REM in /home/nfs/bkarasulu/CARBON/AIRSS/Generating-Clusters/REBO/Only-C1/SD-CG/HFTN-CG
REM
REM
REM
REM
REM
REM ./C.cell (11c1c37f851c82e70ff6c80c92926a4b)
REM
REM compiler GCC version 9.2.1 20190827 (Red Hat 9.2.1-1)
REM options -cpp -mtune=generic -march=x86-64 -g -O0 -fpre-include=/usr/include/finclude/math-vector-fortran.h
REM seed 418360229 -2113173992 1661707560 1577305045 1222499877 -1852539915 -427075483 -665899916 -1860720125 1738772811 1398771205 -1813590504 1475772815 2130036733 123422628 179421489 -927220632 -969892284 83906091 1305337375 -1858540033 154577277 -391070424 536419018 1242496275 1598175521 45578185 1930495666 -1615564173 -1113046566 -609169933 1603549639 -370166826
REM
CELL 1.54180   50.00000   50.00000   50.00000   90.00000   90.00000   90.00000
LATT -1
SFAC C  
C      1  0.4615080000000  0.5110240000000  0.4441010000000 1.0
C      1  0.4749350000000  0.4117930000000  0.4789370000000 1.0
C      1  0.5082220000000  0.5364470000000  0.4170990000000 1.0
C      1  0.5635570000000  0.4623850000000  0.5412900000000 1.0
C      1  0.4828740000000  0.4372060000000  0.5526730000000 1.0
C      1  0.4994570000000  0.4810560000000  0.4214210000000 1.0
C      1  0.5209810000000  0.5055800000000  0.6113040000000 1.0
C      1  0.5695160000000  0.5607110000000  0.5271780000000 1.0
C      1  0.5559840000000  0.5167480000000  0.5290220000000 1.0
C      1  0.4515500000000  0.5190690000000  0.5236080000000 1.0
C      1  0.4618160000000  0.4844400000000  0.4606300000000 1.0
C      1  0.5954390000000  0.5525940000000  0.5235800000000 1.0
C      1  0.4463880000000  0.4102270000000  0.4765460000000 1.0
C      1  0.5469480000000  0.4906700000000  0.4385780000000 1.0
C      1  0.4202900000000  0.5146160000000  0.5364570000000 1.0
C      1  0.4927250000000  0.4063180000000  0.5007380000000 1.0
C      1  0.5264170000000  0.4940490000000  0.5588500000000 1.0
C      1  0.4700310000000  0.5506030000000  0.4776500000000 1.0
C      1  0.5740640000000  0.5310640000000  0.4605780000000 1.0
C      1  0.4921690000000  0.5066280000000  0.4739460000000 1.0
C      1  0.4724640000000  0.5216750000000  0.5815600000000 1.0
C      1  0.4467890000000  0.4812590000000  0.5119070000000 1.0
C      1  0.5164260000000  0.4958910000000  0.4792110000000 1.0
C      1  0.4648120000000  0.4573590000000  0.5060850000000 1.0
C      1  0.5329030000000  0.5577500000000  0.4660100000000 1.0
C      1  0.5495360000000  0.5217980000000  0.4398960000000 1.0
C      1  0.4833250000000  0.5445400000000  0.5594080000000 1.0
C      1  0.4821770000000  0.4115460000000  0.5289790000000 1.0
C      1  0.5616330000000  0.4420420000000  0.5228670000000 1.0
C      1  0.4344740000000  0.5129160000000  0.4648980000000 1.0
C      1  0.4587340000000  0.4363210000000  0.5296520000000 1.0
C      1  0.5193960000000  0.5851780000000  0.4721980000000 1.0
C      1  0.4848610000000  0.5604750000000  0.4525400000000 1.0
C      1  0.5284790000000  0.5280580000000  0.5170010000000 1.0
C      1  0.5130120000000  0.4425090000000  0.4720120000000 1.0
C      1  0.5211840000000  0.4204940000000  0.4966220000000 1.0
C      1  0.4716220000000  0.5871800000000  0.4935530000000 1.0
C      1  0.4564420000000  0.4615360000000  0.4384110000000 1.0
C      1  0.5220620000000  0.5710080000000  0.5415050000000 1.0
C      1  0.4680470000000  0.4572840000000  0.4764070000000 1.0
C      1  0.5279630000000  0.5440650000000  0.4352730000000 1.0
C      1  0.4714890000000  0.5622920000000  0.5377260000000 1.0
C      1  0.4666220000000  0.4943540000000  0.4910140000000 1.0
C      1  0.5236210000000  0.4999860000000  0.5858370000000 1.0
C      1  0.4037580000000  0.5028700000000  0.5139560000000 1.0
C      1  0.5441620000000  0.4461380000000  0.4962890000000 1.0
C      1  0.4559430000000  0.4904070000000  0.5416510000000 1.0
C      1  0.5402810000000  0.5128770000000  0.4709930000000 1.0
C      1  0.4288590000000  0.5195530000000  0.4980390000000 1.0
C      1  0.4952340000000  0.5653440000000  0.5172970000000 1.0
C      1  0.4232300000000  0.4821940000000  0.4708580000000 1.0
C      1  0.5251200000000  0.4740540000000  0.4311550000000 1.0
C      1  0.4906450000000  0.5842400000000  0.4716400000000 1.0
C      1  0.5322850000000  0.4238870000000  0.4286560000000 1.0
C      1  0.4811050000000  0.5166450000000  0.5109430000000 1.0
C      1  0.5095890000000  0.4167030000000  0.5485200000000 1.0
C      1  0.5294200000000  0.4459360000000  0.4452700000000 1.0
C      1  0.4885140000000  0.5100150000000  0.4230050000000 1.0
C      1  0.4323840000000  0.4577240000000  0.4574510000000 1.0
C      1  0.4795560000000  0.5116240000000  0.5511170000000 1.0
C      1  0.5130380000000  0.5523020000000  0.5634000000000 1.0
C      1  0.4418840000000  0.5447240000000  0.4708410000000 1.0
C      1  0.4890060000000  0.5283400000000  0.4509960000000 1.0
C      1  0.5433780000000  0.5547050000000  0.5279050000000 1.0
C      1  0.5220850000000  0.6026940000000  0.5341730000000 1.0
C      1  0.4989740000000  0.4876500000000  0.5142020000000 1.0
C      1  0.5380250000000  0.4698010000000  0.5511740000000 1.0
C      1  0.4784360000000  0.4612360000000  0.4205560000000 1.0
C      1  0.4559980000000  0.5708810000000  0.5125110000000 1.0
C      1  0.5052560000000  0.5945040000000  0.5139270000000 1.0
C      1  0.5189800000000  0.4488820000000  0.5417890000000 1.0
C      1  0.5706530000000  0.5046690000000  0.4817370000000 1.0
C      1  0.4303040000000  0.4311340000000  0.4680140000000 1.0
C      1  0.5213470000000  0.5349060000000  0.4865110000000 1.0
C      1  0.6001550000000  0.5265790000000  0.5153230000000 1.0
C      1  0.4840530000000  0.4363690000000  0.4671810000000 1.0
C      1  0.5612230000000  0.4802340000000  0.4615540000000 1.0
C      1  0.4507010000000  0.4607640000000  0.5515840000000 1.0
C      1  0.4909550000000  0.4596520000000  0.5278760000000 1.0
C      1  0.5544220000000  0.5225210000000  0.5572660000000 1.0
C      1  0.5337010000000  0.5355050000000  0.5705530000000 1.0
C      1  0.4406820000000  0.4550390000000  0.5753400000000 1.0
C      1  0.4920840000000  0.5418560000000  0.4981010000000 1.0
C      1  0.5767650000000  0.5110510000000  0.5105560000000 1.0
C      1  0.5182590000000  0.4682900000000  0.4938260000000 1.0
C      1  0.4191300000000  0.4808980000000  0.4996440000000 1.0
C      1  0.5097280000000  0.5081790000000  0.5372380000000 1.0
C      1  0.4378070000000  0.5522510000000  0.5012670000000 1.0
C      1  0.5514600000000  0.4543690000000  0.4675440000000 1.0
C      1  0.5340150000000  0.4225290000000  0.5264840000000 1.0
C      1  0.5644640000000  0.5565300000000  0.4693260000000 1.0
END
