TITL C-2778432-5617-558 0.000298916746963532 125000 -1048.20697138687 0 0 181 (C1) n - 1
REM
REM in /home/nfs/bkarasulu/CARBON/AIRSS/Generating-Clusters/REBO/Only-C1/SD-CG/HFTN-CG
REM
REM
REM
REM
REM
REM ./C.cell (11c1c37f851c82e70ff6c80c92926a4b)
REM
REM compiler GCC version 9.2.1 20190827 (Red Hat 9.2.1-1)
REM options -cpp -mtune=generic -march=x86-64 -g -O0 -fpre-include=/usr/include/finclude/math-vector-fortran.h
REM seed -280863643 1637022265 1583544931 -1509920400 1916246795 446480573 725856016 -192866653 224403755 1365655875 14515968 -1325354788 904300393 -1981150461 1204379130 1703477337 665146485 -657597818 1195600307 1000253866 1034897026 -2137308001 917169474 -1892605325 1261972193 -1311234220 -1767340824 2057561275 -1088776432 373704806 2099883702 1538820388 -2016078544
REM
CELL 1.54180   50.00000   50.00000   50.00000   90.00000   90.00000   90.00000
LATT -1
SFAC C  
C      1  0.4527710000000  0.4549910000000  0.5383550000000 1.0
C      1  0.5718650000000  0.5251850000000  0.5199050000000 1.0
C      1  0.5422060000000  0.4360670000000  0.5749730000000 1.0
C      1  0.5157900000000  0.5224890000000  0.6095270000000 1.0
C      1  0.5150480000000  0.4433540000000  0.3977630000000 1.0
C      1  0.4922080000000  0.5345690000000  0.4729340000000 1.0
C      1  0.4625730000000  0.6004910000000  0.4135680000000 1.0
C      1  0.5923190000000  0.5754820000000  0.5110150000000 1.0
C      1  0.5415030000000  0.5630700000000  0.4995210000000 1.0
C      1  0.4108770000000  0.4664000000000  0.5644170000000 1.0
C      1  0.4434560000000  0.4692110000000  0.4741550000000 1.0
C      1  0.5000440000000  0.4865680000000  0.5146510000000 1.0
C      1  0.4801870000000  0.4565710000000  0.4458580000000 1.0
C      1  0.5534310000000  0.5921970000000  0.4754830000000 1.0
C      1  0.5927040000000  0.4446060000000  0.5265090000000 1.0
C      1  0.5935010000000  0.5579990000000  0.4839780000000 1.0
C      1  0.5598020000000  0.5147560000000  0.5864780000000 1.0
C      1  0.5766460000000  0.5038640000000  0.4136710000000 1.0
C      1  0.5281070000000  0.6062710000000  0.4933530000000 1.0
C      1  0.4227550000000  0.4659660000000  0.5909990000000 1.0
C      1  0.4743560000000  0.5172210000000  0.5648610000000 1.0
C      1  0.5135130000000  0.5296520000000  0.5624190000000 1.0
C      1  0.4965390000000  0.4296840000000  0.5873970000000 1.0
C      1  0.5113290000000  0.5559860000000  0.3956230000000 1.0
C      1  0.4936930000000  0.5355000000000  0.3845330000000 1.0
C      1  0.3613640000000  0.5018810000000  0.4667970000000 1.0
C      1  0.4497420000000  0.4613370000000  0.5716290000000 1.0
C      1  0.4337880000000  0.5008350000000  0.4842630000000 1.0
C      1  0.4971140000000  0.5574170000000  0.5738560000000 1.0
C      1  0.4338860000000  0.5610800000000  0.4283970000000 1.0
C      1  0.4911040000000  0.4587510000000  0.5039080000000 1.0
C      1  0.5614850000000  0.4167940000000  0.4912760000000 1.0
C      1  0.5569130000000  0.4603400000000  0.5335150000000 1.0
C      1  0.3972420000000  0.4988690000000  0.5469680000000 1.0
C      1  0.4978170000000  0.5194330000000  0.5140050000000 1.0
C      1  0.5428550000000  0.5143200000000  0.3953840000000 1.0
C      1  0.5939970000000  0.4953640000000  0.4418770000000 1.0
C      1  0.4520520000000  0.5762220000000  0.5516320000000 1.0
C      1  0.5011360000000  0.6071010000000  0.4847910000000 1.0
C      1  0.5773560000000  0.4806550000000  0.5161890000000 1.0
C      1  0.4352800000000  0.4890240000000  0.4068560000000 1.0
C      1  0.5375650000000  0.4796720000000  0.5143560000000 1.0
C      1  0.5347280000000  0.5693010000000  0.4609440000000 1.0
C      1  0.5444760000000  0.4526390000000  0.4962960000000 1.0
C      1  0.5532820000000  0.4341430000000  0.5493750000000 1.0
C      1  0.4621390000000  0.5442910000000  0.5561520000000 1.0
C      1  0.4804900000000  0.4382190000000  0.5617100000000 1.0
C      1  0.4860410000000  0.5786850000000  0.5548150000000 1.0
C      1  0.5104570000000  0.5679300000000  0.4852930000000 1.0
C      1  0.4253850000000  0.4435950000000  0.5278260000000 1.0
C      1  0.4384110000000  0.4423730000000  0.4228970000000 1.0
C      1  0.5217080000000  0.5511090000000  0.5196770000000 1.0
C      1  0.5075110000000  0.4003720000000  0.5177450000000 1.0
C      1  0.5581580000000  0.4335340000000  0.4633490000000 1.0
C      1  0.4254500000000  0.5311360000000  0.4962940000000 1.0
C      1  0.4658620000000  0.3720660000000  0.4979340000000 1.0
C      1  0.5298750000000  0.5778250000000  0.4345410000000 1.0
C      1  0.4629250000000  0.4825860000000  0.4420320000000 1.0
C      1  0.5587490000000  0.4088100000000  0.5390140000000 1.0
C      1  0.4278970000000  0.4856810000000  0.5414630000000 1.0
C      1  0.4490700000000  0.4645270000000  0.4050810000000 1.0
C      1  0.4508070000000  0.4283210000000  0.5680520000000 1.0
C      1  0.5122210000000  0.5233180000000  0.4361640000000 1.0
C      1  0.4541640000000  0.5480210000000  0.4143030000000 1.0
C      1  0.4724850000000  0.5531520000000  0.5272030000000 1.0
C      1  0.4553810000000  0.4407760000000  0.4605140000000 1.0
C      1  0.4677610000000  0.5853750000000  0.4846170000000 1.0
C      1  0.5304650000000  0.4294750000000  0.4213540000000 1.0
C      1  0.5370100000000  0.5363070000000  0.5975700000000 1.0
C      1  0.4579460000000  0.5048810000000  0.4640780000000 1.0
C      1  0.4718870000000  0.5524020000000  0.4873250000000 1.0
C      1  0.5963830000000  0.5063300000000  0.5082980000000 1.0
C      1  0.5280410000000  0.4967100000000  0.4501280000000 1.0
C      1  0.5930500000000  0.4973110000000  0.5413530000000 1.0
C      1  0.4316720000000  0.5766480000000  0.5332490000000 1.0
C      1  0.4954150000000  0.5673780000000  0.5159310000000 1.0
C      1  0.4393760000000  0.5109940000000  0.5829430000000 1.0
C      1  0.5178050000000  0.4779390000000  0.5894650000000 1.0
C      1  0.5536020000000  0.4467310000000  0.4343190000000 1.0
C      1  0.5086850000000  0.4278240000000  0.5220520000000 1.0
C      1  0.4960760000000  0.5628910000000  0.4542770000000 1.0
C      1  0.4795820000000  0.6046060000000  0.5072700000000 1.0
C      1  0.4602170000000  0.4020260000000  0.4899000000000 1.0
C      1  0.4044100000000  0.5459090000000  0.5607890000000 1.0
C      1  0.4689610000000  0.5137700000000  0.5313190000000 1.0
C      1  0.4856960000000  0.5943250000000  0.4596030000000 1.0
C      1  0.6005190000000  0.4681250000000  0.4576860000000 1.0
C      1  0.4143960000000  0.4899250000000  0.4280960000000 1.0
C      1  0.5472690000000  0.5733570000000  0.5617440000000 1.0
C      1  0.5614520000000  0.5870610000000  0.5081270000000 1.0
C      1  0.5076160000000  0.4489950000000  0.4542000000000 1.0
C      1  0.5654570000000  0.4779150000000  0.4413140000000 1.0
C      1  0.4766980000000  0.5111070000000  0.3876450000000 1.0
C      1  0.4298120000000  0.5439640000000  0.5591140000000 1.0
C      1  0.4244050000000  0.4371700000000  0.4976390000000 1.0
C      1  0.5128800000000  0.4467770000000  0.4864140000000 1.0
C      1  0.4547050000000  0.5346240000000  0.5083890000000 1.0
C      1  0.4807530000000  0.5896940000000  0.4289890000000 1.0
C      1  0.4613420000000  0.4246240000000  0.4312600000000 1.0
C      1  0.5529190000000  0.4847440000000  0.3983950000000 1.0
C      1  0.4513830000000  0.5159940000000  0.4034210000000 1.0
C      1  0.5097180000000  0.4178190000000  0.4432860000000 1.0
C      1  0.4928390000000  0.3920350000000  0.4923180000000 1.0
C      1  0.4070380000000  0.4843290000000  0.4805610000000 1.0
C      1  0.5775760000000  0.4446170000000  0.4997670000000 1.0
C      1  0.4857110000000  0.5042680000000  0.4792750000000 1.0
C      1  0.4808040000000  0.5010350000000  0.4258240000000 1.0
C      1  0.4060350000000  0.4620870000000  0.4981890000000 1.0
C      1  0.4552920000000  0.4862960000000  0.5251630000000 1.0
C      1  0.5125690000000  0.5153650000000  0.4045920000000 1.0
C      1  0.4050740000000  0.5312170000000  0.4690460000000 1.0
C      1  0.5237180000000  0.5274950000000  0.4964820000000 1.0
C      1  0.4757530000000  0.5474450000000  0.5934050000000 1.0
C      1  0.4748690000000  0.6029820000000  0.5335920000000 1.0
C      1  0.5060310000000  0.5048490000000  0.5429520000000 1.0
C      1  0.4360410000000  0.4072760000000  0.5695910000000 1.0
C      1  0.5666890000000  0.4855340000000  0.6002030000000 1.0
C      1  0.4665800000000  0.4804390000000  0.4944540000000 1.0
C      1  0.5109470000000  0.4934030000000  0.6152000000000 1.0
C      1  0.5179090000000  0.4526730000000  0.5363180000000 1.0
C      1  0.5291830000000  0.5042040000000  0.5753170000000 1.0
C      1  0.4268650000000  0.5540020000000  0.4599510000000 1.0
C      1  0.5650550000000  0.5447570000000  0.4957210000000 1.0
C      1  0.4896710000000  0.4674140000000  0.5754130000000 1.0
C      1  0.4798790000000  0.5321600000000  0.4303680000000 1.0
C      1  0.5661760000000  0.4804190000000  0.5667250000000 1.0
C      1  0.4117180000000  0.5161190000000  0.4416240000000 1.0
C      1  0.5324850000000  0.4666110000000  0.4069550000000 1.0
C      1  0.4578710000000  0.5415860000000  0.4534630000000 1.0
C      1  0.5933530000000  0.4721540000000  0.4874100000000 1.0
C      1  0.5622530000000  0.5141290000000  0.4828750000000 1.0
C      1  0.4058990000000  0.4415950000000  0.5512620000000 1.0
C      1  0.4430390000000  0.5166560000000  0.4360940000000 1.0
C      1  0.5998610000000  0.5037520000000  0.4748090000000 1.0
C      1  0.5587990000000  0.4658260000000  0.4687120000000 1.0
C      1  0.4950970000000  0.4864690000000  0.4003560000000 1.0
C      1  0.5216020000000  0.4176370000000  0.5809600000000 1.0
C      1  0.5621140000000  0.3977750000000  0.5145390000000 1.0
C      1  0.4734610000000  0.4627590000000  0.6206490000000 1.0
C      1  0.3883490000000  0.5036890000000  0.4714360000000 1.0
C      1  0.4850350000000  0.4400090000000  0.6108310000000 1.0
C      1  0.5740550000000  0.5697040000000  0.4603800000000 1.0
C      1  0.5719370000000  0.5754490000000  0.5383580000000 1.0
C      1  0.5031140000000  0.5687560000000  0.4211880000000 1.0
C      1  0.4794090000000  0.4619370000000  0.4120330000000 1.0
C      1  0.5269480000000  0.4681900000000  0.4387430000000 1.0
C      1  0.5311010000000  0.4205140000000  0.4769240000000 1.0
C      1  0.5525530000000  0.4904370000000  0.4864660000000 1.0
C      1  0.4450220000000  0.4240170000000  0.4837790000000 1.0
C      1  0.5291900000000  0.5598030000000  0.5833360000000 1.0
C      1  0.5667520000000  0.5441300000000  0.4407230000000 1.0
C      1  0.5501680000000  0.5030200000000  0.5495550000000 1.0
C      1  0.5849490000000  0.5315150000000  0.4641830000000 1.0
C      1  0.4255800000000  0.5617410000000  0.5115080000000 1.0
C      1  0.4642440000000  0.4883550000000  0.5777910000000 1.0
C      1  0.5133660000000  0.4951380000000  0.4754420000000 1.0
C      1  0.5119020000000  0.5887400000000  0.5351040000000 1.0
C      1  0.4492330000000  0.5357850000000  0.5930420000000 1.0
C      1  0.5573560000000  0.5112240000000  0.4413920000000 1.0
C      1  0.5209210000000  0.3936110000000  0.5655880000000 1.0
C      1  0.5422240000000  0.5110680000000  0.5190100000000 1.0
C      1  0.5647580000000  0.5355910000000  0.4107040000000 1.0
C      1  0.4411900000000  0.5659040000000  0.4844280000000 1.0
C      1  0.5248550000000  0.5372080000000  0.4646840000000 1.0
C      1  0.4014260000000  0.4720360000000  0.5261780000000 1.0
C      1  0.4809730000000  0.4894840000000  0.6181430000000 1.0
C      1  0.5099560000000  0.3987640000000  0.4684880000000 1.0
C      1  0.5334090000000  0.5465400000000  0.5459900000000 1.0
C      1  0.5449290000000  0.4631610000000  0.5866860000000 1.0
C      1  0.5290240000000  0.6051390000000  0.5221360000000 1.0
C      1  0.4907480000000  0.4302170000000  0.4178760000000 1.0
C      1  0.5888510000000  0.4644740000000  0.5501010000000 1.0
C      1  0.4840400000000  0.5166580000000  0.5977420000000 1.0
C      1  0.4134970000000  0.5083050000000  0.5709200000000 1.0
C      1  0.5384770000000  0.5477700000000  0.3941610000000 1.0
C      1  0.4801750000000  0.4416310000000  0.5294070000000 1.0
C      1  0.5669610000000  0.5438130000000  0.5447800000000 1.0
C      1  0.5091920000000  0.4739170000000  0.5509000000000 1.0
C      1  0.5783990000000  0.5183800000000  0.5601950000000 1.0
C      1  0.5155570000000  0.3851590000000  0.5400480000000 1.0
C      1  0.4333640000000  0.4682640000000  0.4416040000000 1.0
END
