TITL C-2778425-5191-653 0.0614741095355675 125000 -250.412382249468 0 0 46 (C1) n - 1
REM
REM in /home/nfs/bkarasulu/CARBON/AIRSS/Generating-Clusters/REBO/Only-C1/SD-CG/HFTN-CG
REM
REM
REM
REM
REM
REM ./C.cell (11c1c37f851c82e70ff6c80c92926a4b)
REM
REM compiler GCC version 9.2.1 20190827 (Red Hat 9.2.1-1)
REM options -cpp -mtune=generic -march=x86-64 -g -O0 -fpre-include=/usr/include/finclude/math-vector-fortran.h
REM seed -525667700 -2003540240 -1374479190 1053961376 -135792712 1767573143 -903041635 -663158281 -179509763 -1526081788 -1462449707 85896939 -1398695564 300499626 2031211515 1285016200 355629184 2033560002 -2004329468 -1589805628 -1301258577 994606871 -1391957598 245898163 -382600452 -166095814 -174706067 -2146787600 -1704119333 -409816023 -500246250 -631140291 -627123960
REM
CELL 1.54180   50.00000   50.00000   50.00000   90.00000   90.00000   90.00000
LATT -1
SFAC C  
C      1  0.4905970000000  0.5304060000000  0.5488290000000 1.0
C      1  0.4317710000000  0.4377260000000  0.5102890000000 1.0
C      1  0.4581970000000  0.5070760000000  0.4533980000000 1.0
C      1  0.4754840000000  0.5264640000000  0.4395780000000 1.0
C      1  0.5107230000000  0.4613030000000  0.5776260000000 1.0
C      1  0.4702300000000  0.5357330000000  0.4148420000000 1.0
C      1  0.5343850000000  0.5492630000000  0.4961370000000 1.0
C      1  0.5391560000000  0.4829840000000  0.5200750000000 1.0
C      1  0.4866160000000  0.4879430000000  0.5171250000000 1.0
C      1  0.4994130000000  0.5578030000000  0.5401320000000 1.0
C      1  0.5299170000000  0.5282720000000  0.4714670000000 1.0
C      1  0.4519760000000  0.4772590000000  0.4421920000000 1.0
C      1  0.5394640000000  0.5016020000000  0.4710310000000 1.0
C      1  0.5483540000000  0.4925750000000  0.5576260000000 1.0
C      1  0.5179530000000  0.4881080000000  0.5618650000000 1.0
C      1  0.4409020000000  0.4944160000000  0.4964220000000 1.0
C      1  0.4646750000000  0.4731900000000  0.4961180000000 1.0
C      1  0.4647020000000  0.5315330000000  0.5045300000000 1.0
C      1  0.5537480000000  0.5096370000000  0.5308960000000 1.0
C      1  0.4874810000000  0.5704500000000  0.4929140000000 1.0
C      1  0.5224320000000  0.5777930000000  0.5552910000000 1.0
C      1  0.5085210000000  0.5575010000000  0.4775150000000 1.0
C      1  0.5501770000000  0.5345780000000  0.5212670000000 1.0
C      1  0.5065850000000  0.4394370000000  0.5609250000000 1.0
C      1  0.4414600000000  0.5148290000000  0.4765920000000 1.0
C      1  0.4822550000000  0.5703860000000  0.5174570000000 1.0
C      1  0.5055260000000  0.4349520000000  0.5072400000000 1.0
C      1  0.4297480000000  0.5391860000000  0.4788440000000 1.0
C      1  0.5628520000000  0.4804850000000  0.4639440000000 1.0
C      1  0.4791660000000  0.4265810000000  0.5007590000000 1.0
C      1  0.5353400000000  0.4694580000000  0.4772340000000 1.0
C      1  0.5213440000000  0.4482570000000  0.4876820000000 1.0
C      1  0.5105080000000  0.4763880000000  0.5310210000000 1.0
C      1  0.4815280000000  0.5090530000000  0.4913150000000 1.0
C      1  0.5079830000000  0.4459420000000  0.5333150000000 1.0
C      1  0.5020290000000  0.4807370000000  0.4574460000000 1.0
C      1  0.5195910000000  0.4685310000000  0.4404860000000 1.0
C      1  0.5634340000000  0.4715740000000  0.5382330000000 1.0
C      1  0.4755160000000  0.5168880000000  0.5296700000000 1.0
C      1  0.5364520000000  0.4568110000000  0.4242020000000 1.0
C      1  0.5307060000000  0.5596900000000  0.5278790000000 1.0
C      1  0.4728100000000  0.4750460000000  0.4659990000000 1.0
C      1  0.5017220000000  0.5354290000000  0.4544080000000 1.0
C      1  0.4574420000000  0.4445730000000  0.5028740000000 1.0
C      1  0.4959920000000  0.5074780000000  0.4681860000000 1.0
C      1  0.5031340000000  0.5146720000000  0.5671240000000 1.0
END
