TITL C-2778423-5760-574 -0.00294577379684994 125000 -574.716988915535 0 0 100 (C1) n - 1
REM
REM in /home/nfs/bkarasulu/CARBON/AIRSS/Generating-Clusters/REBO/Only-C1/SD-CG/HFTN-CG
REM
REM
REM
REM
REM
REM ./C.cell (11c1c37f851c82e70ff6c80c92926a4b)
REM
REM compiler GCC version 9.2.1 20190827 (Red Hat 9.2.1-1)
REM options -cpp -mtune=generic -march=x86-64 -g -O0 -fpre-include=/usr/include/finclude/math-vector-fortran.h
REM seed -741774207 -2092811901 590807716 466720760 830060631 -519444904 2018047512 1823268288 2124460207 1914384964 1633637887 1976272749 -2083092059 1119040702 -1999014162 -2034796703 -2026010926 -2119367468 235480525 -179730071 2042303565 -241519170 936476145 -361794570 -1152896546 -1937870809 -71132709 -11655508 404081592 895673153 371835886 701079932 -352210316
REM
CELL 1.54180   50.00000   50.00000   50.00000   90.00000   90.00000   90.00000
LATT -1
SFAC C  
C      1  0.4500160000000  0.5065470000000  0.4342040000000 1.0
C      1  0.4366950000000  0.4634720000000  0.5284300000000 1.0
C      1  0.5009000000000  0.4959840000000  0.4358510000000 1.0
C      1  0.5628050000000  0.5309630000000  0.5492340000000 1.0
C      1  0.5145940000000  0.5517580000000  0.4460870000000 1.0
C      1  0.4298450000000  0.5137590000000  0.5508610000000 1.0
C      1  0.5590390000000  0.4767180000000  0.5546200000000 1.0
C      1  0.5568040000000  0.4608150000000  0.4490220000000 1.0
C      1  0.5022940000000  0.5173890000000  0.4854990000000 1.0
C      1  0.4010320000000  0.5201900000000  0.4998570000000 1.0
C      1  0.4493760000000  0.5037750000000  0.5081190000000 1.0
C      1  0.4677860000000  0.5563080000000  0.4342440000000 1.0
C      1  0.5033100000000  0.4477140000000  0.5167410000000 1.0
C      1  0.4992890000000  0.5827870000000  0.5115390000000 1.0
C      1  0.5597340000000  0.5336570000000  0.4409940000000 1.0
C      1  0.5559780000000  0.4785550000000  0.5232740000000 1.0
C      1  0.4858910000000  0.4772650000000  0.5156360000000 1.0
C      1  0.5286870000000  0.4782540000000  0.4266830000000 1.0
C      1  0.5621700000000  0.5456240000000  0.4672930000000 1.0
C      1  0.5250230000000  0.4845850000000  0.5164150000000 1.0
C      1  0.4322360000000  0.5563190000000  0.4917290000000 1.0
C      1  0.4922860000000  0.4328590000000  0.4368000000000 1.0
C      1  0.4608680000000  0.4927410000000  0.4635060000000 1.0
C      1  0.4920290000000  0.5191430000000  0.4145790000000 1.0
C      1  0.5376800000000  0.4084690000000  0.5037970000000 1.0
C      1  0.4869960000000  0.4829710000000  0.5968120000000 1.0
C      1  0.4841510000000  0.4285650000000  0.5363310000000 1.0
C      1  0.5483200000000  0.4449830000000  0.5485070000000 1.0
C      1  0.5210470000000  0.5788470000000  0.4862050000000 1.0
C      1  0.4657360000000  0.4681230000000  0.4093440000000 1.0
C      1  0.5627670000000  0.4855590000000  0.4637800000000 1.0
C      1  0.4222440000000  0.5022300000000  0.4874190000000 1.0
C      1  0.5038060000000  0.4641080000000  0.5659160000000 1.0
C      1  0.4939730000000  0.4526630000000  0.4855440000000 1.0
C      1  0.5604270000000  0.4701200000000  0.4193820000000 1.0
C      1  0.4672840000000  0.5297720000000  0.4233460000000 1.0
C      1  0.5492320000000  0.4361940000000  0.4914610000000 1.0
C      1  0.5670470000000  0.4584430000000  0.5067710000000 1.0
C      1  0.5801990000000  0.4917010000000  0.4206740000000 1.0
C      1  0.5000620000000  0.5455330000000  0.5479980000000 1.0
C      1  0.4879140000000  0.5680540000000  0.4495830000000 1.0
C      1  0.4385790000000  0.5652230000000  0.5499980000000 1.0
C      1  0.4683300000000  0.4925750000000  0.5839040000000 1.0
C      1  0.5168400000000  0.5290270000000  0.5233680000000 1.0
C      1  0.4664470000000  0.5821960000000  0.5558540000000 1.0
C      1  0.4547020000000  0.4420080000000  0.5478340000000 1.0
C      1  0.5455510000000  0.5107110000000  0.5193840000000 1.0
C      1  0.4725270000000  0.5407090000000  0.4737380000000 1.0
C      1  0.5322240000000  0.5572340000000  0.4701600000000 1.0
C      1  0.5220700000000  0.5199420000000  0.4121690000000 1.0
C      1  0.5148350000000  0.4795770000000  0.4877110000000 1.0
C      1  0.5193150000000  0.5092890000000  0.5494570000000 1.0
C      1  0.5115140000000  0.4062340000000  0.4920430000000 1.0
C      1  0.5320840000000  0.4443010000000  0.5199640000000 1.0
C      1  0.5316680000000  0.5281570000000  0.4862670000000 1.0
C      1  0.4902090000000  0.5751880000000  0.5394500000000 1.0
C      1  0.4225310000000  0.5402430000000  0.5395480000000 1.0
C      1  0.4357400000000  0.4748350000000  0.4961160000000 1.0
C      1  0.4828500000000  0.4906500000000  0.4845210000000 1.0
C      1  0.5387810000000  0.5001680000000  0.5915950000000 1.0
C      1  0.4340010000000  0.5135700000000  0.4614520000000 1.0
C      1  0.5092090000000  0.4221440000000  0.4647910000000 1.0
C      1  0.5707250000000  0.5293220000000  0.5161740000000 1.0
C      1  0.5492840000000  0.5602350000000  0.5381710000000 1.0
C      1  0.5415770000000  0.4588510000000  0.5777090000000 1.0
C      1  0.4230950000000  0.4882100000000  0.5430210000000 1.0
C      1  0.4600780000000  0.5136900000000  0.5636040000000 1.0
C      1  0.5200480000000  0.4498630000000  0.4381680000000 1.0
C      1  0.4587510000000  0.5534880000000  0.5291430000000 1.0
C      1  0.4954720000000  0.5246000000000  0.4539350000000 1.0
C      1  0.4836630000000  0.5716430000000  0.4832510000000 1.0
C      1  0.4894070000000  0.4090850000000  0.5089360000000 1.0
C      1  0.5181430000000  0.4752760000000  0.5933490000000 1.0
C      1  0.5392270000000  0.5065000000000  0.4392710000000 1.0
C      1  0.4643310000000  0.4536660000000  0.5123380000000 1.0
C      1  0.5380820000000  0.4400230000000  0.4636010000000 1.0
C      1  0.4136060000000  0.5432360000000  0.5112270000000 1.0
C      1  0.5312170000000  0.5403830000000  0.5586380000000 1.0
C      1  0.4912210000000  0.4648030000000  0.4261480000000 1.0
C      1  0.4602560000000  0.4581000000000  0.4793240000000 1.0
C      1  0.4748650000000  0.5253390000000  0.5020120000000 1.0
C      1  0.4639200000000  0.5227030000000  0.5324030000000 1.0
C      1  0.5487950000000  0.5049680000000  0.5640800000000 1.0
C      1  0.5372290000000  0.5497190000000  0.5089840000000 1.0
C      1  0.4571330000000  0.5653050000000  0.5035990000000 1.0
C      1  0.4471980000000  0.4845050000000  0.4132940000000 1.0
C      1  0.5354300000000  0.4995130000000  0.4723560000000 1.0
C      1  0.5352100000000  0.5433950000000  0.4251240000000 1.0
C      1  0.4781290000000  0.5384900000000  0.5684930000000 1.0
C      1  0.5751140000000  0.5395790000000  0.4916640000000 1.0
C      1  0.4747460000000  0.4474720000000  0.5700650000000 1.0
C      1  0.4653520000000  0.4235810000000  0.5015280000000 1.0
C      1  0.4664400000000  0.5616350000000  0.5783280000000 1.0
C      1  0.5815790000000  0.5008760000000  0.4475530000000 1.0
C      1  0.5434690000000  0.4146210000000  0.5341400000000 1.0
C      1  0.4768390000000  0.4335230000000  0.4645700000000 1.0
C      1  0.5026410000000  0.4304360000000  0.5638950000000 1.0
C      1  0.4419660000000  0.5418530000000  0.4683770000000 1.0
C      1  0.5053250000000  0.4822510000000  0.5425230000000 1.0
C      1  0.5328620000000  0.5817650000000  0.5175950000000 1.0
END
