TITL C-2778430-5657-1312 -0.0517368369584346 125000 -597.939951968865 0 0 104 (C1) n - 1
REM
REM in /home/nfs/bkarasulu/CARBON/AIRSS/Generating-Clusters/REBO/Only-C1/SD-CG/HFTN-CG
REM
REM
REM
REM
REM
REM ./C.cell (11c1c37f851c82e70ff6c80c92926a4b)
REM
REM compiler GCC version 9.2.1 20190827 (Red Hat 9.2.1-1)
REM options -cpp -mtune=generic -march=x86-64 -g -O0 -fpre-include=/usr/include/finclude/math-vector-fortran.h
REM seed 1149404538 2016925690 141227638 102097137 -2035055409 -2113051067 1862706346 -359481122 1939928191 1335783291 -8128535 -179569324 -407121910 -1178125088 1933114208 -1976936204 -107441331 1869175746 470311464 696484185 -127277433 903697411 -690007912 -1384236099 -1182900399 1870122001 1369534983 -313725719 1442131936 -1947068269 -1547444162 -282285674 761014017
REM
CELL 1.54180   50.00000   50.00000   50.00000   90.00000   90.00000   90.00000
LATT -1
SFAC C  
C      1  0.5827640000000  0.4788890000000  0.5543070000000 1.0
C      1  0.5070190000000  0.5727630000000  0.5496140000000 1.0
C      1  0.5275270000000  0.5061590000000  0.5735340000000 1.0
C      1  0.4529070000000  0.4726340000000  0.5031420000000 1.0
C      1  0.5489000000000  0.5666490000000  0.5211480000000 1.0
C      1  0.4921410000000  0.4604880000000  0.5478340000000 1.0
C      1  0.5603200000000  0.5024770000000  0.5120800000000 1.0
C      1  0.5510270000000  0.5263740000000  0.5721400000000 1.0
C      1  0.5887690000000  0.4762370000000  0.5219440000000 1.0
C      1  0.4743190000000  0.5671640000000  0.5576320000000 1.0
C      1  0.4785800000000  0.4987330000000  0.5548230000000 1.0
C      1  0.4933400000000  0.5735900000000  0.4414420000000 1.0
C      1  0.4478620000000  0.5504530000000  0.4978840000000 1.0
C      1  0.5488440000000  0.5757840000000  0.4939930000000 1.0
C      1  0.4524840000000  0.5134670000000  0.4297250000000 1.0
C      1  0.4541710000000  0.5389650000000  0.4485030000000 1.0
C      1  0.4889200000000  0.5374260000000  0.5799750000000 1.0
C      1  0.5224640000000  0.5589350000000  0.5307730000000 1.0
C      1  0.4736700000000  0.5210710000000  0.5305680000000 1.0
C      1  0.5789860000000  0.4856780000000  0.4907580000000 1.0
C      1  0.5004090000000  0.4745350000000  0.5086380000000 1.0
C      1  0.4421270000000  0.5227350000000  0.5741680000000 1.0
C      1  0.5029100000000  0.4241010000000  0.4428970000000 1.0
C      1  0.5672520000000  0.4996470000000  0.4404010000000 1.0
C      1  0.4974630000000  0.5148990000000  0.4029680000000 1.0
C      1  0.4198030000000  0.4615350000000  0.5393520000000 1.0
C      1  0.5095240000000  0.5050900000000  0.4737290000000 1.0
C      1  0.5691740000000  0.5306750000000  0.5518830000000 1.0
C      1  0.4496530000000  0.4904840000000  0.5387800000000 1.0
C      1  0.5247810000000  0.5076790000000  0.4117350000000 1.0
C      1  0.5507790000000  0.4526170000000  0.4236420000000 1.0
C      1  0.5075110000000  0.4309880000000  0.5504460000000 1.0
C      1  0.4254840000000  0.4697360000000  0.5102920000000 1.0
C      1  0.5079070000000  0.5090390000000  0.5477140000000 1.0
C      1  0.5759060000000  0.4499200000000  0.4467510000000 1.0
C      1  0.5694920000000  0.5548120000000  0.5368620000000 1.0
C      1  0.4099570000000  0.4928210000000  0.4938840000000 1.0
C      1  0.5467730000000  0.4757920000000  0.4967620000000 1.0
C      1  0.4188230000000  0.5241890000000  0.5039690000000 1.0
C      1  0.5444140000000  0.4541840000000  0.5205870000000 1.0
C      1  0.4990440000000  0.4741250000000  0.4689200000000 1.0
C      1  0.5309390000000  0.4763470000000  0.4094630000000 1.0
C      1  0.4679270000000  0.5934720000000  0.5180910000000 1.0
C      1  0.5518920000000  0.5225130000000  0.4201340000000 1.0
C      1  0.4841000000000  0.4721190000000  0.4321080000000 1.0
C      1  0.4541110000000  0.4340010000000  0.4857810000000 1.0
C      1  0.5771660000000  0.5062650000000  0.5373110000000 1.0
C      1  0.4830090000000  0.4447850000000  0.4261250000000 1.0
C      1  0.4599430000000  0.4943360000000  0.4805140000000 1.0
C      1  0.4739630000000  0.4715070000000  0.5257340000000 1.0
C      1  0.5030860000000  0.5624470000000  0.4906830000000 1.0
C      1  0.5475900000000  0.4781040000000  0.4450180000000 1.0
C      1  0.4250230000000  0.5543670000000  0.5170810000000 1.0
C      1  0.4293310000000  0.5727510000000  0.5376520000000 1.0
C      1  0.5798060000000  0.5317620000000  0.4350440000000 1.0
C      1  0.4909390000000  0.4196340000000  0.5084410000000 1.0
C      1  0.4999920000000  0.5279870000000  0.4512770000000 1.0
C      1  0.5465310000000  0.4418310000000  0.4616980000000 1.0
C      1  0.4719890000000  0.4602820000000  0.5740140000000 1.0
C      1  0.5315590000000  0.4283740000000  0.4364730000000 1.0
C      1  0.5868830000000  0.5015950000000  0.4675440000000 1.0
C      1  0.4651870000000  0.5361680000000  0.5582560000000 1.0
C      1  0.5008790000000  0.5647570000000  0.5796680000000 1.0
C      1  0.5103430000000  0.4467010000000  0.5012140000000 1.0
C      1  0.4414020000000  0.4652460000000  0.4607710000000 1.0
C      1  0.4371950000000  0.5355730000000  0.4742720000000 1.0
C      1  0.4722420000000  0.5414330000000  0.5069660000000 1.0
C      1  0.4813590000000  0.5484040000000  0.4474470000000 1.0
C      1  0.5295900000000  0.5237340000000  0.4446250000000 1.0
C      1  0.4822000000000  0.5030280000000  0.5026610000000 1.0
C      1  0.5029300000000  0.4241790000000  0.4769490000000 1.0
C      1  0.4623750000000  0.4879720000000  0.4469710000000 1.0
C      1  0.4163250000000  0.4679230000000  0.4715200000000 1.0
C      1  0.5635460000000  0.4710640000000  0.5715040000000 1.0
C      1  0.5317320000000  0.4683010000000  0.4724230000000 1.0
C      1  0.4475790000000  0.5035350000000  0.5898750000000 1.0
C      1  0.4729610000000  0.5163110000000  0.4068490000000 1.0
C      1  0.5748270000000  0.4498710000000  0.5078220000000 1.0
C      1  0.5332440000000  0.5134230000000  0.4971760000000 1.0
C      1  0.5371980000000  0.4774060000000  0.5683890000000 1.0
C      1  0.5214630000000  0.4946380000000  0.5211730000000 1.0
C      1  0.5258130000000  0.5740250000000  0.4772340000000 1.0
C      1  0.4981000000000  0.5313420000000  0.4910770000000 1.0
C      1  0.4245640000000  0.5049640000000  0.5290800000000 1.0
C      1  0.4304060000000  0.5052590000000  0.4711180000000 1.0
C      1  0.4898790000000  0.4316360000000  0.5748880000000 1.0
C      1  0.5177850000000  0.5827210000000  0.4512600000000 1.0
C      1  0.4757970000000  0.4890620000000  0.5864250000000 1.0
C      1  0.5140290000000  0.4805490000000  0.4388150000000 1.0
C      1  0.4635120000000  0.4227600000000  0.5091790000000 1.0
C      1  0.4733510000000  0.4580300000000  0.4707410000000 1.0
C      1  0.5448760000000  0.5271830000000  0.4702560000000 1.0
C      1  0.5734200000000  0.5296900000000  0.4658160000000 1.0
C      1  0.4845680000000  0.5803190000000  0.5013130000000 1.0
C      1  0.4450760000000  0.4615210000000  0.5564020000000 1.0
C      1  0.5153160000000  0.5321400000000  0.5250770000000 1.0
C      1  0.5233920000000  0.4682730000000  0.5427440000000 1.0
C      1  0.4554720000000  0.5833170000000  0.5412980000000 1.0
C      1  0.4991100000000  0.5115970000000  0.5865950000000 1.0
C      1  0.5749770000000  0.4436550000000  0.4799210000000 1.0
C      1  0.4739700000000  0.4261920000000  0.4599970000000 1.0
C      1  0.4033510000000  0.4878270000000  0.5381810000000 1.0
C      1  0.4248170000000  0.5003860000000  0.4422940000000 1.0
C      1  0.5238600000000  0.4298740000000  0.5273720000000 1.0
END
