TITL C-2778422-5617-1137 -4.5534714278031e-08 125000 -56.60945193348 0 0 12 (C1) n - 1
REM
REM in /home/nfs/bkarasulu/CARBON/AIRSS/Generating-Clusters/REBO/Only-C1/SD-CG/HFTN-CG
REM
REM
REM
REM
REM
REM ./C.cell (11c1c37f851c82e70ff6c80c92926a4b)
REM
REM compiler GCC version 9.2.1 20190827 (Red Hat 9.2.1-1)
REM options -cpp -mtune=generic -march=x86-64 -g -O0 -fpre-include=/usr/include/finclude/math-vector-fortran.h
REM seed 1257714294 -1659102133 -226517357 -714750450 -1776147221 1910546537 -1225186468 2004417863 -221407476 -400848835 1755712941 774312000 -330029999 -1827082574 -1035421418 1535418567 -556884958 -639731772 1942323414 1149788890 -1705379559 1687539792 1148654208 -1056945949 773424292 688862448 1571791355 867278341 751635109 -1818032258 95067084 -209937622 -810310034
REM
CELL 1.54180   50.00000   50.00000   50.00000   90.00000   90.00000   90.00000
LATT -1
SFAC C  
C      1  0.5625980000000  0.5062420000000  0.4803210000000 1.0
C      1  0.4929650000000  0.4878170000000  0.4946100000000 1.0
C      1  0.5349830000000  0.4718160000000  0.4624740000000 1.0
C      1  0.5387780000000  0.4930130000000  0.4792040000000 1.0
C      1  0.4827720000000  0.5497620000000  0.5290580000000 1.0
C      1  0.4770600000000  0.5260170000000  0.5216550000000 1.0
C      1  0.5207360000000  0.5226820000000  0.5127700000000 1.0
C      1  0.4456550000000  0.4974190000000  0.4979630000000 1.0
C      1  0.4886310000000  0.4662600000000  0.4778030000000 1.0
C      1  0.4701260000000  0.4971970000000  0.5126700000000 1.0
C      1  0.5173610000000  0.5015360000000  0.4959020000000 1.0
C      1  0.4683350000000  0.4802390000000  0.5355680000000 1.0
END
