TITL C-2778435-5768-1303 0.00102043762648252 125000 -919.656229722308 0 0 162 (C1) n - 1
REM
REM in /home/nfs/bkarasulu/CARBON/AIRSS/Generating-Clusters/REBO/Only-C1/SD-CG/HFTN-CG
REM
REM
REM
REM
REM
REM ./C.cell (11c1c37f851c82e70ff6c80c92926a4b)
REM
REM compiler GCC version 9.2.1 20190827 (Red Hat 9.2.1-1)
REM options -cpp -mtune=generic -march=x86-64 -g -O0 -fpre-include=/usr/include/finclude/math-vector-fortran.h
REM seed 607192857 -1385362194 904836128 -130146876 21705345 1994361011 1349881041 922604444 -1632609485 -1667858931 482884503 -1649167370 991849468 -516997094 -1260999493 -1373458438 72981151 166085784 704596075 2044771765 383378323 -40707966 -1188028038 -720514144 -27078281 -426935439 1700152950 356135829 -961984494 761931757 -835997098 1241021765 -214504468
REM
CELL 1.54180   50.00000   50.00000   50.00000   90.00000   90.00000   90.00000
LATT -1
SFAC C  
C      1  0.4615780000000  0.5562580000000  0.4474560000000 1.0
C      1  0.6014530000000  0.5005150000000  0.5282740000000 1.0
C      1  0.4358910000000  0.5185130000000  0.5020820000000 1.0
C      1  0.4715040000000  0.4012210000000  0.5229270000000 1.0
C      1  0.5546360000000  0.4488820000000  0.5767480000000 1.0
C      1  0.4899870000000  0.5259240000000  0.3949140000000 1.0
C      1  0.5174830000000  0.5255040000000  0.4045400000000 1.0
C      1  0.5397910000000  0.4974330000000  0.5701110000000 1.0
C      1  0.5012690000000  0.4836360000000  0.4138870000000 1.0
C      1  0.4903280000000  0.5503290000000  0.5546800000000 1.0
C      1  0.5729430000000  0.4525530000000  0.4326630000000 1.0
C      1  0.5766900000000  0.4697140000000  0.5865720000000 1.0
C      1  0.5105110000000  0.5773360000000  0.4312660000000 1.0
C      1  0.5838010000000  0.5327350000000  0.4460640000000 1.0
C      1  0.4936430000000  0.4512490000000  0.4068600000000 1.0
C      1  0.5455530000000  0.4705960000000  0.5193240000000 1.0
C      1  0.5038250000000  0.5940510000000  0.4605170000000 1.0
C      1  0.5756650000000  0.5619310000000  0.4718150000000 1.0
C      1  0.4729930000000  0.5147200000000  0.4434260000000 1.0
C      1  0.4739670000000  0.5884420000000  0.4471200000000 1.0
C      1  0.5170370000000  0.4661300000000  0.5013100000000 1.0
C      1  0.4676060000000  0.4286410000000  0.5247330000000 1.0
C      1  0.4762620000000  0.6043540000000  0.5089360000000 1.0
C      1  0.4708470000000  0.5344160000000  0.4153850000000 1.0
C      1  0.4172910000000  0.5114350000000  0.5749550000000 1.0
C      1  0.5146520000000  0.5358800000000  0.4761410000000 1.0
C      1  0.4118280000000  0.4317570000000  0.4998570000000 1.0
C      1  0.4935530000000  0.5511670000000  0.4558700000000 1.0
C      1  0.4202130000000  0.4271640000000  0.4742900000000 1.0
C      1  0.4949170000000  0.4445600000000  0.5156590000000 1.0
C      1  0.5928610000000  0.5574850000000  0.5011210000000 1.0
C      1  0.5176140000000  0.5553390000000  0.5833780000000 1.0
C      1  0.5668900000000  0.4251580000000  0.5556600000000 1.0
C      1  0.5792930000000  0.4522930000000  0.4599410000000 1.0
C      1  0.4513650000000  0.5835940000000  0.5051740000000 1.0
C      1  0.4801350000000  0.5665540000000  0.4215700000000 1.0
C      1  0.4439890000000  0.5327650000000  0.4492330000000 1.0
C      1  0.5296870000000  0.5255670000000  0.5738930000000 1.0
C      1  0.5325220000000  0.5348970000000  0.6064660000000 1.0
C      1  0.4766900000000  0.5386600000000  0.4909220000000 1.0
C      1  0.5840000000000  0.4802350000000  0.4738080000000 1.0
C      1  0.5308640000000  0.4971270000000  0.4071560000000 1.0
C      1  0.5123000000000  0.5331640000000  0.4366880000000 1.0
C      1  0.5277200000000  0.5854240000000  0.4817100000000 1.0
C      1  0.4449120000000  0.4098430000000  0.4683780000000 1.0
C      1  0.4270250000000  0.4824800000000  0.4377590000000 1.0
C      1  0.4571160000000  0.5504650000000  0.5121060000000 1.0
C      1  0.5220230000000  0.4412240000000  0.5826350000000 1.0
C      1  0.4435720000000  0.4437820000000  0.5376170000000 1.0
C      1  0.4650410000000  0.5608430000000  0.5741630000000 1.0
C      1  0.4904970000000  0.5175110000000  0.5097410000000 1.0
C      1  0.3901830000000  0.5661250000000  0.4400870000000 1.0
C      1  0.4774370000000  0.5220080000000  0.5684110000000 1.0
C      1  0.5368470000000  0.4879100000000  0.4730440000000 1.0
C      1  0.5486830000000  0.5604560000000  0.5444540000000 1.0
C      1  0.6071010000000  0.5366360000000  0.4268910000000 1.0
C      1  0.4094660000000  0.4992570000000  0.5436620000000 1.0
C      1  0.5228520000000  0.4986770000000  0.5022790000000 1.0
C      1  0.4066900000000  0.5222820000000  0.5187870000000 1.0
C      1  0.4855260000000  0.4888310000000  0.4919860000000 1.0
C      1  0.4678330000000  0.4875050000000  0.5854860000000 1.0
C      1  0.5326450000000  0.4248930000000  0.5545540000000 1.0
C      1  0.4845510000000  0.4653740000000  0.5545350000000 1.0
C      1  0.5404540000000  0.4605080000000  0.4588980000000 1.0
C      1  0.5253330000000  0.4634190000000  0.4017700000000 1.0
C      1  0.5236810000000  0.3868940000000  0.4714690000000 1.0
C      1  0.4336230000000  0.4859930000000  0.5630280000000 1.0
C      1  0.5708280000000  0.5376660000000  0.5487670000000 1.0
C      1  0.5413360000000  0.5179120000000  0.5163830000000 1.0
C      1  0.5580340000000  0.5384560000000  0.4981240000000 1.0
C      1  0.4747540000000  0.4724210000000  0.4642630000000 1.0
C      1  0.4793400000000  0.5687420000000  0.4809150000000 1.0
C      1  0.5233610000000  0.5581460000000  0.4964060000000 1.0
C      1  0.5902660000000  0.5313780000000  0.5227630000000 1.0
C      1  0.4626670000000  0.4332990000000  0.5640170000000 1.0
C      1  0.4947600000000  0.4336260000000  0.5635770000000 1.0
C      1  0.4272650000000  0.5518220000000  0.5020810000000 1.0
C      1  0.5020510000000  0.5241070000000  0.6027530000000 1.0
C      1  0.5919480000000  0.5324690000000  0.4779250000000 1.0
C      1  0.4489870000000  0.5151890000000  0.5875670000000 1.0
C      1  0.5788870000000  0.4793460000000  0.5395900000000 1.0
C      1  0.5188870000000  0.4036620000000  0.4972050000000 1.0
C      1  0.5418130000000  0.4278140000000  0.4472940000000 1.0
C      1  0.5580950000000  0.5527530000000  0.4391380000000 1.0
C      1  0.5100140000000  0.4928320000000  0.5323430000000 1.0
C      1  0.4109450000000  0.5550130000000  0.5292470000000 1.0
C      1  0.4961060000000  0.4972080000000  0.5983180000000 1.0
C      1  0.4897040000000  0.4197820000000  0.4928170000000 1.0
C      1  0.5727560000000  0.4950290000000  0.5763010000000 1.0
C      1  0.4938530000000  0.5899250000000  0.5395770000000 1.0
C      1  0.5141290000000  0.4774810000000  0.5687290000000 1.0
C      1  0.5635560000000  0.5665620000000  0.5150750000000 1.0
C      1  0.4603480000000  0.4986140000000  0.5535350000000 1.0
C      1  0.4627210000000  0.5810340000000  0.5500010000000 1.0
C      1  0.4217450000000  0.4552360000000  0.4554410000000 1.0
C      1  0.4979250000000  0.5460160000000  0.5247620000000 1.0
C      1  0.4441770000000  0.4617790000000  0.4877470000000 1.0
C      1  0.4053580000000  0.5536830000000  0.4594580000000 1.0
C      1  0.4871080000000  0.5507200000000  0.5943760000000 1.0
C      1  0.4446470000000  0.4863210000000  0.4652880000000 1.0
C      1  0.5312250000000  0.5530990000000  0.4183380000000 1.0
C      1  0.5940500000000  0.4503590000000  0.5163270000000 1.0
C      1  0.5558850000000  0.4354290000000  0.4761260000000 1.0
C      1  0.4667680000000  0.4553060000000  0.5887550000000 1.0
C      1  0.5045270000000  0.6050290000000  0.4931870000000 1.0
C      1  0.4246020000000  0.5663110000000  0.4762080000000 1.0
C      1  0.4118660000000  0.4726660000000  0.4832670000000 1.0
C      1  0.4998030000000  0.3957830000000  0.5235330000000 1.0
C      1  0.5768830000000  0.5112740000000  0.4987870000000 1.0
C      1  0.4984600000000  0.4633360000000  0.5939070000000 1.0
C      1  0.4007650000000  0.5042690000000  0.4900600000000 1.0
C      1  0.4264030000000  0.4550470000000  0.5159490000000 1.0
C      1  0.5223220000000  0.5913970000000  0.5207810000000 1.0
C      1  0.4429430000000  0.5416440000000  0.5707370000000 1.0
C      1  0.5456640000000  0.4210210000000  0.5008300000000 1.0
C      1  0.5227460000000  0.5070990000000  0.4497170000000 1.0
C      1  0.5887270000000  0.4493260000000  0.5479620000000 1.0
C      1  0.4566530000000  0.5055830000000  0.5227570000000 1.0
C      1  0.4401090000000  0.4582190000000  0.5675110000000 1.0
C      1  0.4886400000000  0.5144520000000  0.4701740000000 1.0
C      1  0.4508180000000  0.5851640000000  0.4720540000000 1.0
C      1  0.5008970000000  0.4850460000000  0.4460050000000 1.0
C      1  0.5067900000000  0.5141250000000  0.5551140000000 1.0
C      1  0.4412740000000  0.5175780000000  0.4196390000000 1.0
C      1  0.4057100000000  0.5231460000000  0.4621120000000 1.0
C      1  0.5753160000000  0.5026040000000  0.4513030000000 1.0
C      1  0.4680500000000  0.4417840000000  0.4782420000000 1.0
C      1  0.5132390000000  0.4598020000000  0.5399620000000 1.0
C      1  0.4737850000000  0.4032660000000  0.4697050000000 1.0
C      1  0.4798070000000  0.4805670000000  0.5242540000000 1.0
C      1  0.5401840000000  0.5798000000000  0.4460430000000 1.0
C      1  0.5601580000000  0.4858180000000  0.4967650000000 1.0
C      1  0.5155730000000  0.4567100000000  0.4396370000000 1.0
C      1  0.4113930000000  0.5097520000000  0.4341320000000 1.0
C      1  0.5326450000000  0.3970420000000  0.4502600000000 1.0
C      1  0.5471540000000  0.5428470000000  0.4688230000000 1.0
C      1  0.5486960000000  0.5915500000000  0.5049060000000 1.0
C      1  0.4726380000000  0.4310870000000  0.4249220000000 1.0
C      1  0.4079800000000  0.4826520000000  0.5158700000000 1.0
C      1  0.4366650000000  0.5771960000000  0.5330960000000 1.0
C      1  0.4893900000000  0.5727260000000  0.5106290000000 1.0
C      1  0.5724390000000  0.4246980000000  0.5217870000000 1.0
C      1  0.4717810000000  0.4629810000000  0.4302550000000 1.0
C      1  0.4882080000000  0.4068850000000  0.4408970000000 1.0
C      1  0.4576300000000  0.4887590000000  0.4276400000000 1.0
C      1  0.4497690000000  0.4366910000000  0.4496080000000 1.0
C      1  0.5432990000000  0.4395980000000  0.5272670000000 1.0
C      1  0.5007900000000  0.4335550000000  0.4572180000000 1.0
C      1  0.5179100000000  0.5707250000000  0.5548960000000 1.0
C      1  0.5506140000000  0.4960000000000  0.4348280000000 1.0
C      1  0.5907740000000  0.5120870000000  0.5590680000000 1.0
C      1  0.4357580000000  0.5133390000000  0.4732020000000 1.0
C      1  0.5525360000000  0.4668670000000  0.4210560000000 1.0
C      1  0.4148010000000  0.5371640000000  0.5548840000000 1.0
C      1  0.5980280000000  0.4764090000000  0.5045970000000 1.0
C      1  0.4446060000000  0.5340070000000  0.5377120000000 1.0
C      1  0.5598720000000  0.5073620000000  0.5371450000000 1.0
C      1  0.5065040000000  0.4526760000000  0.4782870000000 1.0
C      1  0.5087670000000  0.4068870000000  0.5478890000000 1.0
C      1  0.5144060000000  0.4244800000000  0.4276300000000 1.0
C      1  0.5289100000000  0.5457780000000  0.5242610000000 1.0
C      1  0.5502790000000  0.4718730000000  0.5528630000000 1.0
END
