TITL C-2778426-5645-227 -0.00105566576622681 125000 -429.733012065134 0 0 74 (C1) n - 1
REM
REM in /home/nfs/bkarasulu/CARBON/AIRSS/Generating-Clusters/REBO/Only-C1/SD-CG/HFTN-CG
REM
REM
REM
REM
REM
REM ./C.cell (11c1c37f851c82e70ff6c80c92926a4b)
REM
REM compiler GCC version 9.2.1 20190827 (Red Hat 9.2.1-1)
REM options -cpp -mtune=generic -march=x86-64 -g -O0 -fpre-include=/usr/include/finclude/math-vector-fortran.h
REM seed 128851247 -1195404052 1632818377 1010718735 694329407 -143038724 2007107247 -1489892641 -1045150584 1408987251 -2082400984 -1012362692 -372871969 -1593358345 -698504418 -502590775 -1168443954 -1588547340 -167720182 -229996955 144113942 234310313 -2015701585 1273792024 -1920538618 2018988506 -1958323254 -1835673127 1077267475 -1490642309 -549493282 954790259 -40031222
REM
CELL 1.54180   50.00000   50.00000   50.00000   90.00000   90.00000   90.00000
LATT -1
SFAC C  
C      1  0.4933920000000  0.5227780000000  0.4686190000000 1.0
C      1  0.5081110000000  0.4655860000000  0.5640560000000 1.0
C      1  0.4757060000000  0.5356370000000  0.4161660000000 1.0
C      1  0.4793310000000  0.5244600000000  0.5183520000000 1.0
C      1  0.4428750000000  0.5219460000000  0.5557220000000 1.0
C      1  0.5738660000000  0.4643000000000  0.5131720000000 1.0
C      1  0.4329150000000  0.4813390000000  0.4951080000000 1.0
C      1  0.5484090000000  0.4472160000000  0.5235040000000 1.0
C      1  0.5801210000000  0.4951070000000  0.5070540000000 1.0
C      1  0.5188720000000  0.5391680000000  0.4425620000000 1.0
C      1  0.5227720000000  0.4889970000000  0.5757970000000 1.0
C      1  0.4833120000000  0.5490420000000  0.5496320000000 1.0
C      1  0.4364200000000  0.4443450000000  0.4370920000000 1.0
C      1  0.5180320000000  0.5545220000000  0.5432530000000 1.0
C      1  0.5168170000000  0.4872250000000  0.4329590000000 1.0
C      1  0.5080310000000  0.5353890000000  0.5684520000000 1.0
C      1  0.4922150000000  0.5663880000000  0.4905380000000 1.0
C      1  0.4517720000000  0.5252480000000  0.5007120000000 1.0
C      1  0.5145510000000  0.5002850000000  0.5246670000000 1.0
C      1  0.5066750000000  0.4710210000000  0.5231220000000 1.0
C      1  0.4849740000000  0.4016510000000  0.5214030000000 1.0
C      1  0.4711440000000  0.5053050000000  0.4298810000000 1.0
C      1  0.5056490000000  0.5212220000000  0.4991160000000 1.0
C      1  0.4498900000000  0.5434700000000  0.4633090000000 1.0
C      1  0.4464560000000  0.5284110000000  0.4325220000000 1.0
C      1  0.4538260000000  0.5462510000000  0.5452420000000 1.0
C      1  0.4372050000000  0.4967160000000  0.5392620000000 1.0
C      1  0.4604470000000  0.4443970000000  0.5242670000000 1.0
C      1  0.5683590000000  0.5582560000000  0.4936510000000 1.0
C      1  0.5352960000000  0.5064230000000  0.4913030000000 1.0
C      1  0.5029110000000  0.5177060000000  0.4268950000000 1.0
C      1  0.4659960000000  0.4867960000000  0.4541600000000 1.0
C      1  0.5159960000000  0.4591550000000  0.4680920000000 1.0
C      1  0.4818060000000  0.4713040000000  0.5552070000000 1.0
C      1  0.5020040000000  0.4579040000000  0.4369820000000 1.0
C      1  0.4632310000000  0.5036700000000  0.5687660000000 1.0
C      1  0.5098680000000  0.4842830000000  0.4855610000000 1.0
C      1  0.4952480000000  0.5542320000000  0.5187600000000 1.0
C      1  0.5193900000000  0.4179710000000  0.4749130000000 1.0
C      1  0.4312230000000  0.5151760000000  0.4597240000000 1.0
C      1  0.4795960000000  0.5428540000000  0.4487680000000 1.0
C      1  0.5283240000000  0.4485610000000  0.5511650000000 1.0
C      1  0.5237930000000  0.5726240000000  0.4789940000000 1.0
C      1  0.5532880000000  0.5083470000000  0.4645290000000 1.0
C      1  0.4565300000000  0.4658960000000  0.5035010000000 1.0
C      1  0.4972330000000  0.4926620000000  0.4573610000000 1.0
C      1  0.5397130000000  0.5056170000000  0.5358650000000 1.0
C      1  0.4284190000000  0.4879820000000  0.4675160000000 1.0
C      1  0.4692490000000  0.5053760000000  0.4827090000000 1.0
C      1  0.5476330000000  0.4554470000000  0.4708130000000 1.0
C      1  0.4457050000000  0.5585500000000  0.5217950000000 1.0
C      1  0.4769830000000  0.5002820000000  0.5377570000000 1.0
C      1  0.4804800000000  0.5048580000000  0.5905560000000 1.0
C      1  0.4319660000000  0.5041390000000  0.5121380000000 1.0
C      1  0.5483600000000  0.5587870000000  0.4737660000000 1.0
C      1  0.5563790000000  0.4639310000000  0.5521300000000 1.0
C      1  0.4819880000000  0.4865130000000  0.5060410000000 1.0
C      1  0.5629220000000  0.5445710000000  0.5176080000000 1.0
C      1  0.5443160000000  0.5366130000000  0.4556540000000 1.0
C      1  0.5031050000000  0.4309090000000  0.4546400000000 1.0
C      1  0.4518320000000  0.4699840000000  0.5430020000000 1.0
C      1  0.5430710000000  0.4820740000000  0.4499380000000 1.0
C      1  0.5469080000000  0.4909800000000  0.5591010000000 1.0
C      1  0.4595120000000  0.5569960000000  0.4915350000000 1.0
C      1  0.5089420000000  0.4442400000000  0.5166010000000 1.0
C      1  0.4852370000000  0.4288440000000  0.5215240000000 1.0
C      1  0.4416170000000  0.4679160000000  0.4493560000000 1.0
C      1  0.5070600000000  0.5118540000000  0.5835040000000 1.0
C      1  0.5584440000000  0.5151520000000  0.5146330000000 1.0
C      1  0.5745590000000  0.4649980000000  0.4821090000000 1.0
C      1  0.5010630000000  0.5633850000000  0.4577590000000 1.0
C      1  0.5801090000000  0.4949170000000  0.4755190000000 1.0
C      1  0.5336290000000  0.4373140000000  0.4964160000000 1.0
C      1  0.5469180000000  0.5565320000000  0.5361430000000 1.0
END
