TITL C-2778422-5617-1409 0.000453032126619207 125000 -308.650138803288 0 0 53 (C1) n - 1
REM
REM in /home/nfs/bkarasulu/CARBON/AIRSS/Generating-Clusters/REBO/Only-C1/SD-CG/HFTN-CG
REM
REM
REM
REM
REM
REM ./C.cell (11c1c37f851c82e70ff6c80c92926a4b)
REM
REM compiler GCC version 9.2.1 20190827 (Red Hat 9.2.1-1)
REM options -cpp -mtune=generic -march=x86-64 -g -O0 -fpre-include=/usr/include/finclude/math-vector-fortran.h
REM seed -1797246545 -604927749 -1094637980 1443584825 328087451 1091108484 1954691120 -766744395 1598458582 -561273697 524392982 1491372915 -1538991046 -1414644172 -756223002 2095147813 -2017254130 1867166233 -552329520 -2133944312 -2019733421 100193060 1191136523 -908395400 -755645495 822200161 1910210886 1939761772 1518557571 219668570 621787178 1311495246 -1200359120
REM
CELL 1.54180   50.00000   50.00000   50.00000   90.00000   90.00000   90.00000
LATT -1
SFAC C  
C      1  0.5562510000000  0.5155940000000  0.4997630000000 1.0
C      1  0.5283370000000  0.5584640000000  0.5167550000000 1.0
C      1  0.4687810000000  0.4439820000000  0.4631000000000 1.0
C      1  0.4936480000000  0.4425030000000  0.4764950000000 1.0
C      1  0.5395190000000  0.5516860000000  0.4643350000000 1.0
C      1  0.5121120000000  0.4573520000000  0.5234380000000 1.0
C      1  0.4731770000000  0.4806250000000  0.5011260000000 1.0
C      1  0.4640980000000  0.5233130000000  0.4639880000000 1.0
C      1  0.4965140000000  0.5339890000000  0.4861800000000 1.0
C      1  0.5453440000000  0.5110220000000  0.4260630000000 1.0
C      1  0.4475890000000  0.4704820000000  0.4664710000000 1.0
C      1  0.4408040000000  0.4393150000000  0.4772570000000 1.0
C      1  0.4312790000000  0.5156300000000  0.5011270000000 1.0
C      1  0.4757870000000  0.5088720000000  0.5631760000000 1.0
C      1  0.5627230000000  0.4492340000000  0.5114720000000 1.0
C      1  0.4992730000000  0.4557500000000  0.5492230000000 1.0
C      1  0.4793190000000  0.5431410000000  0.4488930000000 1.0
C      1  0.5604170000000  0.5661630000000  0.4580150000000 1.0
C      1  0.5158800000000  0.4270140000000  0.4692890000000 1.0
C      1  0.4458520000000  0.4680800000000  0.5153980000000 1.0
C      1  0.4855290000000  0.4830880000000  0.5747250000000 1.0
C      1  0.5299340000000  0.4863880000000  0.5504830000000 1.0
C      1  0.5199510000000  0.5364950000000  0.5393560000000 1.0
C      1  0.4680380000000  0.4957550000000  0.4711030000000 1.0
C      1  0.5401590000000  0.5174040000000  0.5457800000000 1.0
C      1  0.5321070000000  0.5841490000000  0.5275700000000 1.0
C      1  0.5439510000000  0.4692630000000  0.5245420000000 1.0
C      1  0.5153730000000  0.4971070000000  0.5219070000000 1.0
C      1  0.4479360000000  0.4739750000000  0.5446500000000 1.0
C      1  0.5140740000000  0.4728760000000  0.5718880000000 1.0
C      1  0.5289940000000  0.5017430000000  0.4971870000000 1.0
C      1  0.4460390000000  0.5354030000000  0.4848910000000 1.0
C      1  0.4377400000000  0.4399680000000  0.5047220000000 1.0
C      1  0.5419140000000  0.4220140000000  0.4746580000000 1.0
C      1  0.4915960000000  0.5658440000000  0.4630140000000 1.0
C      1  0.5609360000000  0.4309860000000  0.4917610000000 1.0
C      1  0.5315230000000  0.5240040000000  0.4535140000000 1.0
C      1  0.4868240000000  0.5001800000000  0.5210090000000 1.0
C      1  0.5167720000000  0.5590300000000  0.4850120000000 1.0
C      1  0.5165670000000  0.5236650000000  0.4242080000000 1.0
C      1  0.4952870000000  0.4584360000000  0.4999840000000 1.0
C      1  0.4912910000000  0.5349580000000  0.4243190000000 1.0
C      1  0.5662380000000  0.4988010000000  0.4144600000000 1.0
C      1  0.4690730000000  0.4606760000000  0.5589420000000 1.0
C      1  0.4494440000000  0.5023980000000  0.5503830000000 1.0
C      1  0.4941860000000  0.5291350000000  0.5482040000000 1.0
C      1  0.4724840000000  0.5398980000000  0.4993610000000 1.0
C      1  0.4393360000000  0.5201430000000  0.5289330000000 1.0
C      1  0.5569500000000  0.5007460000000  0.5256320000000 1.0
C      1  0.4350600000000  0.4887330000000  0.4923610000000 1.0
C      1  0.5538240000000  0.5442420000000  0.5008940000000 1.0
C      1  0.5138900000000  0.5131440000000  0.4761030000000 1.0
C      1  0.4702770000000  0.5271410000000  0.5268770000000 1.0
END
