TITL C-2778424-3986-202 -0.000977151849049113 125000 -298.319696877266 0 0 51 (C1) n - 1
REM
REM in /home/nfs/bkarasulu/CARBON/AIRSS/Generating-Clusters/REBO/Only-C1/SD-CG/HFTN-CG
REM
REM
REM
REM
REM
REM ./C.cell (11c1c37f851c82e70ff6c80c92926a4b)
REM
REM compiler GCC version 9.2.1 20190827 (Red Hat 9.2.1-1)
REM options -cpp -mtune=generic -march=x86-64 -g -O0 -fpre-include=/usr/include/finclude/math-vector-fortran.h
REM seed 1187126217 1804141840 -1030942709 1814548929 2117671696 -401467250 833836490 -885373777 -989131958 -596702670 1609727750 152084768 -1746178935 -381829061 -1542625961 2032675067 215301302 -1823598876 -130752980 -1362722663 1962097159 260493005 -1626900282 -1862149043 -1104726582 52818700 -1928672646 1832828564 966661783 -1623882974 -732914175 521922308 2079404952
REM
CELL 1.54180   50.00000   50.00000   50.00000   90.00000   90.00000   90.00000
LATT -1
SFAC C  
C      1  0.5214210000000  0.4752130000000  0.5005740000000 1.0
C      1  0.5541500000000  0.5435030000000  0.4851190000000 1.0
C      1  0.5099570000000  0.5320810000000  0.5638620000000 1.0
C      1  0.5427800000000  0.4324530000000  0.5121560000000 1.0
C      1  0.5067750000000  0.4559800000000  0.5418100000000 1.0
C      1  0.5371340000000  0.4448530000000  0.4661800000000 1.0
C      1  0.5856430000000  0.4659640000000  0.5157020000000 1.0
C      1  0.6077080000000  0.4573070000000  0.5290280000000 1.0
C      1  0.5166000000000  0.5448040000000  0.5153050000000 1.0
C      1  0.4973120000000  0.4945250000000  0.5106900000000 1.0
C      1  0.4745690000000  0.4676460000000  0.4422650000000 1.0
C      1  0.5046800000000  0.5042560000000  0.4787620000000 1.0
C      1  0.3858000000000  0.5032670000000  0.4138920000000 1.0
C      1  0.4917860000000  0.5342230000000  0.4741330000000 1.0
C      1  0.4886030000000  0.4650010000000  0.4666290000000 1.0
C      1  0.4083440000000  0.5353930000000  0.5308500000000 1.0
C      1  0.5627110000000  0.4685990000000  0.4449990000000 1.0
C      1  0.5384740000000  0.4820340000000  0.4465560000000 1.0
C      1  0.4260190000000  0.5139610000000  0.5252290000000 1.0
C      1  0.4498960000000  0.4784080000000  0.4379610000000 1.0
C      1  0.4054470000000  0.4972690000000  0.4301660000000 1.0
C      1  0.5307450000000  0.4992090000000  0.4666440000000 1.0
C      1  0.5554650000000  0.5128230000000  0.4820760000000 1.0
C      1  0.5291590000000  0.5363160000000  0.5392370000000 1.0
C      1  0.4576550000000  0.4832370000000  0.5085130000000 1.0
C      1  0.5559620000000  0.4380380000000  0.4872150000000 1.0
C      1  0.4331900000000  0.4979940000000  0.5017830000000 1.0
C      1  0.5291910000000  0.5557940000000  0.4913600000000 1.0
C      1  0.5235890000000  0.4514170000000  0.5206560000000 1.0
C      1  0.5095020000000  0.5736070000000  0.4481690000000 1.0
C      1  0.4961670000000  0.4853580000000  0.5421180000000 1.0
C      1  0.5096090000000  0.5565780000000  0.4691130000000 1.0
C      1  0.5441320000000  0.4953540000000  0.5055340000000 1.0
C      1  0.4630300000000  0.5543810000000  0.5759630000000 1.0
C      1  0.4723040000000  0.4698630000000  0.4891930000000 1.0
C      1  0.4459870000000  0.5074610000000  0.5457970000000 1.0
C      1  0.4939880000000  0.5269080000000  0.5059550000000 1.0
C      1  0.5445430000000  0.5069060000000  0.5368100000000 1.0
C      1  0.5159890000000  0.4626380000000  0.4733080000000 1.0
C      1  0.5816350000000  0.4731750000000  0.4662460000000 1.0
C      1  0.4660660000000  0.4900090000000  0.5351760000000 1.0
C      1  0.5169860000000  0.5028920000000  0.5557350000000 1.0
C      1  0.4373600000000  0.5572460000000  0.5685860000000 1.0
C      1  0.3866010000000  0.5409810000000  0.5155570000000 1.0
C      1  0.4247060000000  0.4966760000000  0.4751160000000 1.0
C      1  0.4163910000000  0.5514710000000  0.5526310000000 1.0
C      1  0.5828230000000  0.5010260000000  0.4731180000000 1.0
C      1  0.5676150000000  0.4844680000000  0.5257360000000 1.0
C      1  0.4882170000000  0.5452900000000  0.5743770000000 1.0
C      1  0.5792040000000  0.4552660000000  0.4889080000000 1.0
C      1  0.4263770000000  0.4908790000000  0.4475030000000 1.0
END
