TITL C-2778428-5639-572 -0.00153746857089196 125000 -489.507524390507 0 0 85 (C1) n - 1
REM
REM in /home/nfs/bkarasulu/CARBON/AIRSS/Generating-Clusters/REBO/Only-C1/SD-CG/HFTN-CG
REM
REM
REM
REM
REM
REM ./C.cell (11c1c37f851c82e70ff6c80c92926a4b)
REM
REM compiler GCC version 9.2.1 20190827 (Red Hat 9.2.1-1)
REM options -cpp -mtune=generic -march=x86-64 -g -O0 -fpre-include=/usr/include/finclude/math-vector-fortran.h
REM seed 538390577 -1940596111 -858523684 1453547303 -1947713511 771591049 -1642661636 828659170 1389192900 -1759364848 -1742820806 1143130373 1054315856 1755118703 -205361858 1453783794 1129780902 -1223137020 65667965 -1401706147 -1837477067 -225714240 -1544468764 -440070303 725774984 -63136416 -1145155887 384196653 -1553724543 -74241179 1340581792 -1881247261 1737690006
REM
CELL 1.54180   50.00000   50.00000   50.00000   90.00000   90.00000   90.00000
LATT -1
SFAC C  
C      1  0.4331210000000  0.5048810000000  0.4919600000000 1.0
C      1  0.4735430000000  0.4560260000000  0.5586560000000 1.0
C      1  0.5408540000000  0.4985730000000  0.4955260000000 1.0
C      1  0.4296850000000  0.5225160000000  0.5137390000000 1.0
C      1  0.5091200000000  0.5201770000000  0.4623650000000 1.0
C      1  0.4462850000000  0.5727370000000  0.4921660000000 1.0
C      1  0.5047550000000  0.4370710000000  0.5000350000000 1.0
C      1  0.4928410000000  0.4758530000000  0.5647420000000 1.0
C      1  0.4519420000000  0.4916490000000  0.5246790000000 1.0
C      1  0.4492100000000  0.5173600000000  0.4722140000000 1.0
C      1  0.5247070000000  0.5511350000000  0.5320590000000 1.0
C      1  0.4858700000000  0.5683840000000  0.4937580000000 1.0
C      1  0.5805620000000  0.4996200000000  0.5418020000000 1.0
C      1  0.5077260000000  0.5302790000000  0.5165340000000 1.0
C      1  0.4891360000000  0.5476070000000  0.5588350000000 1.0
C      1  0.5305930000000  0.5056890000000  0.4429950000000 1.0
C      1  0.4768080000000  0.4565910000000  0.5015110000000 1.0
C      1  0.4235010000000  0.5581160000000  0.4796410000000 1.0
C      1  0.4188040000000  0.5502340000000  0.5104830000000 1.0
C      1  0.4894410000000  0.5408270000000  0.4933560000000 1.0
C      1  0.5275010000000  0.5624210000000  0.4772850000000 1.0
C      1  0.4576540000000  0.4883470000000  0.4462700000000 1.0
C      1  0.4979130000000  0.4942610000000  0.5452780000000 1.0
C      1  0.4597460000000  0.5249580000000  0.5260640000000 1.0
C      1  0.5475810000000  0.4445170000000  0.5544340000000 1.0
C      1  0.4642010000000  0.5393010000000  0.4425400000000 1.0
C      1  0.4885760000000  0.4620980000000  0.3993610000000 1.0
C      1  0.4964720000000  0.4819600000000  0.4949270000000 1.0
C      1  0.4453170000000  0.5003880000000  0.5567640000000 1.0
C      1  0.4420880000000  0.4755760000000  0.4963800000000 1.0
C      1  0.5703250000000  0.4412050000000  0.4691520000000 1.0
C      1  0.5550210000000  0.5222270000000  0.4840900000000 1.0
C      1  0.5285590000000  0.4604590000000  0.5045470000000 1.0
C      1  0.4617270000000  0.4594730000000  0.5271110000000 1.0
C      1  0.5798420000000  0.4657800000000  0.4858100000000 1.0
C      1  0.4697060000000  0.5164240000000  0.5742770000000 1.0
C      1  0.5243960000000  0.5161840000000  0.5724680000000 1.0
C      1  0.4823780000000  0.5602310000000  0.4522430000000 1.0
C      1  0.4358460000000  0.5409210000000  0.4583750000000 1.0
C      1  0.5616200000000  0.5141660000000  0.4527620000000 1.0
C      1  0.5099230000000  0.5805810000000  0.5320250000000 1.0
C      1  0.5000330000000  0.4741680000000  0.4205450000000 1.0
C      1  0.5124100000000  0.5084100000000  0.4916440000000 1.0
C      1  0.4443850000000  0.4682100000000  0.5554810000000 1.0
C      1  0.5862060000000  0.5169170000000  0.4761450000000 1.0
C      1  0.4793160000000  0.4180950000000  0.4917170000000 1.0
C      1  0.4686380000000  0.5798830000000  0.4715510000000 1.0
C      1  0.4154550000000  0.4464650000000  0.4653690000000 1.0
C      1  0.5550120000000  0.5164010000000  0.5568790000000 1.0
C      1  0.4650940000000  0.4717690000000  0.4724970000000 1.0
C      1  0.5309540000000  0.4209210000000  0.5085600000000 1.0
C      1  0.5653520000000  0.4409120000000  0.4188450000000 1.0
C      1  0.5481800000000  0.4726790000000  0.4799110000000 1.0
C      1  0.4343850000000  0.4467510000000  0.4863370000000 1.0
C      1  0.4978600000000  0.5146060000000  0.5795900000000 1.0
C      1  0.4776360000000  0.5196840000000  0.4754940000000 1.0
C      1  0.5375440000000  0.5766020000000  0.5142400000000 1.0
C      1  0.4740480000000  0.5116670000000  0.4365460000000 1.0
C      1  0.5100580000000  0.5572260000000  0.5687590000000 1.0
C      1  0.5597740000000  0.4501980000000  0.4441050000000 1.0
C      1  0.4149510000000  0.4617350000000  0.4426190000000 1.0
C      1  0.5089340000000  0.5513090000000  0.4601320000000 1.0
C      1  0.4336380000000  0.5509110000000  0.5413510000000 1.0
C      1  0.5562460000000  0.5253450000000  0.5237270000000 1.0
C      1  0.5141940000000  0.4839620000000  0.5230300000000 1.0
C      1  0.4959000000000  0.4628570000000  0.4674510000000 1.0
C      1  0.4332730000000  0.4803750000000  0.4344530000000 1.0
C      1  0.5288480000000  0.3952100000000  0.5307540000000 1.0
C      1  0.4568080000000  0.5587510000000  0.5193380000000 1.0
C      1  0.4429520000000  0.5330890000000  0.5613540000000 1.0
C      1  0.5373070000000  0.4235370000000  0.5418840000000 1.0
C      1  0.4873480000000  0.5229630000000  0.5390270000000 1.0
C      1  0.5838900000000  0.4785200000000  0.5148840000000 1.0
C      1  0.5604160000000  0.4728740000000  0.5465500000000 1.0
C      1  0.5379980000000  0.5441240000000  0.5592120000000 1.0
C      1  0.5586580000000  0.4558030000000  0.5177400000000 1.0
C      1  0.5478830000000  0.5481800000000  0.4998400000000 1.0
C      1  0.5003930000000  0.5029800000000  0.4274570000000 1.0
C      1  0.4841320000000  0.5789690000000  0.5217430000000 1.0
C      1  0.5837100000000  0.5111190000000  0.5095630000000 1.0
C      1  0.5115530000000  0.4625740000000  0.4445020000000 1.0
C      1  0.5444590000000  0.4933010000000  0.5263180000000 1.0
C      1  0.4535000000000  0.4263620000000  0.4895940000000 1.0
C      1  0.5396690000000  0.4735580000000  0.4497480000000 1.0
C      1  0.5561050000000  0.4332240000000  0.4942930000000 1.0
END
