TITL C-2778427-5640-1227 0.00171958586538608 125000 -1122.99727146474 0 0 187 (C1) n - 1
REM
REM in /home/nfs/bkarasulu/CARBON/AIRSS/Generating-Clusters/REBO/Only-C1/SD-CG/HFTN-CG
REM
REM
REM
REM
REM
REM ./C.cell (11c1c37f851c82e70ff6c80c92926a4b)
REM
REM compiler GCC version 9.2.1 20190827 (Red Hat 9.2.1-1)
REM options -cpp -mtune=generic -march=x86-64 -g -O0 -fpre-include=/usr/include/finclude/math-vector-fortran.h
REM seed 1101867466 -160470417 33021864 -1104740557 659694965 -461862379 -114079174 1230163873 1364087395 -1174337204 249580413 -1546801726 1756839788 -2060118282 549862928 1266446670 -703372974 -848163952 372748842 -1154455315 -1388877211 206869024 -699957604 -852823988 -2058365780 -780676238 -565313489 -210237865 1019878285 -273493300 -1470907121 1713794197 -117107706
REM
CELL 1.54180   50.00000   50.00000   50.00000   90.00000   90.00000   90.00000
LATT -1
SFAC C  
C      1  0.4482790000000  0.3978500000000  0.4927980000000 1.0
C      1  0.4823250000000  0.5073280000000  0.5660270000000 1.0
C      1  0.5656270000000  0.4386030000000  0.4561240000000 1.0
C      1  0.4639730000000  0.5166920000000  0.4357080000000 1.0
C      1  0.5608400000000  0.5010290000000  0.5663260000000 1.0
C      1  0.5148720000000  0.6044510000000  0.5225750000000 1.0
C      1  0.4828520000000  0.6027770000000  0.4571210000000 1.0
C      1  0.4724800000000  0.5493900000000  0.4032960000000 1.0
C      1  0.4556100000000  0.5335580000000  0.5950880000000 1.0
C      1  0.5542060000000  0.4399040000000  0.5629740000000 1.0
C      1  0.5309340000000  0.5924480000000  0.4370010000000 1.0
C      1  0.4876170000000  0.6149480000000  0.5055920000000 1.0
C      1  0.4907240000000  0.5947620000000  0.5434200000000 1.0
C      1  0.5389600000000  0.5534780000000  0.4733990000000 1.0
C      1  0.5412740000000  0.5929600000000  0.5351130000000 1.0
C      1  0.6014380000000  0.5084710000000  0.5126380000000 1.0
C      1  0.5010550000000  0.5298310000000  0.4241810000000 1.0
C      1  0.5139370000000  0.4661830000000  0.5918380000000 1.0
C      1  0.4336610000000  0.5062400000000  0.5568860000000 1.0
C      1  0.6001740000000  0.5150920000000  0.4817600000000 1.0
C      1  0.4645870000000  0.5103230000000  0.5305140000000 1.0
C      1  0.5325190000000  0.4518350000000  0.5497420000000 1.0
C      1  0.5118460000000  0.6097430000000  0.4575040000000 1.0
C      1  0.6052420000000  0.4871750000000  0.5322520000000 1.0
C      1  0.4704190000000  0.5167440000000  0.4021320000000 1.0
C      1  0.4572200000000  0.5503100000000  0.4955570000000 1.0
C      1  0.5819660000000  0.4526650000000  0.5622850000000 1.0
C      1  0.4089040000000  0.5330000000000  0.6062260000000 1.0
C      1  0.4221830000000  0.4884320000000  0.4598440000000 1.0
C      1  0.4641560000000  0.4850210000000  0.4908110000000 1.0
C      1  0.5004120000000  0.4461550000000  0.4995800000000 1.0
C      1  0.4935440000000  0.4705860000000  0.6125870000000 1.0
C      1  0.5976790000000  0.5107450000000  0.5778190000000 1.0
C      1  0.5052690000000  0.3970320000000  0.4388570000000 1.0
C      1  0.4170670000000  0.5715870000000  0.4800300000000 1.0
C      1  0.4199490000000  0.5383300000000  0.4583680000000 1.0
C      1  0.5559080000000  0.4144960000000  0.5241540000000 1.0
C      1  0.5708930000000  0.4364270000000  0.5267910000000 1.0
C      1  0.5792560000000  0.5558760000000  0.5144850000000 1.0
C      1  0.4049800000000  0.5494080000000  0.4980790000000 1.0
C      1  0.4133970000000  0.5169810000000  0.5845170000000 1.0
C      1  0.5965330000000  0.4812470000000  0.4837960000000 1.0
C      1  0.4164720000000  0.4701090000000  0.5253630000000 1.0
C      1  0.5419360000000  0.5374240000000  0.4006690000000 1.0
C      1  0.4347800000000  0.4873820000000  0.5024370000000 1.0
C      1  0.5297900000000  0.5469000000000  0.4460720000000 1.0
C      1  0.4582080000000  0.4540360000000  0.4666790000000 1.0
C      1  0.4736260000000  0.6042990000000  0.4847560000000 1.0
C      1  0.4939680000000  0.5423620000000  0.5901750000000 1.0
C      1  0.5732830000000  0.4582210000000  0.4336890000000 1.0
C      1  0.5410660000000  0.4786200000000  0.5213760000000 1.0
C      1  0.5627150000000  0.3988500000000  0.4881910000000 1.0
C      1  0.4604560000000  0.4308050000000  0.4251780000000 1.0
C      1  0.4373600000000  0.4375450000000  0.4570810000000 1.0
C      1  0.4929380000000  0.4063020000000  0.4670930000000 1.0
C      1  0.5571180000000  0.4886270000000  0.5941970000000 1.0
C      1  0.6149090000000  0.4624710000000  0.5230580000000 1.0
C      1  0.4333520000000  0.5486160000000  0.5170670000000 1.0
C      1  0.5215990000000  0.6023690000000  0.4890970000000 1.0
C      1  0.5256890000000  0.4493750000000  0.4569080000000 1.0
C      1  0.5017240000000  0.5189900000000  0.5190950000000 1.0
C      1  0.5160060000000  0.5360060000000  0.3877420000000 1.0
C      1  0.6012490000000  0.4108590000000  0.5222420000000 1.0
C      1  0.5455550000000  0.5236070000000  0.5634350000000 1.0
C      1  0.4239520000000  0.5143150000000  0.4990460000000 1.0
C      1  0.6146190000000  0.4637120000000  0.4948280000000 1.0
C      1  0.4456920000000  0.4826210000000  0.5941630000000 1.0
C      1  0.4908610000000  0.5022100000000  0.4919970000000 1.0
C      1  0.5291240000000  0.5649780000000  0.5757810000000 1.0
C      1  0.4701330000000  0.4535550000000  0.4961040000000 1.0
C      1  0.5357780000000  0.5199140000000  0.4412980000000 1.0
C      1  0.5276770000000  0.4908980000000  0.5861310000000 1.0
C      1  0.5079980000000  0.4541110000000  0.5670040000000 1.0
C      1  0.4528980000000  0.5835490000000  0.4921130000000 1.0
C      1  0.5144010000000  0.4135060000000  0.5715650000000 1.0
C      1  0.5680420000000  0.5274540000000  0.5018480000000 1.0
C      1  0.4290870000000  0.4803570000000  0.4213140000000 1.0
C      1  0.4669730000000  0.3788790000000  0.5319350000000 1.0
C      1  0.4976640000000  0.5775330000000  0.5719340000000 1.0
C      1  0.5326560000000  0.4044300000000  0.5033530000000 1.0
C      1  0.5564990000000  0.5151010000000  0.4178650000000 1.0
C      1  0.4991690000000  0.5586580000000  0.3965520000000 1.0
C      1  0.4341410000000  0.5428840000000  0.4325450000000 1.0
C      1  0.5169160000000  0.5775480000000  0.4097440000000 1.0
C      1  0.5780930000000  0.5286610000000  0.4379400000000 1.0
C      1  0.4433790000000  0.5334140000000  0.5391940000000 1.0
C      1  0.5181080000000  0.5585170000000  0.5433720000000 1.0
C      1  0.5880620000000  0.4784450000000  0.5843130000000 1.0
C      1  0.5133400000000  0.4187390000000  0.4228880000000 1.0
C      1  0.4553690000000  0.5604440000000  0.4235730000000 1.0
C      1  0.4596710000000  0.5767460000000  0.5609920000000 1.0
C      1  0.5577960000000  0.4827200000000  0.4156870000000 1.0
C      1  0.4803870000000  0.5402460000000  0.5262640000000 1.0
C      1  0.5530380000000  0.5733220000000  0.5556210000000 1.0
C      1  0.4765960000000  0.5645980000000  0.5365130000000 1.0
C      1  0.5590730000000  0.5729670000000  0.4387960000000 1.0
C      1  0.5062100000000  0.5547290000000  0.4962790000000 1.0
C      1  0.5861810000000  0.3987010000000  0.5033220000000 1.0
C      1  0.5687850000000  0.4684570000000  0.4717880000000 1.0
C      1  0.4635270000000  0.5312560000000  0.5656350000000 1.0
C      1  0.5854080000000  0.4836290000000  0.4458420000000 1.0
C      1  0.5105120000000  0.5052310000000  0.5669380000000 1.0
C      1  0.4575450000000  0.4562890000000  0.5812530000000 1.0
C      1  0.4906180000000  0.5494040000000  0.4388130000000 1.0
C      1  0.4472430000000  0.4420830000000  0.5118730000000 1.0
C      1  0.5361680000000  0.4382440000000  0.4291320000000 1.0
C      1  0.4256300000000  0.4488930000000  0.4341200000000 1.0
C      1  0.5114570000000  0.4692430000000  0.5301640000000 1.0
C      1  0.5433810000000  0.5780490000000  0.4861830000000 1.0
C      1  0.5088110000000  0.5709840000000  0.4492440000000 1.0
C      1  0.5835270000000  0.4842750000000  0.5514980000000 1.0
C      1  0.5429830000000  0.4171940000000  0.5764270000000 1.0
C      1  0.5877010000000  0.5298280000000  0.5598590000000 1.0
C      1  0.5210300000000  0.4872400000000  0.3764680000000 1.0
C      1  0.5438710000000  0.5271890000000  0.4853070000000 1.0
C      1  0.4880820000000  0.4994680000000  0.6133770000000 1.0
C      1  0.4974990000000  0.4454010000000  0.4225200000000 1.0
C      1  0.4605840000000  0.5055800000000  0.6053390000000 1.0
C      1  0.4365490000000  0.5320680000000  0.4809020000000 1.0
C      1  0.5754200000000  0.5537460000000  0.4522810000000 1.0
C      1  0.4553910000000  0.4848780000000  0.4583330000000 1.0
C      1  0.4074680000000  0.5286060000000  0.5553540000000 1.0
C      1  0.4039570000000  0.5527200000000  0.5437930000000 1.0
C      1  0.4967190000000  0.4393450000000  0.5318570000000 1.0
C      1  0.4838850000000  0.4816430000000  0.3898830000000 1.0
C      1  0.5066710000000  0.4132430000000  0.5433880000000 1.0
C      1  0.4991410000000  0.5108220000000  0.3845720000000 1.0
C      1  0.3930010000000  0.5314860000000  0.4686090000000 1.0
C      1  0.3949350000000  0.4855190000000  0.5053800000000 1.0
C      1  0.5249940000000  0.5603110000000  0.5173320000000 1.0
C      1  0.4241160000000  0.4397610000000  0.4946700000000 1.0
C      1  0.4187720000000  0.4874890000000  0.5888160000000 1.0
C      1  0.4400670000000  0.4417070000000  0.5576070000000 1.0
C      1  0.3957820000000  0.4998920000000  0.4746230000000 1.0
C      1  0.4820990000000  0.4893710000000  0.4404550000000 1.0
C      1  0.5509060000000  0.4187750000000  0.4693060000000 1.0
C      1  0.4779680000000  0.4572040000000  0.5540390000000 1.0
C      1  0.4042700000000  0.4696570000000  0.5727550000000 1.0
C      1  0.5255190000000  0.4579130000000  0.3858000000000 1.0
C      1  0.5384690000000  0.4769300000000  0.4721860000000 1.0
C      1  0.4997250000000  0.5428850000000  0.5608180000000 1.0
C      1  0.4550530000000  0.4862220000000  0.4005930000000 1.0
C      1  0.4571350000000  0.5991870000000  0.5390100000000 1.0
C      1  0.4970050000000  0.4642060000000  0.4497850000000 1.0
C      1  0.5047930000000  0.5023160000000  0.4231880000000 1.0
C      1  0.4389090000000  0.5925730000000  0.5183600000000 1.0
C      1  0.4886170000000  0.3812730000000  0.5125540000000 1.0
C      1  0.5181990000000  0.4249400000000  0.4798330000000 1.0
C      1  0.5879670000000  0.5468280000000  0.4826000000000 1.0
C      1  0.4175070000000  0.4583040000000  0.5505530000000 1.0
C      1  0.5116190000000  0.3944380000000  0.5223960000000 1.0
C      1  0.5486200000000  0.5045220000000  0.5284560000000 1.0
C      1  0.5440830000000  0.4545470000000  0.4072340000000 1.0
C      1  0.4461340000000  0.3977490000000  0.5240360000000 1.0
C      1  0.4165590000000  0.5748330000000  0.5266240000000 1.0
C      1  0.4675410000000  0.5422100000000  0.4579380000000 1.0
C      1  0.4329090000000  0.5085850000000  0.4352570000000 1.0
C      1  0.4700760000000  0.5638840000000  0.5877870000000 1.0
C      1  0.4304220000000  0.4156080000000  0.4776380000000 1.0
C      1  0.4802300000000  0.4462280000000  0.5998830000000 1.0
C      1  0.5770410000000  0.5185110000000  0.5318980000000 1.0
C      1  0.4958510000000  0.4242900000000  0.5906830000000 1.0
C      1  0.5602060000000  0.4596790000000  0.5163820000000 1.0
C      1  0.5386140000000  0.5067670000000  0.4662680000000 1.0
C      1  0.4461930000000  0.4541880000000  0.4078200000000 1.0
C      1  0.4980360000000  0.4586450000000  0.3971220000000 1.0
C      1  0.5076120000000  0.5202470000000  0.6043840000000 1.0
C      1  0.5044560000000  0.5767570000000  0.4783250000000 1.0
C      1  0.5329620000000  0.5354570000000  0.5875060000000 1.0
C      1  0.5744760000000  0.5553970000000  0.5470330000000 1.0
C      1  0.6011230000000  0.4394540000000  0.5378450000000 1.0
C      1  0.4671310000000  0.5830190000000  0.4422270000000 1.0
C      1  0.4767680000000  0.3912880000000  0.4876880000000 1.0
C      1  0.4609020000000  0.4856610000000  0.5534170000000 1.0
C      1  0.5929600000000  0.5091940000000  0.4512550000000 1.0
C      1  0.5556680000000  0.5746440000000  0.5135640000000 1.0
C      1  0.3916790000000  0.5191910000000  0.5046680000000 1.0
C      1  0.4150250000000  0.4666910000000  0.4852760000000 1.0
C      1  0.4905740000000  0.4894530000000  0.5296570000000 1.0
C      1  0.4459490000000  0.5682940000000  0.4622840000000 1.0
C      1  0.5058510000000  0.4735290000000  0.4815230000000 1.0
C      1  0.4840530000000  0.5347190000000  0.4869280000000 1.0
C      1  0.5260550000000  0.4914270000000  0.4075550000000 1.0
C      1  0.4470730000000  0.4252020000000  0.5350060000000 1.0
C      1  0.5241220000000  0.5192050000000  0.5398930000000 1.0
C      1  0.4734200000000  0.4205970000000  0.4432870000000 1.0
C      1  0.5444960000000  0.5637860000000  0.4129690000000 1.0
END
