TITL C-2778429-3646-907 0.000719177587036347 125000 -194.59512787071 0 0 36 (C1) n - 1
REM
REM in /home/nfs/bkarasulu/CARBON/AIRSS/Generating-Clusters/REBO/Only-C1/SD-CG/HFTN-CG
REM
REM
REM
REM
REM
REM ./C.cell (11c1c37f851c82e70ff6c80c92926a4b)
REM
REM compiler GCC version 9.2.1 20190827 (Red Hat 9.2.1-1)
REM options -cpp -mtune=generic -march=x86-64 -g -O0 -fpre-include=/usr/include/finclude/math-vector-fortran.h
REM seed -1900317413 -839406933 487192606 1153040243 -988871547 -818979234 2048813427 -2007840411 -1258177707 -1445519058 -26388233 -1519845008 1855529387 1496702555 421637189 -550592704 609757900 964342033 -244328073 1327637322 547307668 1450739779 2105054010 -1267816566 1734482461 1712493568 -1427836426 1392770439 633532046 638824800 564538124 1986095532 822089688
REM
CELL 1.54180   50.00000   50.00000   50.00000   90.00000   90.00000   90.00000
LATT -1
SFAC C  
C      1  0.5390380000000  0.4630410000000  0.4734060000000 1.0
C      1  0.5053630000000  0.4609310000000  0.5507270000000 1.0
C      1  0.5161650000000  0.4353050000000  0.4410410000000 1.0
C      1  0.5101510000000  0.4527610000000  0.4662860000000 1.0
C      1  0.5086750000000  0.5513800000000  0.5247180000000 1.0
C      1  0.5223200000000  0.5252140000000  0.4767100000000 1.0
C      1  0.5033390000000  0.5072310000000  0.5591310000000 1.0
C      1  0.4810810000000  0.4825070000000  0.5365890000000 1.0
C      1  0.5457460000000  0.4798200000000  0.4935240000000 1.0
C      1  0.5379800000000  0.5541400000000  0.5104770000000 1.0
C      1  0.4695560000000  0.5520630000000  0.4889870000000 1.0
C      1  0.5290620000000  0.4917550000000  0.5193690000000 1.0
C      1  0.5189360000000  0.4872320000000  0.5482710000000 1.0
C      1  0.5094390000000  0.5611890000000  0.5508510000000 1.0
C      1  0.5448200000000  0.4465260000000  0.4476680000000 1.0
C      1  0.5466870000000  0.5329060000000  0.4932210000000 1.0
C      1  0.4607270000000  0.4584220000000  0.5257310000000 1.0
C      1  0.4417460000000  0.5358490000000  0.4521610000000 1.0
C      1  0.4885650000000  0.4432960000000  0.5340660000000 1.0
C      1  0.5548060000000  0.5081370000000  0.5055560000000 1.0
C      1  0.4644330000000  0.5304040000000  0.5334850000000 1.0
C      1  0.4873060000000  0.4589750000000  0.4816120000000 1.0
C      1  0.4777230000000  0.4422040000000  0.5028340000000 1.0
C      1  0.5143920000000  0.5106520000000  0.4306340000000 1.0
C      1  0.4673160000000  0.5784190000000  0.4820460000000 1.0
C      1  0.4504950000000  0.4867370000000  0.4963300000000 1.0
C      1  0.5064710000000  0.5149050000000  0.4561850000000 1.0
C      1  0.4782430000000  0.5454420000000  0.5154830000000 1.0
C      1  0.4962500000000  0.4954760000000  0.5119860000000 1.0
C      1  0.4710850000000  0.5076650000000  0.5535400000000 1.0
C      1  0.4801890000000  0.5091440000000  0.4660190000000 1.0
C      1  0.5097590000000  0.5236310000000  0.5051240000000 1.0
C      1  0.4536250000000  0.5040800000000  0.5748590000000 1.0
C      1  0.5679910000000  0.4428380000000  0.4344480000000 1.0
C      1  0.4778850000000  0.4878090000000  0.4876920000000 1.0
C      1  0.4626320000000  0.5319140000000  0.4692340000000 1.0
END
