TITL C-2778423-5760-554 -0.00095941479942536 125000 -69.1631384080219 0 0 13 (C2v) n - 1
REM
REM in /home/nfs/bkarasulu/CARBON/AIRSS/Generating-Clusters/REBO/Only-C1/SD-CG/HFTN-CG
REM
REM
REM
REM
REM
REM ./C.cell (11c1c37f851c82e70ff6c80c92926a4b)
REM
REM compiler GCC version 9.2.1 20190827 (Red Hat 9.2.1-1)
REM options -cpp -mtune=generic -march=x86-64 -g -O0 -fpre-include=/usr/include/finclude/math-vector-fortran.h
REM seed 2078760419 -756091655 225299030 63663441 432252809 1883503678 1922740088 -174074142 -1965043140 -31389967 -851820552 -43377208 -807533557 -1678487549 -1356826345 -707671225 179845898 -759374516 -757789647 924314943 1298123734 -67288899 -80801897 2103028135 1047635584 -288482483 -1263243216 2124750962 1143207066 -1091545919 -1614045794 1432800812 -494263196
REM
CELL 1.54180   50.00000   50.00000   50.00000   90.00000   90.00000   90.00000
LATT -1
SFAC C  
C      1  0.5085220000000  0.5446720000000  0.4849810000000 1.0
C      1  0.5124240000000  0.5102440000000  0.5254580000000 1.0
C      1  0.4930520000000  0.4355270000000  0.5364510000000 1.0
C      1  0.4999490000000  0.4841910000000  0.5135000000000 1.0
C      1  0.5233990000000  0.5192920000000  0.5479450000000 1.0
C      1  0.4704840000000  0.4756650000000  0.4395210000000 1.0
C      1  0.5050100000000  0.5198980000000  0.4966610000000 1.0
C      1  0.4812930000000  0.4845770000000  0.4616700000000 1.0
C      1  0.4964380000000  0.4594180000000  0.5251830000000 1.0
C      1  0.5152430000000  0.5920760000000  0.4626300000000 1.0
C      1  0.4925550000000  0.4938610000000  0.4847440000000 1.0
C      1  0.5119100000000  0.5685640000000  0.4737160000000 1.0
C      1  0.4897200000000  0.4120160000000  0.5475390000000 1.0
END
