TITL C-2778436-5916-623 -0.002767505559195 125000 -1069.70181962195 0 0 180 (C1) n - 1
REM
REM in /home/nfs/bkarasulu/CARBON/AIRSS/Generating-Clusters/REBO/Only-C1/SD-CG/HFTN-CG
REM
REM
REM
REM
REM
REM ./C.cell (11c1c37f851c82e70ff6c80c92926a4b)
REM
REM compiler GCC version 9.2.1 20190827 (Red Hat 9.2.1-1)
REM options -cpp -mtune=generic -march=x86-64 -g -O0 -fpre-include=/usr/include/finclude/math-vector-fortran.h
REM seed 1272245072 -880444772 -1255151280 143330871 750348163 819936543 -1769010821 276560829 2095519968 -1374266888 1074626217 664990413 1248158251 -1157743256 -1026099300 1535497231 1912763417 296682312 381057820 -682215933 -966106916 1688203428 1914328864 157865643 210634928 -1157193343 -800610638 -1577128891 -1023976928 799882515 -1386277496 2120205522 -684588035
REM
CELL 1.54180   50.00000   50.00000   50.00000   90.00000   90.00000   90.00000
LATT -1
SFAC C  
C      1  0.4223370000000  0.5651430000000  0.4646740000000 1.0
C      1  0.5918290000000  0.3924130000000  0.4804150000000 1.0
C      1  0.4168590000000  0.5749680000000  0.5292600000000 1.0
C      1  0.4569420000000  0.4488140000000  0.5203660000000 1.0
C      1  0.5661850000000  0.4106430000000  0.5395450000000 1.0
C      1  0.5491590000000  0.5090080000000  0.5086930000000 1.0
C      1  0.4825950000000  0.5981600000000  0.4490130000000 1.0
C      1  0.5890630000000  0.4797030000000  0.4303070000000 1.0
C      1  0.4425810000000  0.5862920000000  0.5460670000000 1.0
C      1  0.5051520000000  0.4809090000000  0.5113430000000 1.0
C      1  0.5247470000000  0.5630170000000  0.4145400000000 1.0
C      1  0.4632140000000  0.5090940000000  0.4468410000000 1.0
C      1  0.5129280000000  0.4992740000000  0.5716200000000 1.0
C      1  0.4946260000000  0.6075280000000  0.4857370000000 1.0
C      1  0.4464040000000  0.4571090000000  0.4370200000000 1.0
C      1  0.4614350000000  0.4307490000000  0.4262070000000 1.0
C      1  0.4633800000000  0.4745410000000  0.5375040000000 1.0
C      1  0.5492610000000  0.3919450000000  0.4848730000000 1.0
C      1  0.5064780000000  0.5608970000000  0.5853780000000 1.0
C      1  0.5200260000000  0.6083740000000  0.4773300000000 1.0
C      1  0.5373240000000  0.5186470000000  0.6019090000000 1.0
C      1  0.4485810000000  0.4836830000000  0.4201010000000 1.0
C      1  0.5368720000000  0.4225530000000  0.4444110000000 1.0
C      1  0.5429640000000  0.3929880000000  0.5118690000000 1.0
C      1  0.4810960000000  0.4884760000000  0.4264100000000 1.0
C      1  0.5505440000000  0.5139530000000  0.4072940000000 1.0
C      1  0.5294910000000  0.5487220000000  0.5735430000000 1.0
C      1  0.4587830000000  0.6049270000000  0.5281600000000 1.0
C      1  0.4546520000000  0.5625520000000  0.4752330000000 1.0
C      1  0.4960650000000  0.4669340000000  0.4047480000000 1.0
C      1  0.4913330000000  0.5257240000000  0.5744810000000 1.0
C      1  0.5735700000000  0.5658470000000  0.5189350000000 1.0
C      1  0.5294670000000  0.4669630000000  0.4054970000000 1.0
C      1  0.4906330000000  0.5154330000000  0.5427560000000 1.0
C      1  0.5969280000000  0.5272170000000  0.4060560000000 1.0
C      1  0.4242270000000  0.5742790000000  0.4981440000000 1.0
C      1  0.5089040000000  0.4690420000000  0.5594250000000 1.0
C      1  0.5263550000000  0.4168360000000  0.5199780000000 1.0
C      1  0.6226410000000  0.5351890000000  0.4035430000000 1.0
C      1  0.4290930000000  0.4636070000000  0.5721310000000 1.0
C      1  0.5015420000000  0.4000010000000  0.5790020000000 1.0
C      1  0.3968120000000  0.5478200000000  0.4710750000000 1.0
C      1  0.4852630000000  0.3862510000000  0.4816690000000 1.0
C      1  0.5795030000000  0.4990240000000  0.4066800000000 1.0
C      1  0.4862800000000  0.4727770000000  0.3761120000000 1.0
C      1  0.4731030000000  0.4752940000000  0.5973820000000 1.0
C      1  0.5705370000000  0.5430030000000  0.5738670000000 1.0
C      1  0.5342240000000  0.4840970000000  0.4964870000000 1.0
C      1  0.4217510000000  0.5175820000000  0.5724240000000 1.0
C      1  0.4921140000000  0.5588070000000  0.4887180000000 1.0
C      1  0.4870580000000  0.6180210000000  0.5393580000000 1.0
C      1  0.4988480000000  0.3863180000000  0.4580190000000 1.0
C      1  0.5076390000000  0.5368810000000  0.4112120000000 1.0
C      1  0.4791020000000  0.4676890000000  0.4841840000000 1.0
C      1  0.5568240000000  0.4733180000000  0.4079500000000 1.0
C      1  0.5486090000000  0.4230760000000  0.5659380000000 1.0
C      1  0.4273080000000  0.4382510000000  0.4797080000000 1.0
C      1  0.6111990000000  0.4648420000000  0.5047040000000 1.0
C      1  0.4527820000000  0.4107140000000  0.4449360000000 1.0
C      1  0.4905130000000  0.5732800000000  0.5621870000000 1.0
C      1  0.4139050000000  0.4383090000000  0.5108740000000 1.0
C      1  0.4208860000000  0.4551990000000  0.4542200000000 1.0
C      1  0.5251240000000  0.5145560000000  0.4210080000000 1.0
C      1  0.4761310000000  0.5498700000000  0.5902530000000 1.0
C      1  0.4040460000000  0.4623230000000  0.5192250000000 1.0
C      1  0.5625380000000  0.5486720000000  0.5428630000000 1.0
C      1  0.5376880000000  0.4349200000000  0.5895020000000 1.0
C      1  0.5286440000000  0.5197770000000  0.4517570000000 1.0
C      1  0.4348900000000  0.5421490000000  0.4944990000000 1.0
C      1  0.5591000000000  0.4599470000000  0.5545250000000 1.0
C      1  0.6031520000000  0.4955890000000  0.5961040000000 1.0
C      1  0.5000970000000  0.4381730000000  0.4544630000000 1.0
C      1  0.5770150000000  0.4809100000000  0.4584790000000 1.0
C      1  0.6046720000000  0.4923470000000  0.5003570000000 1.0
C      1  0.5191100000000  0.4377850000000  0.4194630000000 1.0
C      1  0.5100410000000  0.4475770000000  0.5857810000000 1.0
C      1  0.5680020000000  0.5183500000000  0.4886950000000 1.0
C      1  0.5459310000000  0.5221140000000  0.5335690000000 1.0
C      1  0.4594000000000  0.4706070000000  0.5690680000000 1.0
C      1  0.4980180000000  0.4946830000000  0.4833390000000 1.0
C      1  0.4144330000000  0.4862910000000  0.5758860000000 1.0
C      1  0.4660180000000  0.5929880000000  0.4757750000000 1.0
C      1  0.5117650000000  0.4879470000000  0.4348470000000 1.0
C      1  0.4866670000000  0.4362540000000  0.4145140000000 1.0
C      1  0.4058780000000  0.4812980000000  0.4563570000000 1.0
C      1  0.4411120000000  0.4629990000000  0.4956510000000 1.0
C      1  0.4720880000000  0.4545540000000  0.4562410000000 1.0
C      1  0.4592680000000  0.5736170000000  0.5723240000000 1.0
C      1  0.4781770000000  0.4776150000000  0.3524010000000 1.0
C      1  0.4977800000000  0.5623410000000  0.5382170000000 1.0
C      1  0.4238840000000  0.4890250000000  0.4909510000000 1.0
C      1  0.4708060000000  0.4123720000000  0.4909880000000 1.0
C      1  0.4906770000000  0.4364710000000  0.4864660000000 1.0
C      1  0.4456930000000  0.5971430000000  0.4987170000000 1.0
C      1  0.3954340000000  0.5091130000000  0.5281930000000 1.0
C      1  0.5133320000000  0.3946500000000  0.5534260000000 1.0
C      1  0.5801640000000  0.4969090000000  0.5794940000000 1.0
C      1  0.5632210000000  0.4712500000000  0.5803480000000 1.0
C      1  0.4711960000000  0.5278370000000  0.5024840000000 1.0
C      1  0.4272530000000  0.5076250000000  0.4126860000000 1.0
C      1  0.5206880000000  0.5414580000000  0.4961880000000 1.0
C      1  0.5365990000000  0.5932420000000  0.5495320000000 1.0
C      1  0.5686340000000  0.4549190000000  0.4300750000000 1.0
C      1  0.5360730000000  0.5995380000000  0.5172600000000 1.0
C      1  0.4024760000000  0.5554130000000  0.5411600000000 1.0
C      1  0.5550610000000  0.4541900000000  0.6009390000000 1.0
C      1  0.4919310000000  0.4852430000000  0.5365000000000 1.0
C      1  0.5807910000000  0.4687360000000  0.5392460000000 1.0
C      1  0.4782390000000  0.5443780000000  0.4628900000000 1.0
C      1  0.5929910000000  0.4507860000000  0.5213880000000 1.0
C      1  0.4016020000000  0.5209260000000  0.4543410000000 1.0
C      1  0.4130660000000  0.4869360000000  0.5291940000000 1.0
C      1  0.4473150000000  0.4164030000000  0.4713760000000 1.0
C      1  0.3829610000000  0.5420450000000  0.4940860000000 1.0
C      1  0.5857690000000  0.4974170000000  0.4793620000000 1.0
C      1  0.4451970000000  0.5280780000000  0.5218770000000 1.0
C      1  0.5505670000000  0.4600470000000  0.4579750000000 1.0
C      1  0.4564410000000  0.4083030000000  0.5184280000000 1.0
C      1  0.4934200000000  0.5203360000000  0.4704170000000 1.0
C      1  0.4824870000000  0.5894410000000  0.5119160000000 1.0
C      1  0.4632780000000  0.5393900000000  0.4353030000000 1.0
C      1  0.4417280000000  0.5451120000000  0.5705970000000 1.0
C      1  0.5510360000000  0.4229570000000  0.4725510000000 1.0
C      1  0.5020760000000  0.5853560000000  0.4062570000000 1.0
C      1  0.4229930000000  0.5170750000000  0.4792440000000 1.0
C      1  0.5444070000000  0.5690350000000  0.5592540000000 1.0
C      1  0.5131600000000  0.6125230000000  0.5391130000000 1.0
C      1  0.4997810000000  0.4100570000000  0.5311620000000 1.0
C      1  0.5272340000000  0.5686780000000  0.4481770000000 1.0
C      1  0.5891590000000  0.4958820000000  0.5467100000000 1.0
C      1  0.4332120000000  0.4928410000000  0.4492220000000 1.0
C      1  0.4891240000000  0.4256990000000  0.5834630000000 1.0
C      1  0.5728690000000  0.5713660000000  0.4779270000000 1.0
C      1  0.5985290000000  0.5106010000000  0.5234130000000 1.0
C      1  0.5563550000000  0.5605960000000  0.4223740000000 1.0
C      1  0.3839340000000  0.5139340000000  0.5017420000000 1.0
C      1  0.5805210000000  0.5456630000000  0.4854570000000 1.0
C      1  0.5418110000000  0.5605740000000  0.5108980000000 1.0
C      1  0.5913090000000  0.5370600000000  0.5152530000000 1.0
C      1  0.4531080000000  0.5196790000000  0.5867170000000 1.0
C      1  0.5390320000000  0.4396280000000  0.5391610000000 1.0
C      1  0.4552810000000  0.5118040000000  0.4783080000000 1.0
C      1  0.5582010000000  0.5790960000000  0.4504150000000 1.0
C      1  0.5808160000000  0.4247780000000  0.5177920000000 1.0
C      1  0.5135160000000  0.4506190000000  0.5031170000000 1.0
C      1  0.5691560000000  0.5373150000000  0.4118160000000 1.0
C      1  0.3880760000000  0.4981910000000  0.4759010000000 1.0
C      1  0.5706240000000  0.3736490000000  0.4751570000000 1.0
C      1  0.4980630000000  0.5349970000000  0.5200740000000 1.0
C      1  0.5419450000000  0.4518280000000  0.4880840000000 1.0
C      1  0.5409390000000  0.3886660000000  0.5441720000000 1.0
C      1  0.4338050000000  0.4268730000000  0.5319770000000 1.0
C      1  0.4681240000000  0.4317600000000  0.5652730000000 1.0
C      1  0.4422960000000  0.4962830000000  0.5269080000000 1.0
C      1  0.4021710000000  0.5283410000000  0.5483960000000 1.0
C      1  0.5621420000000  0.5205710000000  0.5870850000000 1.0
C      1  0.4342020000000  0.5493510000000  0.4369670000000 1.0
C      1  0.5111060000000  0.5093720000000  0.6099220000000 1.0
C      1  0.5629770000000  0.5929600000000  0.5020290000000 1.0
C      1  0.4781350000000  0.5709060000000  0.3986400000000 1.0
C      1  0.4396040000000  0.4367010000000  0.5618490000000 1.0
C      1  0.4803330000000  0.4341370000000  0.5371030000000 1.0
C      1  0.5045220000000  0.5894930000000  0.4361840000000 1.0
C      1  0.5307540000000  0.5226160000000  0.5600010000000 1.0
C      1  0.5083850000000  0.4089510000000  0.4449240000000 1.0
C      1  0.5453680000000  0.5993230000000  0.4743350000000 1.0
C      1  0.5799420000000  0.4169950000000  0.4896040000000 1.0
C      1  0.5244860000000  0.4928290000000  0.4662450000000 1.0
C      1  0.4775770000000  0.5055080000000  0.6057380000000 1.0
C      1  0.5259680000000  0.5429150000000  0.4647800000000 1.0
C      1  0.4623060000000  0.4890860000000  0.5002710000000 1.0
C      1  0.5082850000000  0.4489060000000  0.5350200000000 1.0
C      1  0.4484420000000  0.5531800000000  0.5400890000000 1.0
C      1  0.4795540000000  0.5444190000000  0.4103090000000 1.0
C      1  0.4707560000000  0.5006570000000  0.5666770000000 1.0
C      1  0.5226180000000  0.4597710000000  0.4441570000000 1.0
C      1  0.4168610000000  0.5269910000000  0.4291680000000 1.0
C      1  0.4676510000000  0.5598340000000  0.5127700000000 1.0
C      1  0.5137300000000  0.5791800000000  0.5059280000000 1.0
C      1  0.5053520000000  0.4782520000000  0.5976960000000 1.0
END
