TITL C-2778423-5760-1176 0.00225573359650063 125000 -921.540907451966 0 0 159 (C1) n - 1
REM
REM in /home/nfs/bkarasulu/CARBON/AIRSS/Generating-Clusters/REBO/Only-C1/SD-CG/HFTN-CG
REM
REM
REM
REM
REM
REM ./C.cell (11c1c37f851c82e70ff6c80c92926a4b)
REM
REM compiler GCC version 9.2.1 20190827 (Red Hat 9.2.1-1)
REM options -cpp -mtune=generic -march=x86-64 -g -O0 -fpre-include=/usr/include/finclude/math-vector-fortran.h
REM seed 1663544679 1698422170 713104938 2147290956 -1849146621 559110117 1610490361 759480609 -1685084783 -966141684 2082821857 1098416758 1358584349 -873161660 -1615684898 -84658385 -1765129905 -14909447 -784507014 -970769185 1561512124 -1713830240 -1751595275 -817242269 1788675846 529580661 -154837935 452837908 -1451237357 1251068558 196074201 -2028294317 1581250800
REM
CELL 1.54180   50.00000   50.00000   50.00000   90.00000   90.00000   90.00000
LATT -1
SFAC C  
C      1  0.4983360000000  0.4540230000000  0.5598840000000 1.0
C      1  0.4801130000000  0.5070820000000  0.5708280000000 1.0
C      1  0.5872210000000  0.4473480000000  0.5263040000000 1.0
C      1  0.4671570000000  0.4488580000000  0.5198240000000 1.0
C      1  0.4168560000000  0.4698100000000  0.4393540000000 1.0
C      1  0.4749070000000  0.4476590000000  0.4264660000000 1.0
C      1  0.4851720000000  0.4704740000000  0.3942610000000 1.0
C      1  0.5436890000000  0.5013100000000  0.5987320000000 1.0
C      1  0.4872980000000  0.4049750000000  0.5482780000000 1.0
C      1  0.4273990000000  0.4757060000000  0.4878210000000 1.0
C      1  0.4912530000000  0.5669940000000  0.5075720000000 1.0
C      1  0.5580680000000  0.5270280000000  0.4474740000000 1.0
C      1  0.5466420000000  0.5003830000000  0.5010320000000 1.0
C      1  0.5248460000000  0.5462390000000  0.4235550000000 1.0
C      1  0.5062110000000  0.5304200000000  0.5109920000000 1.0
C      1  0.4761310000000  0.4320850000000  0.5630390000000 1.0
C      1  0.4426690000000  0.4557480000000  0.4348090000000 1.0
C      1  0.4615620000000  0.4744870000000  0.5375620000000 1.0
C      1  0.4687840000000  0.4733930000000  0.4479120000000 1.0
C      1  0.4360130000000  0.4184810000000  0.4891630000000 1.0
C      1  0.4952880000000  0.4668000000000  0.5898380000000 1.0
C      1  0.5417190000000  0.4129900000000  0.4675610000000 1.0
C      1  0.5308620000000  0.4619540000000  0.4424780000000 1.0
C      1  0.5843280000000  0.4329550000000  0.4959410000000 1.0
C      1  0.4718840000000  0.3982990000000  0.5008860000000 1.0
C      1  0.4728010000000  0.5412610000000  0.4098230000000 1.0
C      1  0.5557210000000  0.4483350000000  0.5382980000000 1.0
C      1  0.5725320000000  0.5816180000000  0.4943240000000 1.0
C      1  0.4901340000000  0.5141970000000  0.4392130000000 1.0
C      1  0.4214640000000  0.5026200000000  0.4333120000000 1.0
C      1  0.4507610000000  0.4561470000000  0.5748400000000 1.0
C      1  0.5879470000000  0.4697580000000  0.4595040000000 1.0
C      1  0.5140080000000  0.4327340000000  0.5090350000000 1.0
C      1  0.4111170000000  0.4592380000000  0.5323550000000 1.0
C      1  0.4041380000000  0.4917430000000  0.5403940000000 1.0
C      1  0.4968220000000  0.5360280000000  0.5657660000000 1.0
C      1  0.6003030000000  0.4941620000000  0.4398800000000 1.0
C      1  0.4382850000000  0.5311590000000  0.5228760000000 1.0
C      1  0.4608460000000  0.5954140000000  0.4667790000000 1.0
C      1  0.5261600000000  0.4744960000000  0.5898060000000 1.0
C      1  0.4806320000000  0.6054250000000  0.4781480000000 1.0
C      1  0.4736010000000  0.5413490000000  0.4634470000000 1.0
C      1  0.6053760000000  0.4701030000000  0.5409910000000 1.0
C      1  0.5777120000000  0.5084010000000  0.4596300000000 1.0
C      1  0.5394950000000  0.5483520000000  0.5355010000000 1.0
C      1  0.4659680000000  0.5362520000000  0.5055140000000 1.0
C      1  0.5067400000000  0.5915510000000  0.5221630000000 1.0
C      1  0.6039740000000  0.4953320000000  0.5418080000000 1.0
C      1  0.4909430000000  0.4721400000000  0.5106250000000 1.0
C      1  0.5466930000000  0.5527780000000  0.5036830000000 1.0
C      1  0.5336000000000  0.4089350000000  0.4985230000000 1.0
C      1  0.5094490000000  0.5983050000000  0.4889080000000 1.0
C      1  0.5075830000000  0.4576650000000  0.4858360000000 1.0
C      1  0.5189860000000  0.5220850000000  0.4051410000000 1.0
C      1  0.4991710000000  0.4685860000000  0.4544410000000 1.0
C      1  0.5046770000000  0.5700420000000  0.4358810000000 1.0
C      1  0.5197720000000  0.5357030000000  0.4547190000000 1.0
C      1  0.4041920000000  0.5457040000000  0.5374570000000 1.0
C      1  0.5106040000000  0.4008930000000  0.5327280000000 1.0
C      1  0.5403680000000  0.5651670000000  0.5656200000000 1.0
C      1  0.5652420000000  0.5763880000000  0.5473280000000 1.0
C      1  0.4791250000000  0.5256600000000  0.6000270000000 1.0
C      1  0.5991350000000  0.5070840000000  0.4968580000000 1.0
C      1  0.5157300000000  0.5763690000000  0.4668220000000 1.0
C      1  0.4844100000000  0.5814530000000  0.5700550000000 1.0
C      1  0.5528410000000  0.4348880000000  0.4997430000000 1.0
C      1  0.4995940000000  0.5507440000000  0.5359050000000 1.0
C      1  0.5367120000000  0.5817580000000  0.5295510000000 1.0
C      1  0.5381070000000  0.5706820000000  0.4431700000000 1.0
C      1  0.4782540000000  0.5887940000000  0.5406560000000 1.0
C      1  0.4885820000000  0.4034280000000  0.4715550000000 1.0
C      1  0.5400170000000  0.5856250000000  0.4971630000000 1.0
C      1  0.5369680000000  0.5198370000000  0.5426860000000 1.0
C      1  0.5242760000000  0.4826890000000  0.5499180000000 1.0
C      1  0.4586820000000  0.4740940000000  0.4873400000000 1.0
C      1  0.5371220000000  0.4190150000000  0.5385330000000 1.0
C      1  0.4602540000000  0.4973790000000  0.6038940000000 1.0
C      1  0.5881530000000  0.5245150000000  0.5342070000000 1.0
C      1  0.4351900000000  0.4787300000000  0.5192920000000 1.0
C      1  0.5710680000000  0.4232940000000  0.4661490000000 1.0
C      1  0.4358510000000  0.5652560000000  0.4879640000000 1.0
C      1  0.4548570000000  0.4669930000000  0.4061490000000 1.0
C      1  0.5235430000000  0.4802600000000  0.5167630000000 1.0
C      1  0.4513320000000  0.5722830000000  0.4517900000000 1.0
C      1  0.4774450000000  0.5587000000000  0.4348150000000 1.0
C      1  0.5043760000000  0.4370250000000  0.4287290000000 1.0
C      1  0.5587700000000  0.4621100000000  0.4307780000000 1.0
C      1  0.4599740000000  0.4220680000000  0.4713060000000 1.0
C      1  0.6096360000000  0.5147810000000  0.4655570000000 1.0
C      1  0.4485610000000  0.5281530000000  0.4187150000000 1.0
C      1  0.5901650000000  0.4829130000000  0.5064300000000 1.0
C      1  0.5884510000000  0.5362850000000  0.4862210000000 1.0
C      1  0.4283830000000  0.5331790000000  0.4927090000000 1.0
C      1  0.4532140000000  0.5132140000000  0.4838410000000 1.0
C      1  0.4272580000000  0.4737630000000  0.5588060000000 1.0
C      1  0.4740320000000  0.5540830000000  0.5818200000000 1.0
C      1  0.4519070000000  0.5835100000000  0.5321000000000 1.0
C      1  0.4915680000000  0.5148050000000  0.4734060000000 1.0
C      1  0.5649460000000  0.5036570000000  0.5434190000000 1.0
C      1  0.4893280000000  0.5228090000000  0.3966320000000 1.0
C      1  0.4043990000000  0.5722240000000  0.5249510000000 1.0
C      1  0.5845630000000  0.5789790000000  0.5197860000000 1.0
C      1  0.5342740000000  0.4814150000000  0.4681390000000 1.0
C      1  0.5072900000000  0.4650750000000  0.4108170000000 1.0
C      1  0.5550230000000  0.5169210000000  0.5720170000000 1.0
C      1  0.4678350000000  0.4720640000000  0.5941200000000 1.0
C      1  0.4725880000000  0.4975930000000  0.5070980000000 1.0
C      1  0.3996220000000  0.5201940000000  0.4904450000000 1.0
C      1  0.5177000000000  0.4469670000000  0.5380550000000 1.0
C      1  0.4160540000000  0.4898430000000  0.4651910000000 1.0
C      1  0.4286440000000  0.5809310000000  0.5125870000000 1.0
C      1  0.4347150000000  0.5059700000000  0.5365580000000 1.0
C      1  0.4804180000000  0.4798100000000  0.5551440000000 1.0
C      1  0.5791090000000  0.5617580000000  0.4751830000000 1.0
C      1  0.5069130000000  0.5096010000000  0.5378840000000 1.0
C      1  0.5763740000000  0.4438100000000  0.4461640000000 1.0
C      1  0.5415240000000  0.4591240000000  0.5675370000000 1.0
C      1  0.5477820000000  0.5125440000000  0.4218080000000 1.0
C      1  0.4746890000000  0.4987830000000  0.3929740000000 1.0
C      1  0.4440650000000  0.4986970000000  0.4081730000000 1.0
C      1  0.5204730000000  0.5021070000000  0.4490360000000 1.0
C      1  0.4472840000000  0.4998020000000  0.5649220000000 1.0
C      1  0.5684020000000  0.4787020000000  0.5286000000000 1.0
C      1  0.5105460000000  0.5724640000000  0.5574730000000 1.0
C      1  0.4691260000000  0.4495910000000  0.4799360000000 1.0
C      1  0.4428830000000  0.4292800000000  0.5584890000000 1.0
C      1  0.4362870000000  0.5561260000000  0.5429120000000 1.0
C      1  0.5217290000000  0.4910740000000  0.4172270000000 1.0
C      1  0.4450860000000  0.4001460000000  0.5156960000000 1.0
C      1  0.4749680000000  0.5194600000000  0.5333330000000 1.0
C      1  0.3702680000000  0.5162690000000  0.5027670000000 1.0
C      1  0.4404690000000  0.4324350000000  0.5259530000000 1.0
C      1  0.5700620000000  0.4883860000000  0.4252340000000 1.0
C      1  0.5275170000000  0.5366950000000  0.5774340000000 1.0
C      1  0.5900280000000  0.5541400000000  0.5402690000000 1.0
C      1  0.4674160000000  0.5614970000000  0.4869160000000 1.0
C      1  0.4478350000000  0.5242510000000  0.5866870000000 1.0
C      1  0.4845520000000  0.4292150000000  0.5018510000000 1.0
C      1  0.5072800000000  0.5502160000000  0.4830550000000 1.0
C      1  0.5404230000000  0.4615940000000  0.4953150000000 1.0
C      1  0.4107950000000  0.5229640000000  0.4585050000000 1.0
C      1  0.5047010000000  0.3947540000000  0.5008080000000 1.0
C      1  0.5409530000000  0.4288730000000  0.5697280000000 1.0
C      1  0.5944500000000  0.4619310000000  0.4890010000000 1.0
C      1  0.5178620000000  0.5038700000000  0.5759190000000 1.0
C      1  0.4232480000000  0.5541660000000  0.4591400000000 1.0
C      1  0.5105950000000  0.4129860000000  0.4520680000000 1.0
C      1  0.4580070000000  0.5373110000000  0.5569080000000 1.0
C      1  0.4568390000000  0.4020550000000  0.5456720000000 1.0
C      1  0.4203790000000  0.4457540000000  0.5024240000000 1.0
C      1  0.5432000000000  0.5337080000000  0.4776680000000 1.0
C      1  0.5631120000000  0.5577930000000  0.4527730000000 1.0
C      1  0.5186070000000  0.5124210000000  0.4876340000000 1.0
C      1  0.4464320000000  0.5361700000000  0.4462380000000 1.0
C      1  0.4641450000000  0.5019120000000  0.4566900000000 1.0
C      1  0.5641320000000  0.4873170000000  0.4765670000000 1.0
C      1  0.5246600000000  0.4394580000000  0.4630340000000 1.0
C      1  0.3961380000000  0.5187640000000  0.5247830000000 1.0
C      1  0.5654880000000  0.5245830000000  0.5093710000000 1.0
END
