TITL C-2778437-8639-301 0.101722168397549 125000 -700.714226527663 0 0 120 (C1) n - 1
REM
REM in /home/nfs/bkarasulu/CARBON/AIRSS/Generating-Clusters/REBO/Only-C1/SD-CG/HFTN-CG
REM
REM
REM
REM
REM
REM ./C.cell (11c1c37f851c82e70ff6c80c92926a4b)
REM
REM compiler GCC version 9.2.1 20190827 (Red Hat 9.2.1-1)
REM options -cpp -mtune=generic -march=x86-64 -g -O0 -fpre-include=/usr/include/finclude/math-vector-fortran.h
REM seed 468593293 -505303562 -241968150 -385489083 630827528 -620507783 -1917522684 -1088627613 1731406178 2140992811 978919660 1081963496 -1269288048 -602140807 1996101536 -1146200792 -1910767980 714451834 1465875111 -299519717 542417675 82470884 1382610910 697896297 -980188017 1609635414 -473356430 -273532158 -471816907 -1015576933 -1764371109 -730302857 98054255
REM
CELL 1.54180   50.00000   50.00000   50.00000   90.00000   90.00000   90.00000
LATT -1
SFAC C  
C      1  0.4472110000000  0.4708810000000  0.5317060000000 1.0
C      1  0.5925580000000  0.4662010000000  0.5161680000000 1.0
C      1  0.5555410000000  0.4877320000000  0.5168510000000 1.0
C      1  0.4722280000000  0.5023450000000  0.4355270000000 1.0
C      1  0.5565770000000  0.5654070000000  0.4635820000000 1.0
C      1  0.4461650000000  0.5344390000000  0.5657710000000 1.0
C      1  0.5411220000000  0.4062720000000  0.4849220000000 1.0
C      1  0.4919960000000  0.4887320000000  0.5041830000000 1.0
C      1  0.5374370000000  0.4631070000000  0.5532580000000 1.0
C      1  0.4997470000000  0.4471660000000  0.5223550000000 1.0
C      1  0.6045400000000  0.4427490000000  0.4587150000000 1.0
C      1  0.5478590000000  0.5137550000000  0.4783940000000 1.0
C      1  0.4143310000000  0.4641740000000  0.5317420000000 1.0
C      1  0.5045330000000  0.5154840000000  0.5555570000000 1.0
C      1  0.4348400000000  0.5511060000000  0.5159920000000 1.0
C      1  0.5096470000000  0.5284810000000  0.4528750000000 1.0
C      1  0.4501590000000  0.4771680000000  0.4798780000000 1.0
C      1  0.4752200000000  0.5862350000000  0.5151820000000 1.0
C      1  0.4526430000000  0.4717320000000  0.5712730000000 1.0
C      1  0.5079410000000  0.5900490000000  0.5138920000000 1.0
C      1  0.4181410000000  0.4962080000000  0.5422270000000 1.0
C      1  0.4963880000000  0.4257800000000  0.5684390000000 1.0
C      1  0.4446760000000  0.5881170000000  0.4847950000000 1.0
C      1  0.5176270000000  0.5158900000000  0.4899320000000 1.0
C      1  0.4874680000000  0.5356920000000  0.4171650000000 1.0
C      1  0.5076040000000  0.4740820000000  0.4789640000000 1.0
C      1  0.5061150000000  0.5790570000000  0.4322480000000 1.0
C      1  0.4918010000000  0.4009670000000  0.5199960000000 1.0
C      1  0.4581550000000  0.4591540000000  0.4430200000000 1.0
C      1  0.5512870000000  0.5200770000000  0.5109120000000 1.0
C      1  0.4968880000000  0.4509280000000  0.5817980000000 1.0
C      1  0.5292580000000  0.5422280000000  0.5710160000000 1.0
C      1  0.4928660000000  0.5126240000000  0.4032240000000 1.0
C      1  0.4580880000000  0.5800220000000  0.4613000000000 1.0
C      1  0.5848830000000  0.4399880000000  0.5070260000000 1.0
C      1  0.5686100000000  0.4685000000000  0.4843870000000 1.0
C      1  0.4487110000000  0.5575530000000  0.4471380000000 1.0
C      1  0.4025470000000  0.4877820000000  0.5126530000000 1.0
C      1  0.4762530000000  0.4713280000000  0.5864530000000 1.0
C      1  0.4662770000000  0.5819420000000  0.5475210000000 1.0
C      1  0.4762170000000  0.4042380000000  0.4978910000000 1.0
C      1  0.4742790000000  0.5157980000000  0.5016930000000 1.0
C      1  0.4899940000000  0.4929730000000  0.5508260000000 1.0
C      1  0.4880710000000  0.5837100000000  0.4607070000000 1.0
C      1  0.5163620000000  0.4686810000000  0.5295360000000 1.0
C      1  0.4133790000000  0.5188040000000  0.5103170000000 1.0
C      1  0.5274130000000  0.5776980000000  0.4581660000000 1.0
C      1  0.4486610000000  0.4871720000000  0.4411840000000 1.0
C      1  0.4782890000000  0.4800500000000  0.5297630000000 1.0
C      1  0.4107540000000  0.4724670000000  0.4847440000000 1.0
C      1  0.5335800000000  0.5682400000000  0.5084050000000 1.0
C      1  0.4847000000000  0.4564540000000  0.4313650000000 1.0
C      1  0.5037220000000  0.5538530000000  0.4630160000000 1.0
C      1  0.5370110000000  0.4352240000000  0.5336050000000 1.0
C      1  0.4945690000000  0.5679730000000  0.5443020000000 1.0
C      1  0.4970940000000  0.4846650000000  0.4205210000000 1.0
C      1  0.5065360000000  0.4211250000000  0.5392980000000 1.0
C      1  0.4389410000000  0.4474670000000  0.5692950000000 1.0
C      1  0.5526120000000  0.4219630000000  0.4633060000000 1.0
C      1  0.4881390000000  0.5462200000000  0.5232990000000 1.0
C      1  0.4288530000000  0.5060950000000  0.4509930000000 1.0
C      1  0.5518780000000  0.5802910000000  0.4895280000000 1.0
C      1  0.5565720000000  0.4872720000000  0.5567330000000 1.0
C      1  0.4962760000000  0.5036660000000  0.4673840000000 1.0
C      1  0.4811020000000  0.4436500000000  0.5022180000000 1.0
C      1  0.4213380000000  0.4501990000000  0.4739200000000 1.0
C      1  0.4733560000000  0.5201180000000  0.5803950000000 1.0
C      1  0.4340240000000  0.4226470000000  0.5589980000000 1.0
C      1  0.5496180000000  0.4987860000000  0.4162920000000 1.0
C      1  0.4962200000000  0.5427080000000  0.5743770000000 1.0
C      1  0.5031600000000  0.4344020000000  0.4340810000000 1.0
C      1  0.4974630000000  0.4086640000000  0.4257320000000 1.0
C      1  0.5312250000000  0.5291850000000  0.4346170000000 1.0
C      1  0.4465740000000  0.4411580000000  0.4630310000000 1.0
C      1  0.4369040000000  0.5769330000000  0.5085220000000 1.0
C      1  0.5163150000000  0.5391290000000  0.5119380000000 1.0
C      1  0.5596850000000  0.5246700000000  0.5494610000000 1.0
C      1  0.6008060000000  0.4783490000000  0.4892650000000 1.0
C      1  0.5117590000000  0.5938430000000  0.4829080000000 1.0
C      1  0.5239780000000  0.4914590000000  0.5107970000000 1.0
C      1  0.4525360000000  0.4568240000000  0.5024370000000 1.0
C      1  0.4270340000000  0.5291030000000  0.5403050000000 1.0
C      1  0.5174810000000  0.4937860000000  0.5865470000000 1.0
C      1  0.4674940000000  0.5212060000000  0.5337200000000 1.0
C      1  0.4651400000000  0.4261620000000  0.4801440000000 1.0
C      1  0.6169120000000  0.4656090000000  0.4691000000000 1.0
C      1  0.5771090000000  0.4372990000000  0.4738610000000 1.0
C      1  0.5280750000000  0.5311600000000  0.4071740000000 1.0
C      1  0.5697750000000  0.5386060000000  0.4801070000000 1.0
C      1  0.4991480000000  0.5609630000000  0.4137900000000 1.0
C      1  0.4309250000000  0.5334430000000  0.4425140000000 1.0
C      1  0.4199880000000  0.5033670000000  0.4803730000000 1.0
C      1  0.4662030000000  0.4982160000000  0.4752770000000 1.0
C      1  0.5358220000000  0.4696670000000  0.4474590000000 1.0
C      1  0.5214610000000  0.4658830000000  0.5794070000000 1.0
C      1  0.5397290000000  0.5613720000000  0.5521170000000 1.0
C      1  0.5813000000000  0.4889850000000  0.5360530000000 1.0
C      1  0.5554790000000  0.4865650000000  0.4646620000000 1.0
C      1  0.5208430000000  0.5806400000000  0.5440900000000 1.0
C      1  0.5879420000000  0.5347030000000  0.5049850000000 1.0
C      1  0.4664350000000  0.5378580000000  0.4768620000000 1.0
C      1  0.5272690000000  0.4825040000000  0.4233170000000 1.0
C      1  0.5867310000000  0.5209110000000  0.5292250000000 1.0
C      1  0.5289020000000  0.4397910000000  0.4504430000000 1.0
C      1  0.5398730000000  0.5115530000000  0.5737950000000 1.0
C      1  0.5598190000000  0.5364190000000  0.4477670000000 1.0
C      1  0.4718920000000  0.5599920000000  0.4990500000000 1.0
C      1  0.4708460000000  0.5327340000000  0.4444040000000 1.0
C      1  0.4883190000000  0.4974250000000  0.5904660000000 1.0
C      1  0.5289410000000  0.4302120000000  0.5011330000000 1.0
C      1  0.4658780000000  0.5572430000000  0.5686850000000 1.0
C      1  0.5487580000000  0.4566650000000  0.5093870000000 1.0
C      1  0.4501660000000  0.4984170000000  0.5507880000000 1.0
C      1  0.4281340000000  0.4397340000000  0.5161160000000 1.0
C      1  0.4307760000000  0.4177140000000  0.5320390000000 1.0
C      1  0.5541130000000  0.5493350000000  0.5263160000000 1.0
C      1  0.5279350000000  0.5214010000000  0.5369160000000 1.0
C      1  0.5192680000000  0.4509410000000  0.4786670000000 1.0
C      1  0.5636320000000  0.5064220000000  0.4392390000000 1.0
C      1  0.4385460000000  0.5300370000000  0.4907910000000 1.0
END
