TITL C-2778432-5617-753 0.00293125288354959 125000 -774.952862380298 0 0 134 (C1) n - 1
REM
REM in /home/nfs/bkarasulu/CARBON/AIRSS/Generating-Clusters/REBO/Only-C1/SD-CG/HFTN-CG
REM
REM
REM
REM
REM
REM ./C.cell (11c1c37f851c82e70ff6c80c92926a4b)
REM
REM compiler GCC version 9.2.1 20190827 (Red Hat 9.2.1-1)
REM options -cpp -mtune=generic -march=x86-64 -g -O0 -fpre-include=/usr/include/finclude/math-vector-fortran.h
REM seed -967160834 626503238 -992344575 132198761 -773667741 -2072815095 1081660840 -427501752 1084614152 -2071202941 1879341898 -1952666887 82322431 -1485927170 -1560990634 1267508544 269400202 -2050006396 974134198 -1620897636 -90457321 -2098360747 2142640056 85031281 320997631 1189750314 1780850014 -179009442 1404449118 -364557988 -1634797036 1170736927 672087288
REM
CELL 1.54180   50.00000   50.00000   50.00000   90.00000   90.00000   90.00000
LATT -1
SFAC C  
C      1  0.4471040000000  0.4014990000000  0.5304730000000 1.0
C      1  0.5229240000000  0.5047810000000  0.4534850000000 1.0
C      1  0.5366320000000  0.5059430000000  0.4233420000000 1.0
C      1  0.5741180000000  0.4422260000000  0.5154190000000 1.0
C      1  0.4321960000000  0.5960080000000  0.4561450000000 1.0
C      1  0.4808360000000  0.4246610000000  0.4356050000000 1.0
C      1  0.5714290000000  0.4518210000000  0.5660220000000 1.0
C      1  0.5050390000000  0.5883940000000  0.5293090000000 1.0
C      1  0.4358160000000  0.5663080000000  0.5283860000000 1.0
C      1  0.4986310000000  0.4744350000000  0.4189190000000 1.0
C      1  0.5568920000000  0.5676710000000  0.4471250000000 1.0
C      1  0.5083350000000  0.5760880000000  0.5572120000000 1.0
C      1  0.4395560000000  0.4153340000000  0.5076920000000 1.0
C      1  0.4856650000000  0.5325190000000  0.5443080000000 1.0
C      1  0.4127930000000  0.4815510000000  0.5444110000000 1.0
C      1  0.4121430000000  0.4599820000000  0.4894880000000 1.0
C      1  0.5850100000000  0.4553910000000  0.4855870000000 1.0
C      1  0.4473060000000  0.4881300000000  0.5253710000000 1.0
C      1  0.5327930000000  0.5606210000000  0.5052350000000 1.0
C      1  0.4222090000000  0.4975770000000  0.4961350000000 1.0
C      1  0.4131350000000  0.4855160000000  0.4661600000000 1.0
C      1  0.4625490000000  0.4657940000000  0.5873900000000 1.0
C      1  0.4989920000000  0.5377850000000  0.4725550000000 1.0
C      1  0.5231650000000  0.4123260000000  0.5260420000000 1.0
C      1  0.5594520000000  0.4263350000000  0.4635670000000 1.0
C      1  0.5276640000000  0.5130930000000  0.5071620000000 1.0
C      1  0.5967310000000  0.5223570000000  0.5045990000000 1.0
C      1  0.5616970000000  0.5059320000000  0.5350170000000 1.0
C      1  0.5623990000000  0.4358020000000  0.5441230000000 1.0
C      1  0.4878700000000  0.4733590000000  0.5193790000000 1.0
C      1  0.5355050000000  0.4294600000000  0.4481280000000 1.0
C      1  0.4410410000000  0.4533160000000  0.5438270000000 1.0
C      1  0.5058380000000  0.4765720000000  0.6007560000000 1.0
C      1  0.4417630000000  0.5212470000000  0.5627400000000 1.0
C      1  0.4669180000000  0.5708620000000  0.4862400000000 1.0
C      1  0.4874020000000  0.4159370000000  0.4958330000000 1.0
C      1  0.4880260000000  0.5135120000000  0.4031420000000 1.0
C      1  0.5424670000000  0.4798810000000  0.5252310000000 1.0
C      1  0.4656990000000  0.5379250000000  0.4946990000000 1.0
C      1  0.4347140000000  0.4289920000000  0.4576040000000 1.0
C      1  0.4317900000000  0.4441940000000  0.5123690000000 1.0
C      1  0.5518180000000  0.4932100000000  0.4950020000000 1.0
C      1  0.5576300000000  0.5299940000000  0.5080970000000 1.0
C      1  0.5777420000000  0.5263530000000  0.4042630000000 1.0
C      1  0.5308480000000  0.4691070000000  0.4099380000000 1.0
C      1  0.5357120000000  0.5520550000000  0.5720190000000 1.0
C      1  0.4577340000000  0.5053980000000  0.4518320000000 1.0
C      1  0.4313860000000  0.5227850000000  0.5369920000000 1.0
C      1  0.5372620000000  0.4660870000000  0.6005250000000 1.0
C      1  0.5091840000000  0.4662680000000  0.4763200000000 1.0
C      1  0.4624120000000  0.5570240000000  0.5231020000000 1.0
C      1  0.5619450000000  0.4661980000000  0.4629010000000 1.0
C      1  0.5464070000000  0.5168360000000  0.4722230000000 1.0
C      1  0.4400270000000  0.4781680000000  0.4458970000000 1.0
C      1  0.4274400000000  0.5143250000000  0.4570390000000 1.0
C      1  0.5430600000000  0.5505530000000  0.4759410000000 1.0
C      1  0.4952940000000  0.4046260000000  0.5211450000000 1.0
C      1  0.5534290000000  0.4704210000000  0.5775610000000 1.0
C      1  0.5070090000000  0.5000840000000  0.4832400000000 1.0
C      1  0.5175020000000  0.4258890000000  0.5727820000000 1.0
C      1  0.4542650000000  0.4476160000000  0.5721670000000 1.0
C      1  0.5314510000000  0.5141460000000  0.5611770000000 1.0
C      1  0.5132120000000  0.5257430000000  0.5829510000000 1.0
C      1  0.4572480000000  0.4090220000000  0.4516860000000 1.0
C      1  0.5888000000000  0.4728790000000  0.5124380000000 1.0
C      1  0.5068790000000  0.4769260000000  0.5480950000000 1.0
C      1  0.5342790000000  0.5823500000000  0.4661840000000 1.0
C      1  0.4891740000000  0.5978870000000  0.4516070000000 1.0
C      1  0.4764400000000  0.4680910000000  0.4679750000000 1.0
C      1  0.5807370000000  0.5512460000000  0.4571630000000 1.0
C      1  0.5869770000000  0.4996730000000  0.5185320000000 1.0
C      1  0.5478230000000  0.4777410000000  0.4379390000000 1.0
C      1  0.5846950000000  0.4419910000000  0.4547310000000 1.0
C      1  0.5152540000000  0.5077350000000  0.5339480000000 1.0
C      1  0.5319170000000  0.5605060000000  0.5392760000000 1.0
C      1  0.5090040000000  0.4369730000000  0.4279810000000 1.0
C      1  0.4360200000000  0.5633210000000  0.4523600000000 1.0
C      1  0.5047720000000  0.5451980000000  0.4985450000000 1.0
C      1  0.4981680000000  0.6145750000000  0.4733630000000 1.0
C      1  0.4913560000000  0.5021320000000  0.5938720000000 1.0
C      1  0.4757180000000  0.5319270000000  0.5941210000000 1.0
C      1  0.5053580000000  0.5587880000000  0.5851120000000 1.0
C      1  0.5034150000000  0.4440350000000  0.5403250000000 1.0
C      1  0.4937880000000  0.4888800000000  0.4472630000000 1.0
C      1  0.4778150000000  0.4520300000000  0.4180500000000 1.0
C      1  0.5035530000000  0.5474810000000  0.5286940000000 1.0
C      1  0.5758270000000  0.5280180000000  0.4652930000000 1.0
C      1  0.4906520000000  0.4220550000000  0.5568070000000 1.0
C      1  0.5072230000000  0.4337570000000  0.4866680000000 1.0
C      1  0.4230310000000  0.5413380000000  0.4646250000000 1.0
C      1  0.4373890000000  0.4546220000000  0.4692520000000 1.0
C      1  0.4639080000000  0.5830090000000  0.4560180000000 1.0
C      1  0.4578390000000  0.5177650000000  0.5171260000000 1.0
C      1  0.5405670000000  0.4644110000000  0.4885710000000 1.0
C      1  0.5802720000000  0.5760360000000  0.5068560000000 1.0
C      1  0.5151460000000  0.4974860000000  0.3996480000000 1.0
C      1  0.4831170000000  0.5789030000000  0.5148840000000 1.0
C      1  0.4600020000000  0.4614940000000  0.5174910000000 1.0
C      1  0.5005760000000  0.5368770000000  0.4451290000000 1.0
C      1  0.4505260000000  0.4830880000000  0.4839970000000 1.0
C      1  0.5541560000000  0.5838410000000  0.5153820000000 1.0
C      1  0.5371780000000  0.4839800000000  0.5572500000000 1.0
C      1  0.5578050000000  0.5314820000000  0.5587010000000 1.0
C      1  0.5219220000000  0.6038510000000  0.4856320000000 1.0
C      1  0.4899060000000  0.5681630000000  0.6055750000000 1.0
C      1  0.5529500000000  0.5294060000000  0.4159750000000 1.0
C      1  0.5274660000000  0.5992170000000  0.5133870000000 1.0
C      1  0.4360450000000  0.4817640000000  0.5621690000000 1.0
C      1  0.5226850000000  0.4596700000000  0.4475740000000 1.0
C      1  0.4494960000000  0.4640480000000  0.4195930000000 1.0
C      1  0.5147280000000  0.4445160000000  0.5946160000000 1.0
C      1  0.5839040000000  0.5489490000000  0.4983960000000 1.0
C      1  0.5566980000000  0.4279910000000  0.4920740000000 1.0
C      1  0.5111180000000  0.5823990000000  0.4434560000000 1.0
C      1  0.5421810000000  0.5535510000000  0.4245080000000 1.0
C      1  0.4730270000000  0.4373720000000  0.4653180000000 1.0
C      1  0.4836480000000  0.5036460000000  0.5300310000000 1.0
C      1  0.5189210000000  0.4598740000000  0.5144630000000 1.0
C      1  0.4675190000000  0.5358760000000  0.5668150000000 1.0
C      1  0.4331400000000  0.4625910000000  0.3987970000000 1.0
C      1  0.4766280000000  0.5099570000000  0.4277810000000 1.0
C      1  0.4733230000000  0.4025170000000  0.5415260000000 1.0
C      1  0.5139450000000  0.5572780000000  0.4299360000000 1.0
C      1  0.5685030000000  0.5451250000000  0.5347100000000 1.0
C      1  0.4145000000000  0.5454110000000  0.4921560000000 1.0
C      1  0.4095810000000  0.4769930000000  0.5182780000000 1.0
C      1  0.4739630000000  0.5078860000000  0.4810230000000 1.0
C      1  0.4602970000000  0.4979800000000  0.5798910000000 1.0
C      1  0.4589190000000  0.4135420000000  0.4853220000000 1.0
C      1  0.5307470000000  0.4242790000000  0.5006970000000 1.0
C      1  0.4192170000000  0.5237800000000  0.5092750000000 1.0
C      1  0.4211570000000  0.5708220000000  0.5038910000000 1.0
C      1  0.4374050000000  0.5856730000000  0.4854990000000 1.0
C      1  0.5370470000000  0.4223020000000  0.5493390000000 1.0
END
