TITL C-2778436-5916-609 -0.00242766112403021 125000 -725.114959473031 0 0 125 (C1) n - 1
REM
REM in /home/nfs/bkarasulu/CARBON/AIRSS/Generating-Clusters/REBO/Only-C1/SD-CG/HFTN-CG
REM
REM
REM
REM
REM
REM ./C.cell (11c1c37f851c82e70ff6c80c92926a4b)
REM
REM compiler GCC version 9.2.1 20190827 (Red Hat 9.2.1-1)
REM options -cpp -mtune=generic -march=x86-64 -g -O0 -fpre-include=/usr/include/finclude/math-vector-fortran.h
REM seed 1649663433 -1385668074 819360896 65948499 1441821813 -839375451 2120009158 1875007863 1062257884 169256920 812874916 114373269 -2039487451 2029870918 717061186 -550910489 -115019511 1452139802 1553153018 -1889681385 -678706652 517927600 1412743584 -68501703 -1051959523 -264902917 -1138016528 233065211 -1718158944 -524366356 -655401956 1701943829 -106936457
REM
CELL 1.54180   50.00000   50.00000   50.00000   90.00000   90.00000   90.00000
LATT -1
SFAC C  
C      1  0.4852380000000  0.4063360000000  0.5285050000000 1.0
C      1  0.4236200000000  0.5404940000000  0.5299930000000 1.0
C      1  0.5734590000000  0.5014420000000  0.4927360000000 1.0
C      1  0.5058250000000  0.4052020000000  0.4795100000000 1.0
C      1  0.5416520000000  0.5832100000000  0.5155740000000 1.0
C      1  0.4560880000000  0.5861640000000  0.4573120000000 1.0
C      1  0.5569490000000  0.4485910000000  0.4993730000000 1.0
C      1  0.4070990000000  0.4924950000000  0.4858030000000 1.0
C      1  0.4930670000000  0.4656490000000  0.5144430000000 1.0
C      1  0.4322570000000  0.5912380000000  0.4720310000000 1.0
C      1  0.5355190000000  0.4317390000000  0.5151490000000 1.0
C      1  0.5639550000000  0.5731270000000  0.4517170000000 1.0
C      1  0.4374540000000  0.5459140000000  0.4394390000000 1.0
C      1  0.4489960000000  0.4854910000000  0.5788160000000 1.0
C      1  0.4723040000000  0.5015500000000  0.5942820000000 1.0
C      1  0.4639290000000  0.4792130000000  0.4625320000000 1.0
C      1  0.4173470000000  0.5073090000000  0.4613410000000 1.0
C      1  0.5686410000000  0.5546330000000  0.4793780000000 1.0
C      1  0.5102960000000  0.5601780000000  0.5063700000000 1.0
C      1  0.5860900000000  0.5137070000000  0.4571530000000 1.0
C      1  0.5148460000000  0.4525270000000  0.5324100000000 1.0
C      1  0.4288920000000  0.5311080000000  0.4974030000000 1.0
C      1  0.5027580000000  0.4962230000000  0.5029060000000 1.0
C      1  0.5660230000000  0.4659990000000  0.4552940000000 1.0
C      1  0.4631440000000  0.5296620000000  0.5975820000000 1.0
C      1  0.4501860000000  0.5696700000000  0.4348610000000 1.0
C      1  0.5131430000000  0.4638520000000  0.5903800000000 1.0
C      1  0.5159350000000  0.5424760000000  0.4801850000000 1.0
C      1  0.5445730000000  0.4531630000000  0.4177130000000 1.0
C      1  0.5544640000000  0.4799170000000  0.5071830000000 1.0
C      1  0.5391300000000  0.5361340000000  0.5781250000000 1.0
C      1  0.5401370000000  0.5044450000000  0.4894870000000 1.0
C      1  0.5294230000000  0.4736990000000  0.5496080000000 1.0
C      1  0.4515790000000  0.4259490000000  0.4651630000000 1.0
C      1  0.4973440000000  0.4112810000000  0.4502920000000 1.0
C      1  0.5586380000000  0.5671630000000  0.5408390000000 1.0
C      1  0.4776740000000  0.4941010000000  0.5378570000000 1.0
C      1  0.5635710000000  0.5484860000000  0.4302490000000 1.0
C      1  0.4527950000000  0.5145930000000  0.5383300000000 1.0
C      1  0.4874450000000  0.4179070000000  0.5003870000000 1.0
C      1  0.4911510000000  0.4547050000000  0.4251820000000 1.0
C      1  0.4215230000000  0.5409680000000  0.4663130000000 1.0
C      1  0.5054800000000  0.5449940000000  0.5583080000000 1.0
C      1  0.5214250000000  0.4978140000000  0.4290740000000 1.0
C      1  0.4376070000000  0.5462790000000  0.5567990000000 1.0
C      1  0.4964020000000  0.4476550000000  0.4865190000000 1.0
C      1  0.5405980000000  0.4265050000000  0.5473130000000 1.0
C      1  0.4911930000000  0.5203350000000  0.4880360000000 1.0
C      1  0.4656550000000  0.5818220000000  0.5245740000000 1.0
C      1  0.4636820000000  0.4547640000000  0.5772200000000 1.0
C      1  0.4847870000000  0.4776000000000  0.5629910000000 1.0
C      1  0.5156900000000  0.4658610000000  0.4195010000000 1.0
C      1  0.5397470000000  0.4629590000000  0.5780250000000 1.0
C      1  0.5349100000000  0.5635770000000  0.4360780000000 1.0
C      1  0.4689670000000  0.5171950000000  0.4109820000000 1.0
C      1  0.5758070000000  0.5340840000000  0.5268890000000 1.0
C      1  0.4642240000000  0.5526760000000  0.4973680000000 1.0
C      1  0.5913260000000  0.4883530000000  0.5426410000000 1.0
C      1  0.4955960000000  0.4432420000000  0.5799170000000 1.0
C      1  0.4771660000000  0.4482790000000  0.4631290000000 1.0
C      1  0.4905850000000  0.5777220000000  0.5138630000000 1.0
C      1  0.5507850000000  0.4814750000000  0.4293100000000 1.0
C      1  0.4755610000000  0.4545900000000  0.5393370000000 1.0
C      1  0.4432770000000  0.4587000000000  0.5500820000000 1.0
C      1  0.5240790000000  0.4301760000000  0.4550270000000 1.0
C      1  0.4684360000000  0.4228870000000  0.5433600000000 1.0
C      1  0.4612520000000  0.4681670000000  0.4933690000000 1.0
C      1  0.4135220000000  0.5083260000000  0.5384130000000 1.0
C      1  0.4379130000000  0.4708330000000  0.4215670000000 1.0
C      1  0.4509010000000  0.5060070000000  0.4604740000000 1.0
C      1  0.4236680000000  0.4319900000000  0.4804350000000 1.0
C      1  0.5063430000000  0.5211500000000  0.4203960000000 1.0
C      1  0.5239960000000  0.5445690000000  0.5301160000000 1.0
C      1  0.4875140000000  0.5415540000000  0.4364610000000 1.0
C      1  0.5836900000000  0.4534110000000  0.5136120000000 1.0
C      1  0.5960410000000  0.5216720000000  0.5059680000000 1.0
C      1  0.4511770000000  0.4877690000000  0.5173220000000 1.0
C      1  0.4224620000000  0.4464180000000  0.5038800000000 1.0
C      1  0.4659520000000  0.5422650000000  0.5286400000000 1.0
C      1  0.5507220000000  0.4328770000000  0.4366980000000 1.0
C      1  0.5257800000000  0.5148270000000  0.5185840000000 1.0
C      1  0.4375180000000  0.5660630000000  0.5136740000000 1.0
C      1  0.5622890000000  0.5222800000000  0.4444330000000 1.0
C      1  0.5998570000000  0.4721690000000  0.4984990000000 1.0
C      1  0.4485120000000  0.5192000000000  0.4299080000000 1.0
C      1  0.4431910000000  0.4412090000000  0.4176850000000 1.0
C      1  0.5144400000000  0.4746720000000  0.4822760000000 1.0
C      1  0.5351560000000  0.4185730000000  0.4851510000000 1.0
C      1  0.6053770000000  0.4937050000000  0.5168090000000 1.0
C      1  0.4233050000000  0.4744280000000  0.5030830000000 1.0
C      1  0.5583030000000  0.4475260000000  0.5585680000000 1.0
C      1  0.5295710000000  0.4949440000000  0.4604290000000 1.0
C      1  0.5203050000000  0.5772600000000  0.5409420000000 1.0
C      1  0.5638940000000  0.5594590000000  0.5084740000000 1.0
C      1  0.5120620000000  0.5534250000000  0.4204720000000 1.0
C      1  0.4600120000000  0.4353230000000  0.4967610000000 1.0
C      1  0.5411520000000  0.5429000000000  0.4628170000000 1.0
C      1  0.4269230000000  0.4878600000000  0.5528890000000 1.0
C      1  0.4586970000000  0.5238200000000  0.4834260000000 1.0
C      1  0.5253070000000  0.5941650000000  0.4916620000000 1.0
C      1  0.5229910000000  0.5147820000000  0.5775030000000 1.0
C      1  0.4450750000000  0.5186120000000  0.5708110000000 1.0
C      1  0.5042090000000  0.5914390000000  0.4789500000000 1.0
C      1  0.5867020000000  0.4829760000000  0.4689660000000 1.0
C      1  0.4917090000000  0.5226970000000  0.5377040000000 1.0
C      1  0.4616430000000  0.5661380000000  0.5526920000000 1.0
C      1  0.4779640000000  0.5741920000000  0.4751410000000 1.0
C      1  0.5323700000000  0.4610840000000  0.4581940000000 1.0
C      1  0.5915810000000  0.5336030000000  0.4774500000000 1.0
C      1  0.5014810000000  0.4930860000000  0.5867580000000 1.0
C      1  0.5520860000000  0.4880600000000  0.5357030000000 1.0
C      1  0.5697920000000  0.5114050000000  0.5446510000000 1.0
C      1  0.5525230000000  0.5547060000000  0.5634690000000 1.0
C      1  0.4263080000000  0.4949410000000  0.4310320000000 1.0
C      1  0.4425990000000  0.4362790000000  0.5260650000000 1.0
C      1  0.5090200000000  0.4306870000000  0.5576560000000 1.0
C      1  0.5799170000000  0.4601910000000  0.5426280000000 1.0
C      1  0.4077430000000  0.5106290000000  0.5093330000000 1.0
C      1  0.4682120000000  0.4305980000000  0.4355530000000 1.0
C      1  0.4875080000000  0.5629310000000  0.5695540000000 1.0
C      1  0.4869780000000  0.5454650000000  0.4653400000000 1.0
C      1  0.4231970000000  0.5689080000000  0.4856400000000 1.0
C      1  0.5172870000000  0.5027800000000  0.5485590000000 1.0
C      1  0.5606550000000  0.4353910000000  0.4693410000000 1.0
C      1  0.4665040000000  0.4703510000000  0.4318600000000 1.0
END
