TITL C-2778431-5191-1039 0.00528169113073329 125000 -827.016092630163 0 0 140 (C1) n - 1
REM
REM in /home/nfs/bkarasulu/CARBON/AIRSS/Generating-Clusters/REBO/Only-C1/SD-CG/HFTN-CG
REM
REM
REM
REM
REM
REM ./C.cell (11c1c37f851c82e70ff6c80c92926a4b)
REM
REM compiler GCC version 9.2.1 20190827 (Red Hat 9.2.1-1)
REM options -cpp -mtune=generic -march=x86-64 -g -O0 -fpre-include=/usr/include/finclude/math-vector-fortran.h
REM seed 1914133843 915095104 1945166634 -2041368885 606539686 686658440 558732993 1206235000 827063327 -822273479 -150751984 -1835970585 860860091 -944877807 -337717443 -2119454056 -1586925853 -1216227742 -1986466584 -1773884541 -154867460 681582002 995498783 317275940 -1285574575 292400687 -1885461608 -427750476 -66926159 -172723678 1619988480 1638138638 -702150025
REM
CELL 1.54180   50.00000   50.00000   50.00000   90.00000   90.00000   90.00000
LATT -1
SFAC C  
C      1  0.4426660000000  0.5475400000000  0.5391390000000 1.0
C      1  0.5687360000000  0.4448230000000  0.4520470000000 1.0
C      1  0.4408240000000  0.5431900000000  0.4308010000000 1.0
C      1  0.4926960000000  0.5071320000000  0.5200610000000 1.0
C      1  0.4993280000000  0.4543250000000  0.5510250000000 1.0
C      1  0.5417970000000  0.5512540000000  0.5227450000000 1.0
C      1  0.5982700000000  0.5083160000000  0.5533980000000 1.0
C      1  0.4658460000000  0.4671730000000  0.5333200000000 1.0
C      1  0.5534200000000  0.4919380000000  0.5644650000000 1.0
C      1  0.4025420000000  0.4722660000000  0.5035140000000 1.0
C      1  0.5132190000000  0.4250730000000  0.5611560000000 1.0
C      1  0.5018170000000  0.4473400000000  0.4657370000000 1.0
C      1  0.5754760000000  0.5511440000000  0.4857050000000 1.0
C      1  0.5299620000000  0.5390810000000  0.5996770000000 1.0
C      1  0.4844920000000  0.5945590000000  0.4828720000000 1.0
C      1  0.4922380000000  0.4678500000000  0.5997550000000 1.0
C      1  0.4991570000000  0.5366780000000  0.4663210000000 1.0
C      1  0.5021560000000  0.4163730000000  0.4588120000000 1.0
C      1  0.4292460000000  0.5438830000000  0.4633790000000 1.0
C      1  0.3919970000000  0.4901060000000  0.4843490000000 1.0
C      1  0.4999600000000  0.5487610000000  0.4233710000000 1.0
C      1  0.5104670000000  0.5494590000000  0.5759790000000 1.0
C      1  0.5908040000000  0.5788510000000  0.5422020000000 1.0
C      1  0.4887370000000  0.4374220000000  0.4101130000000 1.0
C      1  0.5447580000000  0.5216300000000  0.5496860000000 1.0
C      1  0.5782700000000  0.4744240000000  0.5278270000000 1.0
C      1  0.5942000000000  0.4959150000000  0.4759580000000 1.0
C      1  0.4342040000000  0.4733350000000  0.5606290000000 1.0
C      1  0.5597890000000  0.4417130000000  0.5152940000000 1.0
C      1  0.4889540000000  0.5340320000000  0.5184610000000 1.0
C      1  0.5513980000000  0.4785390000000  0.4099120000000 1.0
C      1  0.5009470000000  0.4165970000000  0.5108210000000 1.0
C      1  0.4502900000000  0.5175260000000  0.4671400000000 1.0
C      1  0.5511430000000  0.5221860000000  0.5900780000000 1.0
C      1  0.4664680000000  0.4339090000000  0.4274670000000 1.0
C      1  0.4453980000000  0.4934930000000  0.5857100000000 1.0
C      1  0.4824700000000  0.5697330000000  0.5560700000000 1.0
C      1  0.5494710000000  0.4275020000000  0.4714400000000 1.0
C      1  0.4808820000000  0.5524960000000  0.5930620000000 1.0
C      1  0.4602710000000  0.4513000000000  0.5603140000000 1.0
C      1  0.5214080000000  0.5158470000000  0.3885230000000 1.0
C      1  0.4714770000000  0.4881120000000  0.4506020000000 1.0
C      1  0.4999240000000  0.5030990000000  0.5826080000000 1.0
C      1  0.4801890000000  0.4258090000000  0.5523080000000 1.0
C      1  0.5316300000000  0.5524120000000  0.4198410000000 1.0
C      1  0.4762440000000  0.4115240000000  0.5244830000000 1.0
C      1  0.5443190000000  0.5114000000000  0.5209380000000 1.0
C      1  0.5478470000000  0.4768360000000  0.4734570000000 1.0
C      1  0.5463200000000  0.4646010000000  0.5495250000000 1.0
C      1  0.5084560000000  0.5780020000000  0.5484300000000 1.0
C      1  0.4420250000000  0.4811410000000  0.5224370000000 1.0
C      1  0.4699580000000  0.5658230000000  0.4873140000000 1.0
C      1  0.5496360000000  0.5433230000000  0.4452640000000 1.0
C      1  0.5104190000000  0.5897140000000  0.5225800000000 1.0
C      1  0.5210330000000  0.4694610000000  0.5946890000000 1.0
C      1  0.4492090000000  0.4385980000000  0.4894690000000 1.0
C      1  0.4119320000000  0.4499210000000  0.4582140000000 1.0
C      1  0.5522160000000  0.5740180000000  0.4917720000000 1.0
C      1  0.4416180000000  0.5479770000000  0.4936510000000 1.0
C      1  0.4846430000000  0.4897050000000  0.5398750000000 1.0
C      1  0.5408360000000  0.4059840000000  0.4889240000000 1.0
C      1  0.5968110000000  0.5095180000000  0.5024850000000 1.0
C      1  0.5863010000000  0.4675920000000  0.4709310000000 1.0
C      1  0.4841760000000  0.5282140000000  0.5705420000000 1.0
C      1  0.4285530000000  0.4963300000000  0.6106850000000 1.0
C      1  0.4764440000000  0.4552540000000  0.4830010000000 1.0
C      1  0.4734290000000  0.5348200000000  0.4520850000000 1.0
C      1  0.5758690000000  0.5402160000000  0.4595960000000 1.0
C      1  0.5526870000000  0.4708390000000  0.4409620000000 1.0
C      1  0.5686790000000  0.5684990000000  0.5210060000000 1.0
C      1  0.5298290000000  0.4506950000000  0.4798860000000 1.0
C      1  0.4693380000000  0.5383820000000  0.4124900000000 1.0
C      1  0.4775950000000  0.4852860000000  0.4800610000000 1.0
C      1  0.4374040000000  0.4916040000000  0.4490390000000 1.0
C      1  0.4193570000000  0.5191510000000  0.4423760000000 1.0
C      1  0.5900490000000  0.5158100000000  0.4555680000000 1.0
C      1  0.4143460000000  0.4987240000000  0.6317490000000 1.0
C      1  0.5237150000000  0.4697030000000  0.5045320000000 1.0
C      1  0.5465590000000  0.4807900000000  0.5205780000000 1.0
C      1  0.5288660000000  0.5814400000000  0.4680200000000 1.0
C      1  0.5023510000000  0.5888240000000  0.4605000000000 1.0
C      1  0.5027190000000  0.5150200000000  0.4169640000000 1.0
C      1  0.5879240000000  0.5366120000000  0.5064830000000 1.0
C      1  0.4893520000000  0.5714370000000  0.4417450000000 1.0
C      1  0.4515620000000  0.5200750000000  0.5208680000000 1.0
C      1  0.5447250000000  0.4334180000000  0.4300930000000 1.0
C      1  0.5838160000000  0.4912780000000  0.5723800000000 1.0
C      1  0.4279750000000  0.5670120000000  0.5177490000000 1.0
C      1  0.5171990000000  0.5137030000000  0.4787680000000 1.0
C      1  0.4488080000000  0.4568820000000  0.4240230000000 1.0
C      1  0.4403970000000  0.4774030000000  0.4923490000000 1.0
C      1  0.5666100000000  0.4571340000000  0.4939320000000 1.0
C      1  0.5034160000000  0.4934080000000  0.4956190000000 1.0
C      1  0.5119540000000  0.4055600000000  0.4871580000000 1.0
C      1  0.4603190000000  0.4814510000000  0.4129230000000 1.0
C      1  0.5304100000000  0.4501280000000  0.5754510000000 1.0
C      1  0.4743770000000  0.5483270000000  0.5370690000000 1.0
C      1  0.4999050000000  0.4833120000000  0.5637540000000 1.0
C      1  0.5402390000000  0.4319800000000  0.5416970000000 1.0
C      1  0.5312570000000  0.4997270000000  0.4575180000000 1.0
C      1  0.5186520000000  0.4703640000000  0.4471620000000 1.0
C      1  0.5730770000000  0.5287540000000  0.5645560000000 1.0
C      1  0.5346230000000  0.4532050000000  0.4102880000000 1.0
C      1  0.4252690000000  0.5844460000000  0.4934660000000 1.0
C      1  0.4549270000000  0.4114660000000  0.4723110000000 1.0
C      1  0.5375250000000  0.4930420000000  0.5917080000000 1.0
C      1  0.4647830000000  0.5114280000000  0.4283450000000 1.0
C      1  0.4791830000000  0.4497720000000  0.5133640000000 1.0
C      1  0.5419440000000  0.5053260000000  0.4080500000000 1.0
C      1  0.4937260000000  0.6065610000000  0.5070310000000 1.0
C      1  0.5861700000000  0.5452730000000  0.5386950000000 1.0
C      1  0.5495620000000  0.4120640000000  0.5157110000000 1.0
C      1  0.4528250000000  0.5211730000000  0.5709250000000 1.0
C      1  0.5366320000000  0.5315640000000  0.4969320000000 1.0
C      1  0.4548830000000  0.5551620000000  0.5707340000000 1.0
C      1  0.4119830000000  0.4798670000000  0.5354270000000 1.0
C      1  0.4969430000000  0.4871560000000  0.4282180000000 1.0
C      1  0.4413980000000  0.5041500000000  0.5474620000000 1.0
C      1  0.4681910000000  0.4697060000000  0.5863100000000 1.0
C      1  0.4265690000000  0.4641800000000  0.4406260000000 1.0
C      1  0.4078220000000  0.5117530000000  0.4735970000000 1.0
C      1  0.4551930000000  0.4105120000000  0.5058680000000 1.0
C      1  0.4130940000000  0.5099960000000  0.5196260000000 1.0
C      1  0.4563760000000  0.5062630000000  0.4950240000000 1.0
C      1  0.5063520000000  0.4592780000000  0.4109550000000 1.0
C      1  0.4591410000000  0.5656240000000  0.4487220000000 1.0
C      1  0.4201900000000  0.5232190000000  0.4963500000000 1.0
C      1  0.5099600000000  0.4467100000000  0.5201220000000 1.0
C      1  0.4214510000000  0.4519170000000  0.4871470000000 1.0
C      1  0.4970490000000  0.5510980000000  0.4950280000000 1.0
C      1  0.5406170000000  0.5162880000000  0.4343250000000 1.0
C      1  0.5209550000000  0.5676260000000  0.5042090000000 1.0
C      1  0.5972000000000  0.4955660000000  0.5274530000000 1.0
C      1  0.4923570000000  0.5314000000000  0.3884240000000 1.0
C      1  0.4717910000000  0.4159720000000  0.4500870000000 1.0
C      1  0.5264190000000  0.4147990000000  0.4387040000000 1.0
C      1  0.5287010000000  0.5508120000000  0.5512040000000 1.0
C      1  0.5306500000000  0.5497570000000  0.4686920000000 1.0
C      1  0.5001900000000  0.5271180000000  0.6066760000000 1.0
C      1  0.4441980000000  0.5819020000000  0.4731140000000 1.0
END
