TITL C-2778434-4341-1146 0.000105946539207852 125000 -289.082931681834 0 0 50 (C1) n - 1
REM
REM in /home/nfs/bkarasulu/CARBON/AIRSS/Generating-Clusters/REBO/Only-C1/SD-CG/HFTN-CG
REM
REM
REM
REM
REM
REM ./C.cell (11c1c37f851c82e70ff6c80c92926a4b)
REM
REM compiler GCC version 9.2.1 20190827 (Red Hat 9.2.1-1)
REM options -cpp -mtune=generic -march=x86-64 -g -O0 -fpre-include=/usr/include/finclude/math-vector-fortran.h
REM seed -334469156 1904365467 -2078408927 1676258406 1738630541 1758042177 -1186536751 339759271 -378489798 -855789265 -503407597 1150523732 -963068491 952279255 -839759778 2058917102 -1897848762 -831626814 2069258613 1823237635 2018746606 -1134610958 -2141443399 1041364361 -1228626901 -283752419 518710365 -1313797871 649631909 -432472817 292200789 -1472395193 -1764567111
REM
CELL 1.54180   50.00000   50.00000   50.00000   90.00000   90.00000   90.00000
LATT -1
SFAC C  
C      1  0.5013200000000  0.5846760000000  0.5270820000000 1.0
C      1  0.4745310000000  0.5019760000000  0.4473180000000 1.0
C      1  0.5170080000000  0.4436800000000  0.5088620000000 1.0
C      1  0.4990930000000  0.4680250000000  0.4195530000000 1.0
C      1  0.5435240000000  0.4543430000000  0.4952680000000 1.0
C      1  0.5546990000000  0.5008320000000  0.4982810000000 1.0
C      1  0.4663350000000  0.5056350000000  0.5499520000000 1.0
C      1  0.4818010000000  0.5700690000000  0.5128610000000 1.0
C      1  0.4691180000000  0.4705380000000  0.4714490000000 1.0
C      1  0.5586900000000  0.4722760000000  0.5380970000000 1.0
C      1  0.5497880000000  0.5222850000000  0.5157010000000 1.0
C      1  0.4572510000000  0.5598280000000  0.5204040000000 1.0
C      1  0.4447050000000  0.5329510000000  0.5075710000000 1.0
C      1  0.5213300000000  0.4281680000000  0.5540870000000 1.0
C      1  0.5273230000000  0.5755630000000  0.5283210000000 1.0
C      1  0.5093690000000  0.5280520000000  0.5597650000000 1.0
C      1  0.5125130000000  0.5676980000000  0.4663480000000 1.0
C      1  0.5435370000000  0.4722180000000  0.5622800000000 1.0
C      1  0.5262080000000  0.5177540000000  0.5799470000000 1.0
C      1  0.4529920000000  0.5066030000000  0.4651960000000 1.0
C      1  0.5096260000000  0.4751070000000  0.4977400000000 1.0
C      1  0.5379010000000  0.5505740000000  0.5229080000000 1.0
C      1  0.4346800000000  0.4314450000000  0.4495090000000 1.0
C      1  0.4987690000000  0.5172350000000  0.4558460000000 1.0
C      1  0.4961720000000  0.4684950000000  0.5540420000000 1.0
C      1  0.5442370000000  0.5025740000000  0.4720170000000 1.0
C      1  0.5101020000000  0.4535170000000  0.4394700000000 1.0
C      1  0.4562990000000  0.4444950000000  0.4588260000000 1.0
C      1  0.5571470000000  0.4746430000000  0.5096990000000 1.0
C      1  0.4542510000000  0.5343030000000  0.5402590000000 1.0
C      1  0.5357400000000  0.5644290000000  0.4510000000000 1.0
C      1  0.5289410000000  0.5156760000000  0.4524230000000 1.0
C      1  0.5410000000000  0.5390300000000  0.4411220000000 1.0
C      1  0.4891670000000  0.4449760000000  0.4632290000000 1.0
C      1  0.4787840000000  0.4859520000000  0.4246140000000 1.0
C      1  0.4177990000000  0.4958710000000  0.4955360000000 1.0
C      1  0.4909030000000  0.5215310000000  0.4912930000000 1.0
C      1  0.4813890000000  0.5310300000000  0.5606050000000 1.0
C      1  0.5419770000000  0.4953830000000  0.5786530000000 1.0
C      1  0.5206910000000  0.5230090000000  0.5318760000000 1.0
C      1  0.5202860000000  0.4560740000000  0.4713700000000 1.0
C      1  0.4385460000000  0.5126510000000  0.4891480000000 1.0
C      1  0.5160540000000  0.4232090000000  0.5275200000000 1.0
C      1  0.5029740000000  0.5024810000000  0.5168050000000 1.0
C      1  0.4845280000000  0.4883200000000  0.5381400000000 1.0
C      1  0.4136310000000  0.4187390000000  0.4404360000000 1.0
C      1  0.4840330000000  0.4901360000000  0.4843080000000 1.0
C      1  0.4900680000000  0.5460710000000  0.4598340000000 1.0
C      1  0.5198400000000  0.4553310000000  0.5622060000000 1.0
C      1  0.4933290000000  0.5545410000000  0.4912210000000 1.0
END
