TITL C-2778433-5640-407 -0.000168813555752423 125000 -450.647096711639 0 0 77 (C1) n - 1
REM
REM in /home/nfs/bkarasulu/CARBON/AIRSS/Generating-Clusters/REBO/Only-C1/SD-CG/HFTN-CG
REM
REM
REM
REM
REM
REM ./C.cell (11c1c37f851c82e70ff6c80c92926a4b)
REM
REM compiler GCC version 9.2.1 20190827 (Red Hat 9.2.1-1)
REM options -cpp -mtune=generic -march=x86-64 -g -O0 -fpre-include=/usr/include/finclude/math-vector-fortran.h
REM seed -990209799 -983684191 1203647560 1432534461 -1944641451 -1579499578 -2086210270 626566800 1581818282 -2069837141 1629211914 1600403981 -1412420608 739026435 -1890652556 -1845824768 1643771853 1255233741 64291249 -309758299 -1443353648 1302636002 -2064558660 89226598 599758087 1097332839 -1359471316 -1319162770 916908511 -1001568310 1875205266 636468489 -1412879532
REM
CELL 1.54180   50.00000   50.00000   50.00000   90.00000   90.00000   90.00000
LATT -1
SFAC C  
C      1  0.4344780000000  0.5409270000000  0.4853240000000 1.0
C      1  0.5368180000000  0.5814960000000  0.4969320000000 1.0
C      1  0.4702180000000  0.5416490000000  0.5844500000000 1.0
C      1  0.5549450000000  0.5477740000000  0.5395310000000 1.0
C      1  0.5400690000000  0.5065410000000  0.5015730000000 1.0
C      1  0.5522860000000  0.4963530000000  0.5396110000000 1.0
C      1  0.5407060000000  0.5643010000000  0.5191250000000 1.0
C      1  0.4907710000000  0.5026270000000  0.5495710000000 1.0
C      1  0.5277500000000  0.5354860000000  0.5129480000000 1.0
C      1  0.5063190000000  0.5262570000000  0.5376110000000 1.0
C      1  0.5499310000000  0.5289160000000  0.4560700000000 1.0
C      1  0.5362530000000  0.4317260000000  0.5245460000000 1.0
C      1  0.5308860000000  0.4926380000000  0.4263110000000 1.0
C      1  0.5058720000000  0.4558140000000  0.4821820000000 1.0
C      1  0.4787900000000  0.5214310000000  0.4971740000000 1.0
C      1  0.5606440000000  0.4571870000000  0.4792210000000 1.0
C      1  0.5912470000000  0.4754820000000  0.4273970000000 1.0
C      1  0.5192150000000  0.5531730000000  0.4229720000000 1.0
C      1  0.5797120000000  0.5358530000000  0.5309990000000 1.0
C      1  0.4802150000000  0.4968980000000  0.4473140000000 1.0
C      1  0.5165970000000  0.4637020000000  0.5631740000000 1.0
C      1  0.4783650000000  0.4841120000000  0.5269820000000 1.0
C      1  0.5376060000000  0.4443570000000  0.4804930000000 1.0
C      1  0.4574240000000  0.4564030000000  0.4690640000000 1.0
C      1  0.5529100000000  0.5044610000000  0.4384590000000 1.0
C      1  0.4555230000000  0.5546300000000  0.5644140000000 1.0
C      1  0.4890790000000  0.4726330000000  0.5635970000000 1.0
C      1  0.5377230000000  0.5244430000000  0.5499400000000 1.0
C      1  0.4985780000000  0.5264300000000  0.5809700000000 1.0
C      1  0.5411960000000  0.4782530000000  0.5166960000000 1.0
C      1  0.4861410000000  0.5668480000000  0.5092360000000 1.0
C      1  0.5542510000000  0.4511890000000  0.5182170000000 1.0
C      1  0.5756920000000  0.5096520000000  0.5225190000000 1.0
C      1  0.5286430000000  0.5686900000000  0.4728580000000 1.0
C      1  0.4350530000000  0.4750760000000  0.4702590000000 1.0
C      1  0.4303130000000  0.5396490000000  0.5172050000000 1.0
C      1  0.5071990000000  0.5097560000000  0.4907860000000 1.0
C      1  0.4972370000000  0.4259100000000  0.5280100000000 1.0
C      1  0.4658960000000  0.5249010000000  0.4488430000000 1.0
C      1  0.4026610000000  0.4425960000000  0.4494620000000 1.0
C      1  0.5751510000000  0.5309080000000  0.4740460000000 1.0
C      1  0.4189480000000  0.5160980000000  0.4977800000000 1.0
C      1  0.4854890000000  0.4662380000000  0.4617700000000 1.0
C      1  0.5223010000000  0.5141510000000  0.5768460000000 1.0
C      1  0.4962790000000  0.5885100000000  0.5227890000000 1.0
C      1  0.5113000000000  0.4791420000000  0.5037910000000 1.0
C      1  0.5750770000000  0.4876430000000  0.4454610000000 1.0
C      1  0.5149520000000  0.4276360000000  0.4992980000000 1.0
C      1  0.4626210000000  0.4978970000000  0.5058850000000 1.0
C      1  0.4810960000000  0.5397820000000  0.5228760000000 1.0
C      1  0.4703250000000  0.5098270000000  0.5758360000000 1.0
C      1  0.4374630000000  0.4436200000000  0.5153770000000 1.0
C      1  0.4339790000000  0.4115660000000  0.4720480000000 1.0
C      1  0.4630120000000  0.5378490000000  0.4754900000000 1.0
C      1  0.5015620000000  0.5067810000000  0.4223680000000 1.0
C      1  0.4898460000000  0.4573600000000  0.5187110000000 1.0
C      1  0.5200740000000  0.4381950000000  0.5499180000000 1.0
C      1  0.4126000000000  0.4179940000000  0.4563430000000 1.0
C      1  0.5943170000000  0.5486090000000  0.4744560000000 1.0
C      1  0.4120440000000  0.4675810000000  0.4557790000000 1.0
C      1  0.4512650000000  0.4322230000000  0.4866810000000 1.0
C      1  0.4619690000000  0.4632340000000  0.5607610000000 1.0
C      1  0.5744440000000  0.4809800000000  0.4734520000000 1.0
C      1  0.4328160000000  0.4709440000000  0.5216890000000 1.0
C      1  0.4341570000000  0.4900530000000  0.4965580000000 1.0
C      1  0.4788480000000  0.5647140000000  0.4826490000000 1.0
C      1  0.4978610000000  0.5358780000000  0.4165350000000 1.0
C      1  0.5252200000000  0.5353290000000  0.4786660000000 1.0
C      1  0.5339280000000  0.4877400000000  0.5651860000000 1.0
C      1  0.4527190000000  0.5367690000000  0.5374080000000 1.0
C      1  0.4680760000000  0.4324330000000  0.5151010000000 1.0
C      1  0.4435390000000  0.4807050000000  0.5462010000000 1.0
C      1  0.4506290000000  0.5077090000000  0.5510200000000 1.0
C      1  0.5351880000000  0.5555920000000  0.4459590000000 1.0
C      1  0.5031350000000  0.4750250000000  0.4346550000000 1.0
C      1  0.5706210000000  0.5057260000000  0.4911370000000 1.0
C      1  0.4719390000000  0.5413420000000  0.4274290000000 1.0
END
