TITL C-2778427-5640-1062 -0.00258858538055 125000 -604.976065940668 0 0 103 (C1) n - 1
REM
REM in /home/nfs/bkarasulu/CARBON/AIRSS/Generating-Clusters/REBO/Only-C1/SD-CG/HFTN-CG
REM
REM
REM
REM
REM
REM ./C.cell (11c1c37f851c82e70ff6c80c92926a4b)
REM
REM compiler GCC version 9.2.1 20190827 (Red Hat 9.2.1-1)
REM options -cpp -mtune=generic -march=x86-64 -g -O0 -fpre-include=/usr/include/finclude/math-vector-fortran.h
REM seed 1545647646 -1471261943 2096811263 -1464358416 -1325891204 286224801 -893348888 1052722526 1564219781 -14530296 -1326288647 434333849 1315314748 44720455 -959191170 -532243147 354648241 -2089256842 677474250 1127548747 6769086 20345601 43187810 327404981 835684627 -465184204 1564451296 -518208620 -986252542 512714225 1785586831 -612888996 1782683550
REM
CELL 1.54180   50.00000   50.00000   50.00000   90.00000   90.00000   90.00000
LATT -1
SFAC C  
C      1  0.4374280000000  0.5122230000000  0.5792630000000 1.0
C      1  0.4992440000000  0.5581610000000  0.5692010000000 1.0
C      1  0.3918670000000  0.5087570000000  0.5025010000000 1.0
C      1  0.5121560000000  0.5278690000000  0.5607850000000 1.0
C      1  0.4350730000000  0.4906270000000  0.5186020000000 1.0
C      1  0.5869670000000  0.4465020000000  0.4829750000000 1.0
C      1  0.5141860000000  0.5082790000000  0.4212820000000 1.0
C      1  0.4174560000000  0.5041720000000  0.4973370000000 1.0
C      1  0.5634820000000  0.4619990000000  0.5436790000000 1.0
C      1  0.5542200000000  0.4949220000000  0.4513460000000 1.0
C      1  0.5162980000000  0.5854370000000  0.4879790000000 1.0
C      1  0.3936670000000  0.4738310000000  0.5604950000000 1.0
C      1  0.5609250000000  0.5143570000000  0.5529280000000 1.0
C      1  0.5170260000000  0.5394610000000  0.4347740000000 1.0
C      1  0.5824100000000  0.4937570000000  0.4642810000000 1.0
C      1  0.5094430000000  0.5105190000000  0.5901260000000 1.0
C      1  0.4375370000000  0.5426790000000  0.4700970000000 1.0
C      1  0.5139320000000  0.5618980000000  0.5399680000000 1.0
C      1  0.5303960000000  0.5171030000000  0.4568280000000 1.0
C      1  0.5031650000000  0.4835900000000  0.5851140000000 1.0
C      1  0.5380900000000  0.4577190000000  0.4890000000000 1.0
C      1  0.5738130000000  0.4887410000000  0.5434330000000 1.0
C      1  0.4807040000000  0.4230170000000  0.5352670000000 1.0
C      1  0.5568220000000  0.5386080000000  0.4359220000000 1.0
C      1  0.4635700000000  0.5227230000000  0.5824800000000 1.0
C      1  0.4273230000000  0.5108280000000  0.5521930000000 1.0
C      1  0.5770170000000  0.5097280000000  0.5167090000000 1.0
C      1  0.5324210000000  0.4272690000000  0.5488530000000 1.0
C      1  0.5055310000000  0.5003800000000  0.4601710000000 1.0
C      1  0.5375880000000  0.4848770000000  0.4234870000000 1.0
C      1  0.5299800000000  0.4216950000000  0.4740530000000 1.0
C      1  0.5368040000000  0.4552400000000  0.5550810000000 1.0
C      1  0.4799870000000  0.4401100000000  0.4470710000000 1.0
C      1  0.5593400000000  0.4377930000000  0.4709100000000 1.0
C      1  0.5786840000000  0.5260800000000  0.4873480000000 1.0
C      1  0.4668580000000  0.4760580000000  0.4824930000000 1.0
C      1  0.4340620000000  0.4379800000000  0.5026000000000 1.0
C      1  0.5113510000000  0.4718670000000  0.5543600000000 1.0
C      1  0.5210520000000  0.5296160000000  0.5075940000000 1.0
C      1  0.4757750000000  0.5697900000000  0.5519050000000 1.0
C      1  0.5269460000000  0.4542360000000  0.4328660000000 1.0
C      1  0.4840530000000  0.4603140000000  0.5810980000000 1.0
C      1  0.5468250000000  0.5175800000000  0.4194970000000 1.0
C      1  0.4954150000000  0.4727220000000  0.4758900000000 1.0
C      1  0.5290230000000  0.4116540000000  0.5024330000000 1.0
C      1  0.5345650000000  0.5791010000000  0.4617150000000 1.0
C      1  0.5457170000000  0.4642240000000  0.4565480000000 1.0
C      1  0.4516760000000  0.5554120000000  0.5535860000000 1.0
C      1  0.4901840000000  0.5362410000000  0.5927280000000 1.0
C      1  0.4779470000000  0.4563200000000  0.5272270000000 1.0
C      1  0.4561720000000  0.5539330000000  0.4440320000000 1.0
C      1  0.4375430000000  0.5334950000000  0.5384980000000 1.0
C      1  0.4454710000000  0.4824770000000  0.4318740000000 1.0
C      1  0.5309480000000  0.5214500000000  0.5394530000000 1.0
C      1  0.5418410000000  0.5645300000000  0.4907210000000 1.0
C      1  0.5374490000000  0.5645700000000  0.4354370000000 1.0
C      1  0.4832220000000  0.5141580000000  0.5603970000000 1.0
C      1  0.5670050000000  0.5324060000000  0.4615140000000 1.0
C      1  0.5566440000000  0.5439510000000  0.5600320000000 1.0
C      1  0.5021820000000  0.4098960000000  0.5121850000000 1.0
C      1  0.5093390000000  0.4333470000000  0.4531450000000 1.0
C      1  0.4319720000000  0.5057550000000  0.4384810000000 1.0
C      1  0.4478270000000  0.5490980000000  0.5143230000000 1.0
C      1  0.5782610000000  0.5433570000000  0.5138100000000 1.0
C      1  0.4292970000000  0.5122190000000  0.4706520000000 1.0
C      1  0.4278550000000  0.5561930000000  0.4949010000000 1.0
C      1  0.4414580000000  0.5292890000000  0.4255130000000 1.0
C      1  0.5089070000000  0.4560950000000  0.4962560000000 1.0
C      1  0.4585160000000  0.4265330000000  0.5096700000000 1.0
C      1  0.4754260000000  0.4689090000000  0.4293390000000 1.0
C      1  0.4874040000000  0.5495420000000  0.4308960000000 1.0
C      1  0.4547510000000  0.4828920000000  0.5454300000000 1.0
C      1  0.4870790000000  0.4316200000000  0.4971490000000 1.0
C      1  0.5710180000000  0.4376830000000  0.5272060000000 1.0
C      1  0.5586960000000  0.4770390000000  0.5024130000000 1.0
C      1  0.4564730000000  0.4975300000000  0.4687180000000 1.0
C      1  0.5574350000000  0.5621980000000  0.5162250000000 1.0
C      1  0.4809730000000  0.4877170000000  0.5521250000000 1.0
C      1  0.5136090000000  0.4982510000000  0.5126630000000 1.0
C      1  0.4717910000000  0.5425890000000  0.4721010000000 1.0
C      1  0.4550650000000  0.4327390000000  0.4585390000000 1.0
C      1  0.5429340000000  0.5606310000000  0.5406240000000 1.0
C      1  0.5039490000000  0.4721670000000  0.5233930000000 1.0
C      1  0.5469410000000  0.4195840000000  0.5242470000000 1.0
C      1  0.4208520000000  0.4538980000000  0.5225670000000 1.0
C      1  0.4750390000000  0.5486860000000  0.5031880000000 1.0
C      1  0.4830210000000  0.5849600000000  0.5294100000000 1.0
C      1  0.4773380000000  0.4459620000000  0.5595410000000 1.0
C      1  0.5392750000000  0.5340500000000  0.4827400000000 1.0
C      1  0.5917870000000  0.4342630000000  0.5081640000000 1.0
C      1  0.4326440000000  0.4375230000000  0.4740250000000 1.0
C      1  0.5389830000000  0.5808250000000  0.4127750000000 1.0
C      1  0.4576850000000  0.4697330000000  0.5081560000000 1.0
C      1  0.4037360000000  0.5687290000000  0.4983600000000 1.0
C      1  0.4970700000000  0.5899190000000  0.5069100000000 1.0
C      1  0.4849880000000  0.5014100000000  0.4256420000000 1.0
C      1  0.4149710000000  0.4802230000000  0.5435500000000 1.0
C      1  0.5001670000000  0.5509670000000  0.5161340000000 1.0
C      1  0.5458630000000  0.5001970000000  0.5175590000000 1.0
C      1  0.5036780000000  0.4719370000000  0.4446620000000 1.0
C      1  0.4700900000000  0.5276490000000  0.4177320000000 1.0
C      1  0.5833820000000  0.4758640000000  0.4866450000000 1.0
C      1  0.4779770000000  0.5152950000000  0.4561970000000 1.0
END
