TITL C-2778433-5640-737 -0.00308933885430637 125000 -292.550468350099 0 0 51 (C1) n - 1
REM
REM in /home/nfs/bkarasulu/CARBON/AIRSS/Generating-Clusters/REBO/Only-C1/SD-CG/HFTN-CG
REM
REM
REM
REM
REM
REM ./C.cell (11c1c37f851c82e70ff6c80c92926a4b)
REM
REM compiler GCC version 9.2.1 20190827 (Red Hat 9.2.1-1)
REM options -cpp -mtune=generic -march=x86-64 -g -O0 -fpre-include=/usr/include/finclude/math-vector-fortran.h
REM seed 776460157 1345669480 1701933942 50772361 1362415661 -1476580977 189905325 336601881 -132937642 -2021369867 1561982489 -24904844 1811806304 -651573214 689249165 -537715788 54587821 1252749834 1586285184 1416139192 196804801 1695176024 -134111985 -1685965489 -1323183556 900354981 1173847356 1448823901 -520120618 1190608805 1893574822 -1916104932 -110405560
REM
CELL 1.54180   50.00000   50.00000   50.00000   90.00000   90.00000   90.00000
LATT -1
SFAC C  
C      1  0.4923170000000  0.4317340000000  0.4717980000000 1.0
C      1  0.4973800000000  0.5172090000000  0.4240210000000 1.0
C      1  0.5440800000000  0.5323440000000  0.4473760000000 1.0
C      1  0.5513690000000  0.5356360000000  0.5631800000000 1.0
C      1  0.5572390000000  0.5139530000000  0.4803590000000 1.0
C      1  0.5324240000000  0.5479200000000  0.5161440000000 1.0
C      1  0.5718690000000  0.5339250000000  0.5800920000000 1.0
C      1  0.4795180000000  0.4675820000000  0.4349790000000 1.0
C      1  0.4893850000000  0.4612480000000  0.5208020000000 1.0
C      1  0.3828980000000  0.4602050000000  0.5172430000000 1.0
C      1  0.4937210000000  0.5450830000000  0.4801010000000 1.0
C      1  0.5195770000000  0.5080070000000  0.5707540000000 1.0
C      1  0.4899420000000  0.4785520000000  0.5449660000000 1.0
C      1  0.4837960000000  0.4289920000000  0.5284200000000 1.0
C      1  0.5046560000000  0.5659630000000  0.5188230000000 1.0
C      1  0.5321250000000  0.5039100000000  0.4869030000000 1.0
C      1  0.4924100000000  0.5253990000000  0.5058110000000 1.0
C      1  0.4615820000000  0.5430190000000  0.5241400000000 1.0
C      1  0.4686590000000  0.5353030000000  0.4614310000000 1.0
C      1  0.5122910000000  0.4775430000000  0.5628070000000 1.0
C      1  0.5218320000000  0.5171890000000  0.5130020000000 1.0
C      1  0.4566650000000  0.5138420000000  0.5306390000000 1.0
C      1  0.5920420000000  0.5322410000000  0.5967350000000 1.0
C      1  0.4276280000000  0.4764710000000  0.4919670000000 1.0
C      1  0.4915620000000  0.4773610000000  0.4930720000000 1.0
C      1  0.5151450000000  0.4836190000000  0.4781560000000 1.0
C      1  0.4368730000000  0.4659680000000  0.4668640000000 1.0
C      1  0.4991040000000  0.4895780000000  0.4261330000000 1.0
C      1  0.4604960000000  0.5278810000000  0.4936820000000 1.0
C      1  0.4857880000000  0.5523410000000  0.5356440000000 1.0
C      1  0.4962620000000  0.4458790000000  0.4483880000000 1.0
C      1  0.5464300000000  0.4816600000000  0.4534060000000 1.0
C      1  0.4684850000000  0.4899590000000  0.4847710000000 1.0
C      1  0.5424660000000  0.4946960000000  0.5243980000000 1.0
C      1  0.4892610000000  0.4354060000000  0.4984890000000 1.0
C      1  0.5573990000000  0.4740390000000  0.4786010000000 1.0
C      1  0.5199090000000  0.5479830000000  0.4582190000000 1.0
C      1  0.4046500000000  0.4681160000000  0.5049520000000 1.0
C      1  0.5569030000000  0.4788560000000  0.5056580000000 1.0
C      1  0.5518720000000  0.5069220000000  0.4414350000000 1.0
C      1  0.5399380000000  0.4902750000000  0.5521830000000 1.0
C      1  0.4786900000000  0.5042470000000  0.5449460000000 1.0
C      1  0.4998090000000  0.5287490000000  0.5536100000000 1.0
C      1  0.4618140000000  0.5051220000000  0.4593300000000 1.0
C      1  0.5309020000000  0.5373450000000  0.5462950000000 1.0
C      1  0.5203370000000  0.5632720000000  0.4886140000000 1.0
C      1  0.4454640000000  0.4989040000000  0.5047540000000 1.0
C      1  0.4938000000000  0.5382170000000  0.4411250000000 1.0
C      1  0.4782630000000  0.4109510000000  0.5475480000000 1.0
C      1  0.4561540000000  0.4775470000000  0.4488710000000 1.0
C      1  0.5168150000000  0.4718350000000  0.4483650000000 1.0
END
