TITL C-2778426-5645-934 0.00273778930992218 125000 -341.337553996635 0 0 59 (C1) n - 1
REM
REM in /home/nfs/bkarasulu/CARBON/AIRSS/Generating-Clusters/REBO/Only-C1/SD-CG/HFTN-CG
REM
REM
REM
REM
REM
REM ./C.cell (11c1c37f851c82e70ff6c80c92926a4b)
REM
REM compiler GCC version 9.2.1 20190827 (Red Hat 9.2.1-1)
REM options -cpp -mtune=generic -march=x86-64 -g -O0 -fpre-include=/usr/include/finclude/math-vector-fortran.h
REM seed -224625823 -213225243 -1264391686 2127903438 936929527 -224215594 -1844007663 1387441880 1361910496 -1745148721 1478491194 -1255703972 1672213534 610032937 -1487905296 -1109893097 -221460533 -726211189 -1048628150 -1543282135 696614724 -324948432 187581317 166964330 -330868884 766316910 357440298 1117930743 -1420080422 602216982 1662232975 -2067996678 508207015
REM
CELL 1.54180   50.00000   50.00000   50.00000   90.00000   90.00000   90.00000
LATT -1
SFAC C  
C      1  0.4797100000000  0.4772790000000  0.4928290000000 1.0
C      1  0.4934150000000  0.5555620000000  0.4892270000000 1.0
C      1  0.5198440000000  0.4818180000000  0.5743280000000 1.0
C      1  0.4243850000000  0.5210030000000  0.4745750000000 1.0
C      1  0.4709740000000  0.5056300000000  0.4951520000000 1.0
C      1  0.5181970000000  0.5712330000000  0.5265070000000 1.0
C      1  0.4919120000000  0.5314620000000  0.4282120000000 1.0
C      1  0.4589170000000  0.4649750000000  0.4338520000000 1.0
C      1  0.5447500000000  0.4621360000000  0.4691840000000 1.0
C      1  0.5142000000000  0.5135730000000  0.5162450000000 1.0
C      1  0.4893000000000  0.4630300000000  0.4230190000000 1.0
C      1  0.5381680000000  0.5082730000000  0.5667450000000 1.0
C      1  0.4344110000000  0.4730170000000  0.5086540000000 1.0
C      1  0.4715820000000  0.5527190000000  0.5127340000000 1.0
C      1  0.4455210000000  0.4513990000000  0.4623250000000 1.0
C      1  0.5129350000000  0.4981790000000  0.4853590000000 1.0
C      1  0.5672480000000  0.4963870000000  0.5043050000000 1.0
C      1  0.5145320000000  0.4668790000000  0.5512340000000 1.0
C      1  0.4717810000000  0.5238990000000  0.5524570000000 1.0
C      1  0.5167690000000  0.5232450000000  0.4193490000000 1.0
C      1  0.4888220000000  0.4894300000000  0.4634150000000 1.0
C      1  0.4547330000000  0.5379800000000  0.5336230000000 1.0
C      1  0.5603810000000  0.4799680000000  0.4823320000000 1.0
C      1  0.5195380000000  0.5610160000000  0.4996200000000 1.0
C      1  0.5134060000000  0.4808600000000  0.5140640000000 1.0
C      1  0.5916330000000  0.5403420000000  0.5131170000000 1.0
C      1  0.4662610000000  0.4907240000000  0.5479130000000 1.0
C      1  0.5233970000000  0.4465040000000  0.4629020000000 1.0
C      1  0.4749750000000  0.5233480000000  0.4474940000000 1.0
C      1  0.5392100000000  0.4659580000000  0.5286110000000 1.0
C      1  0.5424590000000  0.5466080000000  0.4933360000000 1.0
C      1  0.5097920000000  0.5191790000000  0.5820530000000 1.0
C      1  0.5056990000000  0.4785290000000  0.4392450000000 1.0
C      1  0.4738450000000  0.4401260000000  0.4519140000000 1.0
C      1  0.5249210000000  0.4367830000000  0.5271670000000 1.0
C      1  0.4692750000000  0.4882550000000  0.5799190000000 1.0
C      1  0.4412000000000  0.4917300000000  0.5287980000000 1.0
C      1  0.5257920000000  0.5252460000000  0.5416290000000 1.0
C      1  0.4341620000000  0.4707240000000  0.4802640000000 1.0
C      1  0.4962260000000  0.4406960000000  0.4691170000000 1.0
C      1  0.5436460000000  0.5104820000000  0.4088240000000 1.0
C      1  0.4416980000000  0.5415660000000  0.4803090000000 1.0
C      1  0.4885130000000  0.4506720000000  0.4955500000000 1.0
C      1  0.5528630000000  0.5250920000000  0.4730610000000 1.0
C      1  0.5137910000000  0.5527640000000  0.5473350000000 1.0
C      1  0.4955360000000  0.4928020000000  0.5904160000000 1.0
C      1  0.4856920000000  0.5241690000000  0.5125130000000 1.0
C      1  0.5289440000000  0.4975650000000  0.4366920000000 1.0
C      1  0.4721550000000  0.5341420000000  0.4763320000000 1.0
C      1  0.5351110000000  0.5056320000000  0.4650070000000 1.0
C      1  0.4341450000000  0.5195970000000  0.5249250000000 1.0
C      1  0.5619740000000  0.4852630000000  0.5295370000000 1.0
C      1  0.5700990000000  0.5281120000000  0.5013500000000 1.0
C      1  0.4994680000000  0.4362860000000  0.5171690000000 1.0
C      1  0.4889490000000  0.4745340000000  0.5356670000000 1.0
C      1  0.4591110000000  0.4952850000000  0.4478470000000 1.0
C      1  0.4948190000000  0.5359030000000  0.5644800000000 1.0
C      1  0.4346360000000  0.4959850000000  0.4666360000000 1.0
C      1  0.5645720000000  0.4984420000000  0.5535230000000 1.0
END
