TITL C-2778436-5916-1199 -0.220046522000895 125000 -975.807350847909 0 0 169 (C1) n - 1
REM
REM in /home/nfs/bkarasulu/CARBON/AIRSS/Generating-Clusters/REBO/Only-C1/SD-CG/HFTN-CG
REM
REM
REM
REM
REM
REM ./C.cell (11c1c37f851c82e70ff6c80c92926a4b)
REM
REM compiler GCC version 9.2.1 20190827 (Red Hat 9.2.1-1)
REM options -cpp -mtune=generic -march=x86-64 -g -O0 -fpre-include=/usr/include/finclude/math-vector-fortran.h
REM seed -883536016 -309584823 484539889 1207962091 -1629651704 -1475726803 -1097310718 1484439284 -1413300543 -627177489 1756280278 -1139916333 2016408392 -1528604405 977766983 -1186375128 -246641366 -855186625 -662185293 170336081 323045045 141209502 1373789714 1645654955 1108887409 1937271583 1408628252 1002058878 -1616912367 -740979648 -1218801360 -1955919318 2032072035
REM
CELL 1.54180   50.00000   50.00000   50.00000   90.00000   90.00000   90.00000
LATT -1
SFAC C  
C      1  0.4313740000000  0.5113220000000  0.4935080000000 1.0
C      1  0.4320040000000  0.4408850000000  0.4724820000000 1.0
C      1  0.3994970000000  0.4494520000000  0.5177180000000 1.0
C      1  0.4554250000000  0.5524220000000  0.5824800000000 1.0
C      1  0.4371190000000  0.4495940000000  0.5479610000000 1.0
C      1  0.4019470000000  0.5160160000000  0.4769580000000 1.0
C      1  0.5233250000000  0.4260380000000  0.4368800000000 1.0
C      1  0.5679810000000  0.5276520000000  0.4823580000000 1.0
C      1  0.4829080000000  0.5704880000000  0.5179920000000 1.0
C      1  0.5764220000000  0.4696730000000  0.5529630000000 1.0
C      1  0.4858250000000  0.4343310000000  0.5297420000000 1.0
C      1  0.5287730000000  0.5022580000000  0.5375760000000 1.0
C      1  0.4104760000000  0.5307420000000  0.5130320000000 1.0
C      1  0.4742040000000  0.4244670000000  0.4992580000000 1.0
C      1  0.4853320000000  0.6126830000000  0.4799480000000 1.0
C      1  0.4830100000000  0.5261140000000  0.4310550000000 1.0
C      1  0.4251530000000  0.4945090000000  0.5214020000000 1.0
C      1  0.5149390000000  0.5350930000000  0.3932660000000 1.0
C      1  0.5254620000000  0.5477170000000  0.4411600000000 1.0
C      1  0.5945860000000  0.5422290000000  0.4851970000000 1.0
C      1  0.5731250000000  0.5035150000000  0.5525320000000 1.0
C      1  0.5086760000000  0.5662720000000  0.5699450000000 1.0
C      1  0.4401290000000  0.4654170000000  0.5211110000000 1.0
C      1  0.4622180000000  0.4029670000000  0.5224260000000 1.0
C      1  0.4262170000000  0.5674930000000  0.5289090000000 1.0
C      1  0.4835230000000  0.5616950000000  0.5502350000000 1.0
C      1  0.4909420000000  0.5118590000000  0.4894260000000 1.0
C      1  0.4759200000000  0.5426220000000  0.4824910000000 1.0
C      1  0.4752600000000  0.4869140000000  0.4530660000000 1.0
C      1  0.4111080000000  0.4670440000000  0.4727840000000 1.0
C      1  0.5638540000000  0.4389190000000  0.4693270000000 1.0
C      1  0.4555370000000  0.5895680000000  0.5131180000000 1.0
C      1  0.4366010000000  0.4163290000000  0.5406350000000 1.0
C      1  0.5246230000000  0.4050640000000  0.4533380000000 1.0
C      1  0.4437400000000  0.4728590000000  0.4732330000000 1.0
C      1  0.5825580000000  0.4234220000000  0.4927510000000 1.0
C      1  0.5006720000000  0.4620050000000  0.5947070000000 1.0
C      1  0.5360830000000  0.5162990000000  0.5869700000000 1.0
C      1  0.5672230000000  0.4337800000000  0.5199630000000 1.0
C      1  0.5594500000000  0.4850980000000  0.5780110000000 1.0
C      1  0.5677840000000  0.5845930000000  0.5390760000000 1.0
C      1  0.4279910000000  0.5354690000000  0.5725720000000 1.0
C      1  0.5289380000000  0.4998160000000  0.4791520000000 1.0
C      1  0.4511050000000  0.5880240000000  0.4458680000000 1.0
C      1  0.5620810000000  0.5526810000000  0.5374760000000 1.0
C      1  0.4685110000000  0.4721550000000  0.5377500000000 1.0
C      1  0.4608890000000  0.4055830000000  0.5621260000000 1.0
C      1  0.4917110000000  0.4947960000000  0.5921200000000 1.0
C      1  0.4120940000000  0.5400360000000  0.5428010000000 1.0
C      1  0.5879540000000  0.5333510000000  0.5453810000000 1.0
C      1  0.4388800000000  0.5611630000000  0.4710990000000 1.0
C      1  0.5418530000000  0.4160760000000  0.5514050000000 1.0
C      1  0.4468140000000  0.4967480000000  0.5445950000000 1.0
C      1  0.4504370000000  0.5463000000000  0.5344060000000 1.0
C      1  0.4034910000000  0.4917680000000  0.4558440000000 1.0
C      1  0.5500590000000  0.4145310000000  0.4977000000000 1.0
C      1  0.4230140000000  0.5154830000000  0.4430780000000 1.0
C      1  0.5570730000000  0.4669350000000  0.5181200000000 1.0
C      1  0.3974980000000  0.4701180000000  0.5003710000000 1.0
C      1  0.4118400000000  0.5427610000000  0.4609760000000 1.0
C      1  0.5208770000000  0.6028580000000  0.4953740000000 1.0
C      1  0.4790950000000  0.4428570000000  0.4180070000000 1.0
C      1  0.4863630000000  0.3955660000000  0.5421740000000 1.0
C      1  0.5348020000000  0.4651330000000  0.5903650000000 1.0
C      1  0.5492800000000  0.5353450000000  0.5037540000000 1.0
C      1  0.4523980000000  0.5053710000000  0.4688780000000 1.0
C      1  0.4959730000000  0.4874980000000  0.4007710000000 1.0
C      1  0.6046790000000  0.4535740000000  0.5069010000000 1.0
C      1  0.5620800000000  0.5854710000000  0.4931370000000 1.0
C      1  0.4658030000000  0.4376820000000  0.5570680000000 1.0
C      1  0.4515620000000  0.5130290000000  0.3915080000000 1.0
C      1  0.5092900000000  0.5722340000000  0.4988730000000 1.0
C      1  0.5955650000000  0.4490670000000  0.4749610000000 1.0
C      1  0.5264890000000  0.5274700000000  0.5588840000000 1.0
C      1  0.5902420000000  0.4735950000000  0.5226730000000 1.0
C      1  0.4671130000000  0.5008210000000  0.5103240000000 1.0
C      1  0.5509020000000  0.4798880000000  0.4045530000000 1.0
C      1  0.6003380000000  0.4749250000000  0.4604890000000 1.0
C      1  0.5886550000000  0.4814430000000  0.4352540000000 1.0
C      1  0.4899980000000  0.4594850000000  0.4887360000000 1.0
C      1  0.4983530000000  0.4655820000000  0.5214040000000 1.0
C      1  0.4846230000000  0.5082780000000  0.5391480000000 1.0
C      1  0.4442830000000  0.3983590000000  0.4953400000000 1.0
C      1  0.5154130000000  0.4557160000000  0.4497550000000 1.0
C      1  0.4679980000000  0.5337390000000  0.5131650000000 1.0
C      1  0.5761510000000  0.5961800000000  0.5144720000000 1.0
C      1  0.5849110000000  0.4994760000000  0.5050480000000 1.0
C      1  0.5445640000000  0.4363140000000  0.5781770000000 1.0
C      1  0.4722560000000  0.5315740000000  0.5528040000000 1.0
C      1  0.5073820000000  0.4627160000000  0.5556030000000 1.0
C      1  0.4544830000000  0.5786470000000  0.5446800000000 1.0
C      1  0.5418800000000  0.5824230000000  0.5546510000000 1.0
C      1  0.5654810000000  0.4410740000000  0.5517770000000 1.0
C      1  0.5330320000000  0.4390630000000  0.4812070000000 1.0
C      1  0.4545390000000  0.5608660000000  0.4344100000000 1.0
C      1  0.5043530000000  0.5463930000000  0.4177920000000 1.0
C      1  0.5143510000000  0.5908030000000  0.5465740000000 1.0
C      1  0.5120890000000  0.4139980000000  0.5361760000000 1.0
C      1  0.5405790000000  0.4866850000000  0.4524680000000 1.0
C      1  0.5233090000000  0.5078800000000  0.3977560000000 1.0
C      1  0.5625290000000  0.5114510000000  0.4610940000000 1.0
C      1  0.5929820000000  0.5284030000000  0.5135170000000 1.0
C      1  0.5417790000000  0.5685030000000  0.5075500000000 1.0
C      1  0.5304380000000  0.4409850000000  0.5325960000000 1.0
C      1  0.4774900000000  0.5215370000000  0.5950060000000 1.0
C      1  0.4038980000000  0.4868430000000  0.5625020000000 1.0
C      1  0.4496220000000  0.5343580000000  0.4529210000000 1.0
C      1  0.3953090000000  0.5009740000000  0.5067220000000 1.0
C      1  0.4476000000000  0.4809580000000  0.3949370000000 1.0
C      1  0.5118410000000  0.4364580000000  0.5747620000000 1.0
C      1  0.4813390000000  0.4549840000000  0.4497660000000 1.0
C      1  0.5017050000000  0.4282190000000  0.4817930000000 1.0
C      1  0.4158370000000  0.4267310000000  0.5179630000000 1.0
C      1  0.4753280000000  0.4512580000000  0.5804400000000 1.0
C      1  0.5276100000000  0.4568260000000  0.5049730000000 1.0
C      1  0.5721520000000  0.5612010000000  0.4458180000000 1.0
C      1  0.5047590000000  0.4804060000000  0.4691170000000 1.0
C      1  0.5125360000000  0.3754750000000  0.4971900000000 1.0
C      1  0.5363230000000  0.4727710000000  0.5444880000000 1.0
C      1  0.6014780000000  0.4956020000000  0.4784040000000 1.0
C      1  0.5361230000000  0.6085330000000  0.4738040000000 1.0
C      1  0.5191150000000  0.5396440000000  0.4936250000000 1.0
C      1  0.5520490000000  0.4952390000000  0.4994790000000 1.0
C      1  0.5049520000000  0.6033670000000  0.5235950000000 1.0
C      1  0.4715290000000  0.5705140000000  0.4692650000000 1.0
C      1  0.4377730000000  0.5015410000000  0.4199890000000 1.0
C      1  0.5411440000000  0.5556120000000  0.5713140000000 1.0
C      1  0.5761630000000  0.5078770000000  0.4350980000000 1.0
C      1  0.4846590000000  0.5507590000000  0.5884670000000 1.0
C      1  0.5536610000000  0.5199960000000  0.5306810000000 1.0
C      1  0.4803770000000  0.6086610000000  0.5068810000000 1.0
C      1  0.4656990000000  0.4202510000000  0.4394070000000 1.0
C      1  0.5000640000000  0.5876660000000  0.4620960000000 1.0
C      1  0.4040550000000  0.5138350000000  0.5621530000000 1.0
C      1  0.4630260000000  0.4333650000000  0.4684030000000 1.0
C      1  0.4718150000000  0.4979850000000  0.4224250000000 1.0
C      1  0.5062220000000  0.4987560000000  0.5162370000000 1.0
C      1  0.5281670000000  0.5505080000000  0.5338350000000 1.0
C      1  0.5546710000000  0.5412620000000  0.4308900000000 1.0
C      1  0.4991820000000  0.5404810000000  0.5202150000000 1.0
C      1  0.4933130000000  0.4125150000000  0.5712620000000 1.0
C      1  0.5100100000000  0.4398020000000  0.4135480000000 1.0
C      1  0.4622350000000  0.4720560000000  0.4982830000000 1.0
C      1  0.4530980000000  0.5134960000000  0.5736560000000 1.0
C      1  0.4881290000000  0.5242830000000  0.4589460000000 1.0
C      1  0.4717970000000  0.5308810000000  0.3986890000000 1.0
C      1  0.5656990000000  0.5161060000000  0.5896940000000 1.0
C      1  0.4734310000000  0.6061750000000  0.4514950000000 1.0
C      1  0.5183670000000  0.5280760000000  0.4653920000000 1.0
C      1  0.5543420000000  0.5132690000000  0.4113340000000 1.0
C      1  0.5968220000000  0.5554450000000  0.4596160000000 1.0
C      1  0.5707150000000  0.5402190000000  0.5739320000000 1.0
C      1  0.5492650000000  0.4552660000000  0.4483120000000 1.0
C      1  0.5208300000000  0.4664830000000  0.4042110000000 1.0
C      1  0.4068390000000  0.5535230000000  0.4927940000000 1.0
C      1  0.4440210000000  0.4828270000000  0.5852950000000 1.0
C      1  0.4706790000000  0.5586280000000  0.4118960000000 1.0
C      1  0.4295420000000  0.5775210000000  0.4978410000000 1.0
C      1  0.5557020000000  0.5838430000000  0.4608490000000 1.0
C      1  0.5253230000000  0.5758210000000  0.4537340000000 1.0
C      1  0.5681950000000  0.4641310000000  0.4245270000000 1.0
C      1  0.4253330000000  0.4183800000000  0.4924650000000 1.0
C      1  0.5253490000000  0.4912190000000  0.4273170000000 1.0
C      1  0.5224370000000  0.4946940000000  0.5974770000000 1.0
C      1  0.4257100000000  0.4694650000000  0.5689170000000 1.0
C      1  0.4871120000000  0.4850940000000  0.5626630000000 1.0
C      1  0.5041140000000  0.3536630000000  0.5074170000000 1.0
C      1  0.4713660000000  0.4658800000000  0.3989510000000 1.0
C      1  0.5224540000000  0.4011580000000  0.4851470000000 1.0
END
