TITL C-2778427-5640-705 0.00461443800359044 125000 -574.944844197545 0 0 100 (C1) n - 1
REM
REM in /home/nfs/bkarasulu/CARBON/AIRSS/Generating-Clusters/REBO/Only-C1/SD-CG/HFTN-CG
REM
REM
REM
REM
REM
REM ./C.cell (11c1c37f851c82e70ff6c80c92926a4b)
REM
REM compiler GCC version 9.2.1 20190827 (Red Hat 9.2.1-1)
REM options -cpp -mtune=generic -march=x86-64 -g -O0 -fpre-include=/usr/include/finclude/math-vector-fortran.h
REM seed 2045859864 1171544535 -77628063 1042230272 -179258254 1089167314 1514229757 -596635011 -521816860 1645772707 1700605079 1708130787 -1253937163 -25952610 -117794124 -1832535661 139142682 1991955872 1795229583 -1715774449 -1469157000 -1091451509 868573871 -621328034 -1091614614 1959097408 168167701 1955809703 907596880 946558554 692035806 -762765785 1929304807
REM
CELL 1.54180   50.00000   50.00000   50.00000   90.00000   90.00000   90.00000
LATT -1
SFAC C  
C      1  0.4835200000000  0.5477510000000  0.5421270000000 1.0
C      1  0.4769650000000  0.5154880000000  0.5517450000000 1.0
C      1  0.5087050000000  0.5043850000000  0.5341220000000 1.0
C      1  0.5130960000000  0.4520850000000  0.5395140000000 1.0
C      1  0.4372070000000  0.5288490000000  0.5089040000000 1.0
C      1  0.5670560000000  0.4545290000000  0.4556100000000 1.0
C      1  0.5285340000000  0.4932220000000  0.4668900000000 1.0
C      1  0.5356840000000  0.4987600000000  0.5752720000000 1.0
C      1  0.4656020000000  0.5162080000000  0.4995190000000 1.0
C      1  0.5052160000000  0.5836280000000  0.4931940000000 1.0
C      1  0.5277820000000  0.4288790000000  0.5016290000000 1.0
C      1  0.5078800000000  0.4508870000000  0.4476930000000 1.0
C      1  0.5134070000000  0.4961970000000  0.5037290000000 1.0
C      1  0.4881500000000  0.4730870000000  0.5777230000000 1.0
C      1  0.4684640000000  0.5575020000000  0.5153370000000 1.0
C      1  0.5199330000000  0.4699530000000  0.5795750000000 1.0
C      1  0.5435390000000  0.4724740000000  0.5548730000000 1.0
C      1  0.5227140000000  0.4677330000000  0.4263560000000 1.0
C      1  0.4712470000000  0.5259140000000  0.4613340000000 1.0
C      1  0.4466650000000  0.4642330000000  0.4555110000000 1.0
C      1  0.4375040000000  0.5186270000000  0.4607550000000 1.0
C      1  0.5692840000000  0.5079600000000  0.5354560000000 1.0
C      1  0.4575840000000  0.4323280000000  0.4621690000000 1.0
C      1  0.5420890000000  0.4186920000000  0.5245510000000 1.0
C      1  0.4837060000000  0.4895480000000  0.4885440000000 1.0
C      1  0.4488200000000  0.4535940000000  0.5544140000000 1.0
C      1  0.5123630000000  0.5569500000000  0.5401840000000 1.0
C      1  0.4815450000000  0.5838040000000  0.5251330000000 1.0
C      1  0.4952040000000  0.5396810000000  0.4057130000000 1.0
C      1  0.5368560000000  0.4600820000000  0.4953160000000 1.0
C      1  0.5374830000000  0.5777580000000  0.5022250000000 1.0
C      1  0.5139450000000  0.4668520000000  0.4754900000000 1.0
C      1  0.4947390000000  0.4276850000000  0.5703560000000 1.0
C      1  0.4110690000000  0.4805160000000  0.4988590000000 1.0
C      1  0.5686560000000  0.4511620000000  0.5184320000000 1.0
C      1  0.5755410000000  0.4839170000000  0.5120980000000 1.0
C      1  0.4288830000000  0.4675450000000  0.4820260000000 1.0
C      1  0.5339010000000  0.5702350000000  0.4691110000000 1.0
C      1  0.5124460000000  0.5503850000000  0.4865030000000 1.0
C      1  0.5640390000000  0.4696700000000  0.4833180000000 1.0
C      1  0.4978760000000  0.5128400000000  0.4084310000000 1.0
C      1  0.5255290000000  0.4391260000000  0.5669370000000 1.0
C      1  0.5521630000000  0.5158860000000  0.5078720000000 1.0
C      1  0.4971840000000  0.4788060000000  0.5479810000000 1.0
C      1  0.5287780000000  0.5350290000000  0.5231890000000 1.0
C      1  0.5422410000000  0.5206640000000  0.4242770000000 1.0
C      1  0.5010930000000  0.5186780000000  0.4533340000000 1.0
C      1  0.4634950000000  0.5662640000000  0.4644440000000 1.0
C      1  0.5191770000000  0.5199090000000  0.4818160000000 1.0
C      1  0.5548680000000  0.5465650000000  0.4620130000000 1.0
C      1  0.4880140000000  0.5601360000000  0.4238390000000 1.0
C      1  0.5552420000000  0.5551220000000  0.5136370000000 1.0
C      1  0.4286360000000  0.4743530000000  0.5419530000000 1.0
C      1  0.4528110000000  0.4946310000000  0.4445790000000 1.0
C      1  0.4523020000000  0.5268160000000  0.4326050000000 1.0
C      1  0.5627330000000  0.5408620000000  0.5429380000000 1.0
C      1  0.5132410000000  0.5846950000000  0.5252910000000 1.0
C      1  0.4448530000000  0.5320310000000  0.5688870000000 1.0
C      1  0.4629120000000  0.5564030000000  0.4370290000000 1.0
C      1  0.5377670000000  0.5102860000000  0.5446770000000 1.0
C      1  0.5377250000000  0.5470720000000  0.5600620000000 1.0
C      1  0.5680150000000  0.4326990000000  0.4977840000000 1.0
C      1  0.5404840000000  0.4932450000000  0.4384880000000 1.0
C      1  0.5317060000000  0.4742300000000  0.5228150000000 1.0
C      1  0.4719940000000  0.4294030000000  0.5552210000000 1.0
C      1  0.5681660000000  0.5389390000000  0.4897640000000 1.0
C      1  0.5262280000000  0.5399060000000  0.4446020000000 1.0
C      1  0.4684730000000  0.5488090000000  0.5716820000000 1.0
C      1  0.4809200000000  0.4844690000000  0.4579610000000 1.0
C      1  0.4826820000000  0.5412500000000  0.4890440000000 1.0
C      1  0.4148100000000  0.5273790000000  0.4759920000000 1.0
C      1  0.5221620000000  0.4278690000000  0.4683620000000 1.0
C      1  0.4178420000000  0.5534790000000  0.4840640000000 1.0
C      1  0.4597020000000  0.4749560000000  0.5764830000000 1.0
C      1  0.5762230000000  0.5056060000000  0.4852940000000 1.0
C      1  0.5560410000000  0.4655560000000  0.4324900000000 1.0
C      1  0.4981590000000  0.4388660000000  0.5131190000000 1.0
C      1  0.5517620000000  0.4421720000000  0.5453010000000 1.0
C      1  0.4526420000000  0.4415510000000  0.5225770000000 1.0
C      1  0.4957880000000  0.5309910000000  0.5761400000000 1.0
C      1  0.5100360000000  0.5689470000000  0.4446520000000 1.0
C      1  0.4772640000000  0.4530890000000  0.4448830000000 1.0
C      1  0.4541760000000  0.4491810000000  0.4917990000000 1.0
C      1  0.4471170000000  0.5590650000000  0.4906530000000 1.0
C      1  0.4114210000000  0.5089960000000  0.4986440000000 1.0
C      1  0.4872720000000  0.4480230000000  0.4831400000000 1.0
C      1  0.5548600000000  0.4324420000000  0.4724500000000 1.0
C      1  0.4892560000000  0.4199880000000  0.4639860000000 1.0
C      1  0.5767730000000  0.5216310000000  0.4555570000000 1.0
C      1  0.4531230000000  0.5021150000000  0.5730950000000 1.0
C      1  0.5708390000000  0.5173640000000  0.4287360000000 1.0
C      1  0.5011290000000  0.4926990000000  0.4327900000000 1.0
C      1  0.4757810000000  0.4210010000000  0.5266350000000 1.0
C      1  0.4894630000000  0.5773380000000  0.4680530000000 1.0
C      1  0.4339250000000  0.5278310000000  0.5414010000000 1.0
C      1  0.4407330000000  0.4988360000000  0.5352930000000 1.0
C      1  0.4075540000000  0.4683020000000  0.5244100000000 1.0
C      1  0.4857280000000  0.4707190000000  0.5169740000000 1.0
C      1  0.5237030000000  0.5283050000000  0.5773240000000 1.0
C      1  0.4703830000000  0.4978250000000  0.5252420000000 1.0
END
