TITL C-2778431-5191-180 0.000392454934942522 125000 -728.957420402744 0 0 123 (C1) n - 1
REM
REM in /home/nfs/bkarasulu/CARBON/AIRSS/Generating-Clusters/REBO/Only-C1/SD-CG/HFTN-CG
REM
REM
REM
REM
REM
REM ./C.cell (11c1c37f851c82e70ff6c80c92926a4b)
REM
REM compiler GCC version 9.2.1 20190827 (Red Hat 9.2.1-1)
REM options -cpp -mtune=generic -march=x86-64 -g -O0 -fpre-include=/usr/include/finclude/math-vector-fortran.h
REM seed 1492539029 1352899587 8030675 1910649076 1198179129 1603696364 393987382 477485601 -1413995553 -289034901 -1922140173 -1862584235 -1909872746 99087226 2108490988 -1362762532 -862109415 -940222480 -183261022 1856942130 -907657643 747056027 -2040747857 -1425237184 -1539250696 -1771222599 -1765857630 -433303954 -1095139743 -471518074 1276885075 -214266674 90866048
REM
CELL 1.54180   50.00000   50.00000   50.00000   90.00000   90.00000   90.00000
LATT -1
SFAC C  
C      1  0.5356250000000  0.5699870000000  0.5283670000000 1.0
C      1  0.5593680000000  0.5291600000000  0.4447920000000 1.0
C      1  0.4737450000000  0.5896080000000  0.5190120000000 1.0
C      1  0.5254210000000  0.4363540000000  0.5658350000000 1.0
C      1  0.4372920000000  0.4822020000000  0.5649680000000 1.0
C      1  0.5592190000000  0.5039750000000  0.5734280000000 1.0
C      1  0.5608730000000  0.4642320000000  0.4854530000000 1.0
C      1  0.5527280000000  0.4333780000000  0.4743000000000 1.0
C      1  0.5192320000000  0.5946080000000  0.5332100000000 1.0
C      1  0.4253820000000  0.5208000000000  0.4671830000000 1.0
C      1  0.5057190000000  0.4336170000000  0.5206360000000 1.0
C      1  0.4636260000000  0.4254750000000  0.5497210000000 1.0
C      1  0.5790480000000  0.5623920000000  0.4890450000000 1.0
C      1  0.5886990000000  0.5001360000000  0.4957280000000 1.0
C      1  0.4294910000000  0.4628110000000  0.5102300000000 1.0
C      1  0.5139530000000  0.4550590000000  0.4989810000000 1.0
C      1  0.5592840000000  0.5398240000000  0.4727480000000 1.0
C      1  0.4756820000000  0.4227790000000  0.5190550000000 1.0
C      1  0.5480370000000  0.5700030000000  0.4972060000000 1.0
C      1  0.4760210000000  0.4666800000000  0.4952350000000 1.0
C      1  0.5945670000000  0.5486460000000  0.5154120000000 1.0
C      1  0.5096230000000  0.4651680000000  0.4667580000000 1.0
C      1  0.5233050000000  0.5165600000000  0.5333620000000 1.0
C      1  0.4358670000000  0.4531710000000  0.4780710000000 1.0
C      1  0.4962610000000  0.4751460000000  0.5286190000000 1.0
C      1  0.4819570000000  0.4447130000000  0.5709560000000 1.0
C      1  0.5764180000000  0.4924710000000  0.5207100000000 1.0
C      1  0.5005260000000  0.5271430000000  0.5135090000000 1.0
C      1  0.4541180000000  0.4638940000000  0.5496930000000 1.0
C      1  0.4702350000000  0.5317350000000  0.4212680000000 1.0
C      1  0.5097280000000  0.5516400000000  0.5655660000000 1.0
C      1  0.4797950000000  0.4111370000000  0.4372930000000 1.0
C      1  0.4383340000000  0.4356930000000  0.5290830000000 1.0
C      1  0.5459600000000  0.4993560000000  0.5206640000000 1.0
C      1  0.3964050000000  0.4997060000000  0.5186880000000 1.0
C      1  0.5078830000000  0.4462690000000  0.4189350000000 1.0
C      1  0.4682460000000  0.5235070000000  0.5820230000000 1.0
C      1  0.5467300000000  0.4779530000000  0.4099440000000 1.0
C      1  0.4960740000000  0.5232400000000  0.4038000000000 1.0
C      1  0.4244330000000  0.5489880000000  0.4722420000000 1.0
C      1  0.4605140000000  0.5088220000000  0.5397680000000 1.0
C      1  0.4306960000000  0.5702650000000  0.5249350000000 1.0
C      1  0.5299800000000  0.5089260000000  0.5823050000000 1.0
C      1  0.5073670000000  0.4641610000000  0.5578060000000 1.0
C      1  0.4406700000000  0.5629940000000  0.5542440000000 1.0
C      1  0.4808950000000  0.4933650000000  0.5529050000000 1.0
C      1  0.5016890000000  0.5801190000000  0.5101070000000 1.0
C      1  0.4669480000000  0.4394000000000  0.4411480000000 1.0
C      1  0.4420710000000  0.4272380000000  0.4980420000000 1.0
C      1  0.5395100000000  0.4564510000000  0.4530660000000 1.0
C      1  0.5270490000000  0.4587710000000  0.4025280000000 1.0
C      1  0.4882820000000  0.4201820000000  0.4686950000000 1.0
C      1  0.4733830000000  0.5027760000000  0.4636610000000 1.0
C      1  0.4886680000000  0.4793110000000  0.4502870000000 1.0
C      1  0.4211120000000  0.5439420000000  0.5131470000000 1.0
C      1  0.4827660000000  0.5557500000000  0.4715070000000 1.0
C      1  0.4259120000000  0.4739210000000  0.4577220000000 1.0
C      1  0.5804110000000  0.4859000000000  0.4472640000000 1.0
C      1  0.4889050000000  0.4978560000000  0.5917800000000 1.0
C      1  0.5372100000000  0.4604390000000  0.5840130000000 1.0
C      1  0.4648540000000  0.4955780000000  0.4918950000000 1.0
C      1  0.5832800000000  0.4814120000000  0.4753520000000 1.0
C      1  0.4639440000000  0.5559340000000  0.5725060000000 1.0
C      1  0.5024120000000  0.5273880000000  0.5813760000000 1.0
C      1  0.5565470000000  0.4427120000000  0.5540520000000 1.0
C      1  0.4396430000000  0.5093300000000  0.5737650000000 1.0
C      1  0.5186200000000  0.4812130000000  0.5921290000000 1.0
C      1  0.4481860000000  0.5152650000000  0.4501820000000 1.0
C      1  0.5095490000000  0.4214000000000  0.4350050000000 1.0
C      1  0.4465290000000  0.5086910000000  0.4204380000000 1.0
C      1  0.5352500000000  0.4830210000000  0.4750190000000 1.0
C      1  0.5715510000000  0.5229560000000  0.5587710000000 1.0
C      1  0.4721420000000  0.5182260000000  0.5111970000000 1.0
C      1  0.5428450000000  0.4681560000000  0.5112500000000 1.0
C      1  0.4500560000000  0.5820210000000  0.5069730000000 1.0
C      1  0.4722810000000  0.4552140000000  0.5245500000000 1.0
C      1  0.5310470000000  0.5779210000000  0.4731940000000 1.0
C      1  0.5287040000000  0.5713010000000  0.4433850000000 1.0
C      1  0.5373800000000  0.4411840000000  0.5280480000000 1.0
C      1  0.5873120000000  0.5291420000000  0.4890840000000 1.0
C      1  0.5032290000000  0.4871980000000  0.4994240000000 1.0
C      1  0.4671260000000  0.4467960000000  0.4731330000000 1.0
C      1  0.5745910000000  0.5380770000000  0.5358490000000 1.0
C      1  0.4189370000000  0.5182180000000  0.5292530000000 1.0
C      1  0.4404410000000  0.4945180000000  0.5162730000000 1.0
C      1  0.5130360000000  0.4981070000000  0.5563740000000 1.0
C      1  0.4676380000000  0.4117200000000  0.4917880000000 1.0
C      1  0.4346960000000  0.4825080000000  0.4317270000000 1.0
C      1  0.5222520000000  0.4202040000000  0.4658700000000 1.0
C      1  0.5267960000000  0.5472140000000  0.5430630000000 1.0
C      1  0.5596150000000  0.4708650000000  0.4343100000000 1.0
C      1  0.5398630000000  0.5056250000000  0.4052830000000 1.0
C      1  0.5558330000000  0.5400010000000  0.5123920000000 1.0
C      1  0.4523130000000  0.5682420000000  0.4784920000000 1.0
C      1  0.4215360000000  0.5244290000000  0.5596240000000 1.0
C      1  0.4564230000000  0.5748140000000  0.4449180000000 1.0
C      1  0.4902280000000  0.5916090000000  0.5463510000000 1.0
C      1  0.5052690000000  0.5528010000000  0.4958850000000 1.0
C      1  0.5771760000000  0.4416890000000  0.5266120000000 1.0
C      1  0.5040160000000  0.5691240000000  0.4309060000000 1.0
C      1  0.4762610000000  0.5628930000000  0.4292830000000 1.0
C      1  0.4521750000000  0.5421630000000  0.5063760000000 1.0
C      1  0.5324820000000  0.4035910000000  0.4915000000000 1.0
C      1  0.4880110000000  0.5696930000000  0.5651070000000 1.0
C      1  0.4738920000000  0.4737250000000  0.5774380000000 1.0
C      1  0.5019410000000  0.5831210000000  0.4704420000000 1.0
C      1  0.4136500000000  0.4947110000000  0.4738770000000 1.0
C      1  0.5367840000000  0.5236790000000  0.4293260000000 1.0
C      1  0.4518690000000  0.5392050000000  0.5382700000000 1.0
C      1  0.5085610000000  0.5293900000000  0.4315100000000 1.0
C      1  0.5719400000000  0.4300590000000  0.5023130000000 1.0
C      1  0.5820830000000  0.5130610000000  0.4389360000000 1.0
C      1  0.4060580000000  0.4833640000000  0.4992610000000 1.0
C      1  0.5165390000000  0.5108680000000  0.3883830000000 1.0
C      1  0.4270040000000  0.5674920000000  0.4479180000000 1.0
C      1  0.5803700000000  0.4702390000000  0.5382950000000 1.0
C      1  0.5384570000000  0.4118090000000  0.5141220000000 1.0
C      1  0.5278690000000  0.5050870000000  0.4946670000000 1.0
C      1  0.4843300000000  0.5318270000000  0.4529500000000 1.0
C      1  0.4984510000000  0.4244480000000  0.5514410000000 1.0
C      1  0.5642790000000  0.4729760000000  0.5679470000000 1.0
C      1  0.5315640000000  0.5345520000000  0.4895140000000 1.0
C      1  0.4833380000000  0.4604170000000  0.4287690000000 1.0
END
