TITL C-2778427-5640-1428 -0.00017707602677158 125000 -324.470935076887 0 0 59 (C1) n - 1
REM
REM in /home/nfs/bkarasulu/CARBON/AIRSS/Generating-Clusters/REBO/Only-C1/SD-CG/HFTN-CG
REM
REM
REM
REM
REM
REM ./C.cell (11c1c37f851c82e70ff6c80c92926a4b)
REM
REM compiler GCC version 9.2.1 20190827 (Red Hat 9.2.1-1)
REM options -cpp -mtune=generic -march=x86-64 -g -O0 -fpre-include=/usr/include/finclude/math-vector-fortran.h
REM seed 621182361 -183541326 1077334362 -1350970953 -299852379 -1968071947 1688160209 -728191551 -1504637419 -255162792 1739257501 -1385471116 592247151 236160280 -1809832027 -1569252460 -45823045 -827446512 654953260 -507790834 163415643 1311469397 929047517 361463797 967480773 1349087530 129886170 408411921 171128350 -1607318403 -1808449839 1734635644 1764658337
REM
CELL 1.54180   50.00000   50.00000   50.00000   90.00000   90.00000   90.00000
LATT -1
SFAC C  
C      1  0.5193370000000  0.4847700000000  0.4426610000000 1.0
C      1  0.5420490000000  0.4653440000000  0.4505570000000 1.0
C      1  0.4775230000000  0.5749840000000  0.4917020000000 1.0
C      1  0.5392970000000  0.4931040000000  0.5310910000000 1.0
C      1  0.4611660000000  0.5465750000000  0.5323640000000 1.0
C      1  0.5177290000000  0.5474970000000  0.5227400000000 1.0
C      1  0.4333040000000  0.4694450000000  0.4886150000000 1.0
C      1  0.5680590000000  0.5035030000000  0.4747950000000 1.0
C      1  0.5255130000000  0.5170950000000  0.5135800000000 1.0
C      1  0.4105820000000  0.4682670000000  0.5121700000000 1.0
C      1  0.5158220000000  0.5071010000000  0.4877130000000 1.0
C      1  0.4657460000000  0.5223680000000  0.5430620000000 1.0
C      1  0.5416860000000  0.5456350000000  0.4788820000000 1.0
C      1  0.5576970000000  0.4513480000000  0.5052360000000 1.0
C      1  0.5023710000000  0.4912440000000  0.5667630000000 1.0
C      1  0.5483760000000  0.4669250000000  0.5339120000000 1.0
C      1  0.5589140000000  0.5168040000000  0.5198530000000 1.0
C      1  0.5546690000000  0.4501860000000  0.4759160000000 1.0
C      1  0.5435600000000  0.4573350000000  0.5600500000000 1.0
C      1  0.4743630000000  0.4652400000000  0.5314800000000 1.0
C      1  0.4726540000000  0.5299400000000  0.4710360000000 1.0
C      1  0.5400960000000  0.5314650000000  0.5657700000000 1.0
C      1  0.4278760000000  0.5283160000000  0.4743180000000 1.0
C      1  0.5170200000000  0.5398590000000  0.4620350000000 1.0
C      1  0.5292890000000  0.5076620000000  0.5743650000000 1.0
C      1  0.4904300000000  0.5585310000000  0.4728390000000 1.0
C      1  0.5285270000000  0.4749370000000  0.5765740000000 1.0
C      1  0.5445040000000  0.5510820000000  0.5051990000000 1.0
C      1  0.4728870000000  0.4232460000000  0.5552030000000 1.0
C      1  0.4892080000000  0.5439150000000  0.4425490000000 1.0
C      1  0.5357980000000  0.5017460000000  0.4657290000000 1.0
C      1  0.5545470000000  0.5436120000000  0.5372300000000 1.0
C      1  0.4513260000000  0.4695480000000  0.4602080000000 1.0
C      1  0.4495880000000  0.4637390000000  0.5179290000000 1.0
C      1  0.5049010000000  0.5136440000000  0.4436570000000 1.0
C      1  0.4706890000000  0.4617150000000  0.4391680000000 1.0
C      1  0.5798700000000  0.4744560000000  0.5104590000000 1.0
C      1  0.5634540000000  0.5411880000000  0.4330900000000 1.0
C      1  0.4136840000000  0.5075550000000  0.5053660000000 1.0
C      1  0.4540430000000  0.4972760000000  0.4315390000000 1.0
C      1  0.4941750000000  0.4678050000000  0.4342980000000 1.0
C      1  0.4460360000000  0.4955970000000  0.5415840000000 1.0
C      1  0.4545830000000  0.5605830000000  0.5053390000000 1.0
C      1  0.5241690000000  0.5543510000000  0.5511600000000 1.0
C      1  0.5583450000000  0.5220400000000  0.4512100000000 1.0
C      1  0.4869240000000  0.4405990000000  0.5394430000000 1.0
C      1  0.5632160000000  0.4413670000000  0.4459730000000 1.0
C      1  0.4248930000000  0.4713280000000  0.5381540000000 1.0
C      1  0.4355980000000  0.4995570000000  0.4728880000000 1.0
C      1  0.4402430000000  0.5100820000000  0.5135620000000 1.0
C      1  0.4719860000000  0.5088880000000  0.4462820000000 1.0
C      1  0.4591400000000  0.5247430000000  0.4989770000000 1.0
C      1  0.4314840000000  0.5503270000000  0.4858530000000 1.0
C      1  0.4909230000000  0.4977850000000  0.4862320000000 1.0
C      1  0.5123470000000  0.4335110000000  0.5303010000000 1.0
C      1  0.5366550000000  0.4316420000000  0.5195040000000 1.0
C      1  0.4667290000000  0.4898850000000  0.4810610000000 1.0
C      1  0.5754440000000  0.5000770000000  0.5011840000000 1.0
C      1  0.4789520000000  0.4916290000000  0.5495870000000 1.0
END
