TITL C-2778425-5191-479 -0.000467778592260814 125000 -226.729200453935 0 0 40 (C1) n - 1
REM
REM in /home/nfs/bkarasulu/CARBON/AIRSS/Generating-Clusters/REBO/Only-C1/SD-CG/HFTN-CG
REM
REM
REM
REM
REM
REM ./C.cell (11c1c37f851c82e70ff6c80c92926a4b)
REM
REM compiler GCC version 9.2.1 20190827 (Red Hat 9.2.1-1)
REM options -cpp -mtune=generic -march=x86-64 -g -O0 -fpre-include=/usr/include/finclude/math-vector-fortran.h
REM seed -1531930574 839937862 745590284 1436069500 -2050357061 365871642 63914077 -820728459 1664111426 705931813 -781048061 1438085770 856402442 591528929 -272321318 774621375 -806874923 814267532 563796308 -25925467 -386103217 -661714183 -1507033995 -765709977 375874990 1989447219 -789318366 -902430431 1334322245 2068315613 -1525691400 -1239462033 559603137
REM
CELL 1.54180   50.00000   50.00000   50.00000   90.00000   90.00000   90.00000
LATT -1
SFAC C  
C      1  0.5492950000000  0.5243230000000  0.5056330000000 1.0
C      1  0.5002210000000  0.4808410000000  0.4604490000000 1.0
C      1  0.4492470000000  0.4576410000000  0.5373240000000 1.0
C      1  0.4410570000000  0.4840060000000  0.5373040000000 1.0
C      1  0.4295820000000  0.5122410000000  0.3869960000000 1.0
C      1  0.4223410000000  0.5205440000000  0.4696690000000 1.0
C      1  0.5782370000000  0.4871640000000  0.4548780000000 1.0
C      1  0.4298960000000  0.5154060000000  0.4436050000000 1.0
C      1  0.4910480000000  0.4358160000000  0.5509930000000 1.0
C      1  0.4330300000000  0.5110620000000  0.5211250000000 1.0
C      1  0.4824040000000  0.5195220000000  0.5489370000000 1.0
C      1  0.4237050000000  0.5195090000000  0.4966300000000 1.0
C      1  0.5528810000000  0.4809550000000  0.4639760000000 1.0
C      1  0.5305650000000  0.4678930000000  0.5537700000000 1.0
C      1  0.5003560000000  0.5314530000000  0.5028550000000 1.0
C      1  0.4741510000000  0.4943470000000  0.4557020000000 1.0
C      1  0.5587220000000  0.5702910000000  0.4962230000000 1.0
C      1  0.5148320000000  0.4464830000000  0.5587370000000 1.0
C      1  0.5208500000000  0.4877730000000  0.4869440000000 1.0
C      1  0.4728290000000  0.4434780000000  0.5307010000000 1.0
C      1  0.5021430000000  0.5398660000000  0.5319070000000 1.0
C      1  0.5301610000000  0.4806710000000  0.4487710000000 1.0
C      1  0.5073100000000  0.5661380000000  0.5380890000000 1.0
C      1  0.4841740000000  0.4488980000000  0.5054750000000 1.0
C      1  0.4576570000000  0.5012130000000  0.4348860000000 1.0
C      1  0.4365220000000  0.5103520000000  0.4123950000000 1.0
C      1  0.5888530000000  0.5450330000000  0.5235920000000 1.0
C      1  0.6107420000000  0.5433720000000  0.5379070000000 1.0
C      1  0.5328540000000  0.4929400000000  0.5411270000000 1.0
C      1  0.5493990000000  0.4734200000000  0.4947820000000 1.0
C      1  0.5137700000000  0.5125490000000  0.5472690000000 1.0
C      1  0.4627060000000  0.5019710000000  0.4812230000000 1.0
C      1  0.4975730000000  0.4636150000000  0.4886670000000 1.0
C      1  0.5654900000000  0.5468070000000  0.5083130000000 1.0
C      1  0.4442700000000  0.4854690000000  0.4925340000000 1.0
C      1  0.4572370000000  0.5111210000000  0.5432150000000 1.0
C      1  0.5226350000000  0.5170930000000  0.4940830000000 1.0
C      1  0.5479320000000  0.4963110000000  0.5170110000000 1.0
C      1  0.5581320000000  0.4485470000000  0.5028340000000 1.0
C      1  0.4751910000000  0.5238650000000  0.4934700000000 1.0
END
