TITL C-2778430-5657-80 -0.000763032400258932 125000 -523.340788827624 0 0 91 (C1) n - 1
REM
REM in /home/nfs/bkarasulu/CARBON/AIRSS/Generating-Clusters/REBO/Only-C1/SD-CG/HFTN-CG
REM
REM
REM
REM
REM
REM ./C.cell (11c1c37f851c82e70ff6c80c92926a4b)
REM
REM compiler GCC version 9.2.1 20190827 (Red Hat 9.2.1-1)
REM options -cpp -mtune=generic -march=x86-64 -g -O0 -fpre-include=/usr/include/finclude/math-vector-fortran.h
REM seed 357696174 -2004210586 1230948111 -1264028805 -1731172131 -1881145560 -935373908 931349837 -308795247 -1912625157 1001879264 1604320544 -277789198 332629366 1570132707 -1393642264 -1319789766 2139981264 -1144235738 471198468 -376739097 -1873186347 475989377 623755691 -205764745 -310252184 -1890163712 -251834839 -1846651431 -1361877669 -129950337 1696928169 1381231513
REM
CELL 1.54180   50.00000   50.00000   50.00000   90.00000   90.00000   90.00000
LATT -1
SFAC C  
C      1  0.4677980000000  0.4242010000000  0.5271280000000 1.0
C      1  0.4864950000000  0.5219030000000  0.4665250000000 1.0
C      1  0.5618460000000  0.5099790000000  0.5443310000000 1.0
C      1  0.4733560000000  0.4350150000000  0.4700980000000 1.0
C      1  0.4306470000000  0.5078120000000  0.4537040000000 1.0
C      1  0.4751590000000  0.4852140000000  0.4776400000000 1.0
C      1  0.4912230000000  0.5566230000000  0.4240150000000 1.0
C      1  0.4523160000000  0.5314370000000  0.4419980000000 1.0
C      1  0.5173320000000  0.4870980000000  0.5319050000000 1.0
C      1  0.5304900000000  0.5481560000000  0.4470420000000 1.0
C      1  0.4955260000000  0.5372200000000  0.5180440000000 1.0
C      1  0.4986810000000  0.5017490000000  0.4897710000000 1.0
C      1  0.5500940000000  0.5587640000000  0.5280240000000 1.0
C      1  0.5009880000000  0.4562580000000  0.5667170000000 1.0
C      1  0.4557200000000  0.4823510000000  0.4335540000000 1.0
C      1  0.5269990000000  0.5732910000000  0.5372090000000 1.0
C      1  0.4716030000000  0.4601450000000  0.5819890000000 1.0
C      1  0.4806480000000  0.5373110000000  0.5767890000000 1.0
C      1  0.4654290000000  0.4666520000000  0.5517560000000 1.0
C      1  0.5133760000000  0.4870910000000  0.5654570000000 1.0
C      1  0.5652400000000  0.5413060000000  0.4710070000000 1.0
C      1  0.5399710000000  0.5069050000000  0.5623730000000 1.0
C      1  0.4105670000000  0.4842570000000  0.5094240000000 1.0
C      1  0.4787280000000  0.4911860000000  0.5464150000000 1.0
C      1  0.5695610000000  0.5374400000000  0.5396310000000 1.0
C      1  0.5462090000000  0.4248690000000  0.5096080000000 1.0
C      1  0.4798760000000  0.5004730000000  0.5154880000000 1.0
C      1  0.4929270000000  0.4134810000000  0.4859170000000 1.0
C      1  0.4884050000000  0.5074500000000  0.5741400000000 1.0
C      1  0.4660430000000  0.5272980000000  0.5280150000000 1.0
C      1  0.5469180000000  0.4448970000000  0.4523750000000 1.0
C      1  0.5215120000000  0.4223830000000  0.5287970000000 1.0
C      1  0.5179620000000  0.5190760000000  0.5314730000000 1.0
C      1  0.4743550000000  0.5740770000000  0.4693280000000 1.0
C      1  0.5262160000000  0.4959440000000  0.4798110000000 1.0
C      1  0.4682070000000  0.5423310000000  0.4768190000000 1.0
C      1  0.5027140000000  0.5796490000000  0.5148560000000 1.0
C      1  0.4945780000000  0.4426930000000  0.5361910000000 1.0
C      1  0.4504280000000  0.4499760000000  0.5345060000000 1.0
C      1  0.5534780000000  0.4904780000000  0.4138100000000 1.0
C      1  0.5853860000000  0.4750450000000  0.5033560000000 1.0
C      1  0.5130640000000  0.4341940000000  0.4731770000000 1.0
C      1  0.4330900000000  0.5316330000000  0.5244070000000 1.0
C      1  0.5274020000000  0.4796510000000  0.4121610000000 1.0
C      1  0.4635130000000  0.4902670000000  0.5838310000000 1.0
C      1  0.5914880000000  0.4889430000000  0.4803340000000 1.0
C      1  0.5604380000000  0.4511020000000  0.4829950000000 1.0
C      1  0.5201420000000  0.4585590000000  0.4926120000000 1.0
C      1  0.5489800000000  0.5161350000000  0.4877140000000 1.0
C      1  0.5730880000000  0.5092640000000  0.4652960000000 1.0
C      1  0.5279130000000  0.4919860000000  0.4498520000000 1.0
C      1  0.4732710000000  0.4469220000000  0.5021250000000 1.0
C      1  0.4338600000000  0.4598190000000  0.5085350000000 1.0
C      1  0.5170060000000  0.5606980000000  0.5611940000000 1.0
C      1  0.5249520000000  0.5331300000000  0.5619510000000 1.0
C      1  0.4760950000000  0.4712820000000  0.4537510000000 1.0
C      1  0.4415760000000  0.5023970000000  0.5685380000000 1.0
C      1  0.5461090000000  0.4773290000000  0.4967440000000 1.0
C      1  0.4469650000000  0.4526980000000  0.4806110000000 1.0
C      1  0.4988680000000  0.4654420000000  0.5137440000000 1.0
C      1  0.5033020000000  0.5841400000000  0.4616450000000 1.0
C      1  0.4486360000000  0.4874790000000  0.5207440000000 1.0
C      1  0.4310430000000  0.4864310000000  0.5471550000000 1.0
C      1  0.4360440000000  0.5348320000000  0.4719530000000 1.0
C      1  0.4711790000000  0.5716990000000  0.5032550000000 1.0
C      1  0.4465470000000  0.5278990000000  0.5554500000000 1.0
C      1  0.5189650000000  0.5787310000000  0.4875150000000 1.0
C      1  0.4809890000000  0.5634310000000  0.5347910000000 1.0
C      1  0.4371580000000  0.4767520000000  0.4609090000000 1.0
C      1  0.5424160000000  0.5553720000000  0.4889900000000 1.0
C      1  0.5426890000000  0.4644270000000  0.5354030000000 1.0
C      1  0.4965300000000  0.4486730000000  0.4490770000000 1.0
C      1  0.4942960000000  0.4092950000000  0.5148080000000 1.0
C      1  0.5292370000000  0.4430290000000  0.5543230000000 1.0
C      1  0.5402280000000  0.5311770000000  0.5134080000000 1.0
C      1  0.4977960000000  0.5307070000000  0.4135860000000 1.0
C      1  0.4487740000000  0.4914820000000  0.4892670000000 1.0
C      1  0.5179850000000  0.5321100000000  0.4653560000000 1.0
C      1  0.4760130000000  0.5080960000000  0.4383230000000 1.0
C      1  0.4673820000000  0.5581250000000  0.4401180000000 1.0
C      1  0.5667620000000  0.4496590000000  0.5164970000000 1.0
C      1  0.5425200000000  0.4230150000000  0.4778730000000 1.0
C      1  0.5236410000000  0.4600930000000  0.4397210000000 1.0
C      1  0.4143580000000  0.5082070000000  0.5156610000000 1.0
C      1  0.5624550000000  0.4884900000000  0.5239490000000 1.0
C      1  0.4882160000000  0.5601190000000  0.5637960000000 1.0
C      1  0.5052920000000  0.5014090000000  0.4261110000000 1.0
C      1  0.5092310000000  0.5465000000000  0.4935170000000 1.0
C      1  0.5132500000000  0.5696450000000  0.4383420000000 1.0
C      1  0.4457200000000  0.5489110000000  0.5012680000000 1.0
C      1  0.5585140000000  0.4991270000000  0.4405820000000 1.0
END
