TITL C-2778437-8639-106 -0.00471680233781826 125000 -816.826121468344 0 0 141 (C1) n - 1
REM
REM in /home/nfs/bkarasulu/CARBON/AIRSS/Generating-Clusters/REBO/Only-C1/SD-CG/HFTN-CG
REM
REM
REM
REM
REM
REM ./C.cell (11c1c37f851c82e70ff6c80c92926a4b)
REM
REM compiler GCC version 9.2.1 20190827 (Red Hat 9.2.1-1)
REM options -cpp -mtune=generic -march=x86-64 -g -O0 -fpre-include=/usr/include/finclude/math-vector-fortran.h
REM seed -584973562 -4543372 1885901968 1986743417 1475120516 1607926026 -2122217626 1583389875 -360235142 -1181513460 892469236 1252529529 1477552002 1202646581 -527793848 278302475 -1183329691 -49826333 -978488843 -821456941 -662203446 -821209453 -1289922525 -1276584030 600134785 -1174244613 -138048949 -1490709665 -197851099 1798455973 -49517343 -782959997 1274800335
REM
CELL 1.54180   50.00000   50.00000   50.00000   90.00000   90.00000   90.00000
LATT -1
SFAC C  
C      1  0.4234910000000  0.4773320000000  0.4346100000000 1.0
C      1  0.4052870000000  0.4740760000000  0.5075920000000 1.0
C      1  0.5444000000000  0.5168620000000  0.4121020000000 1.0
C      1  0.5251260000000  0.4432590000000  0.4282890000000 1.0
C      1  0.4966890000000  0.4543790000000  0.5932130000000 1.0
C      1  0.4918580000000  0.4265330000000  0.5010330000000 1.0
C      1  0.4371950000000  0.5525100000000  0.5376080000000 1.0
C      1  0.4644730000000  0.5333600000000  0.4866210000000 1.0
C      1  0.5019010000000  0.4335870000000  0.6086960000000 1.0
C      1  0.5185510000000  0.5025820000000  0.5919010000000 1.0
C      1  0.5182670000000  0.4720200000000  0.5819970000000 1.0
C      1  0.5797250000000  0.4849860000000  0.4378190000000 1.0
C      1  0.4550330000000  0.4698800000000  0.4376620000000 1.0
C      1  0.4618580000000  0.4671540000000  0.4695750000000 1.0
C      1  0.5526420000000  0.5119440000000  0.5357450000000 1.0
C      1  0.5162870000000  0.5227700000000  0.5003500000000 1.0
C      1  0.4639320000000  0.5184860000000  0.4168220000000 1.0
C      1  0.5107450000000  0.4199510000000  0.5356360000000 1.0
C      1  0.5987860000000  0.4668140000000  0.4519690000000 1.0
C      1  0.5294460000000  0.5821130000000  0.5528840000000 1.0
C      1  0.4907090000000  0.6145610000000  0.4830190000000 1.0
C      1  0.5257650000000  0.4663520000000  0.5517970000000 1.0
C      1  0.4212980000000  0.5471010000000  0.4627310000000 1.0
C      1  0.4794970000000  0.5068180000000  0.5583450000000 1.0
C      1  0.4188150000000  0.5092090000000  0.5530830000000 1.0
C      1  0.5634230000000  0.5410950000000  0.5209910000000 1.0
C      1  0.4367900000000  0.5489660000000  0.4382370000000 1.0
C      1  0.5586510000000  0.4300810000000  0.4814150000000 1.0
C      1  0.5155380000000  0.6062630000000  0.4941350000000 1.0
C      1  0.4609860000000  0.4154890000000  0.5292910000000 1.0
C      1  0.4969200000000  0.5466780000000  0.5317340000000 1.0
C      1  0.4898370000000  0.4797770000000  0.5404580000000 1.0
C      1  0.4901470000000  0.4127220000000  0.4468950000000 1.0
C      1  0.5529910000000  0.5695470000000  0.5050430000000 1.0
C      1  0.5691720000000  0.5515250000000  0.5518260000000 1.0
C      1  0.4795430000000  0.6396240000000  0.4858000000000 1.0
C      1  0.5152220000000  0.4878770000000  0.3875540000000 1.0
C      1  0.5505360000000  0.4399110000000  0.5202670000000 1.0
C      1  0.4770770000000  0.5036520000000  0.4752960000000 1.0
C      1  0.5083670000000  0.4434060000000  0.4645180000000 1.0
C      1  0.4651880000000  0.4982180000000  0.4446820000000 1.0
C      1  0.4907550000000  0.4630700000000  0.4542300000000 1.0
C      1  0.5292200000000  0.4882750000000  0.5300860000000 1.0
C      1  0.5264670000000  0.5295450000000  0.5293340000000 1.0
C      1  0.4938340000000  0.5083850000000  0.5216550000000 1.0
C      1  0.5002530000000  0.5519370000000  0.5915550000000 1.0
C      1  0.4496340000000  0.5122840000000  0.5972720000000 1.0
C      1  0.4840180000000  0.4243680000000  0.5440410000000 1.0
C      1  0.5974390000000  0.4727330000000  0.5157360000000 1.0
C      1  0.5508240000000  0.5485380000000  0.4619150000000 1.0
C      1  0.4632670000000  0.5735940000000  0.4862680000000 1.0
C      1  0.5238050000000  0.5415260000000  0.4772740000000 1.0
C      1  0.4559510000000  0.4864410000000  0.5997090000000 1.0
C      1  0.5314610000000  0.5766430000000  0.4599540000000 1.0
C      1  0.4789880000000  0.5809900000000  0.5745930000000 1.0
C      1  0.4205800000000  0.4522150000000  0.4575440000000 1.0
C      1  0.5711080000000  0.4644330000000  0.5759620000000 1.0
C      1  0.4692630000000  0.5266930000000  0.5342700000000 1.0
C      1  0.5024090000000  0.5492590000000  0.4607230000000 1.0
C      1  0.4741390000000  0.5470770000000  0.4138930000000 1.0
C      1  0.5289690000000  0.4681360000000  0.4102430000000 1.0
C      1  0.5940860000000  0.5119900000000  0.5611500000000 1.0
C      1  0.4119150000000  0.5009330000000  0.5220230000000 1.0
C      1  0.5404680000000  0.4455160000000  0.4572360000000 1.0
C      1  0.4136190000000  0.4827920000000  0.5727020000000 1.0
C      1  0.4519470000000  0.4308230000000  0.4297110000000 1.0
C      1  0.4667750000000  0.5561740000000  0.5867540000000 1.0
C      1  0.5101410000000  0.4968780000000  0.4803240000000 1.0
C      1  0.4392750000000  0.4998890000000  0.4145660000000 1.0
C      1  0.4796260000000  0.4525570000000  0.5563440000000 1.0
C      1  0.5536570000000  0.4864250000000  0.4175370000000 1.0
C      1  0.4986310000000  0.4324290000000  0.4273240000000 1.0
C      1  0.5504680000000  0.4864970000000  0.5052820000000 1.0
C      1  0.4628250000000  0.5899460000000  0.4369080000000 1.0
C      1  0.5491030000000  0.5405410000000  0.5718210000000 1.0
C      1  0.4902360000000  0.4538400000000  0.5179800000000 1.0
C      1  0.5484180000000  0.5376030000000  0.4299400000000 1.0
C      1  0.5088690000000  0.5777920000000  0.5708920000000 1.0
C      1  0.5180270000000  0.5408490000000  0.5579780000000 1.0
C      1  0.4192220000000  0.5260000000000  0.5030830000000 1.0
C      1  0.4766970000000  0.5926810000000  0.4670580000000 1.0
C      1  0.4193130000000  0.4488590000000  0.5076130000000 1.0
C      1  0.5358190000000  0.4767540000000  0.4694610000000 1.0
C      1  0.4391750000000  0.4887090000000  0.4818660000000 1.0
C      1  0.4850070000000  0.5542710000000  0.5039130000000 1.0
C      1  0.5508340000000  0.5745880000000  0.5378220000000 1.0
C      1  0.3928420000000  0.4785330000000  0.4829340000000 1.0
C      1  0.5129060000000  0.4106920000000  0.4672730000000 1.0
C      1  0.5302050000000  0.4403450000000  0.5405340000000 1.0
C      1  0.4994360000000  0.5585980000000  0.4219440000000 1.0
C      1  0.5993630000000  0.5061940000000  0.5220020000000 1.0
C      1  0.5861690000000  0.5300650000000  0.4640880000000 1.0
C      1  0.5871650000000  0.5307230000000  0.5039380000000 1.0
C      1  0.5218340000000  0.5101890000000  0.4525430000000 1.0
C      1  0.4437770000000  0.5160950000000  0.5227710000000 1.0
C      1  0.4479250000000  0.5361840000000  0.5824070000000 1.0
C      1  0.4329440000000  0.5351910000000  0.5583520000000 1.0
C      1  0.5842280000000  0.4457840000000  0.4974870000000 1.0
C      1  0.4615670000000  0.4136440000000  0.4496230000000 1.0
C      1  0.5844230000000  0.4657520000000  0.5464620000000 1.0
C      1  0.4592770000000  0.4026090000000  0.5050660000000 1.0
C      1  0.4470680000000  0.4540800000000  0.5588220000000 1.0
C      1  0.5507190000000  0.4800570000000  0.5859450000000 1.0
C      1  0.4302440000000  0.5664290000000  0.4818670000000 1.0
C      1  0.4264640000000  0.4390860000000  0.4810700000000 1.0
C      1  0.4992610000000  0.4762200000000  0.4253840000000 1.0
C      1  0.5279030000000  0.5354890000000  0.5981860000000 1.0
C      1  0.5513610000000  0.5119990000000  0.5901890000000 1.0
C      1  0.4533380000000  0.5664560000000  0.4229150000000 1.0
C      1  0.5851550000000  0.5007770000000  0.4675930000000 1.0
C      1  0.5007580000000  0.5083440000000  0.4286240000000 1.0
C      1  0.5168920000000  0.5125650000000  0.4021860000000 1.0
C      1  0.5501130000000  0.4966290000000  0.4487940000000 1.0
C      1  0.4348220000000  0.4796940000000  0.5465110000000 1.0
C      1  0.5788120000000  0.4405320000000  0.5292110000000 1.0
C      1  0.4782060000000  0.4884500000000  0.5027180000000 1.0
C      1  0.4456370000000  0.5530660000000  0.5078850000000 1.0
C      1  0.5967200000000  0.5340180000000  0.5422590000000 1.0
C      1  0.5102190000000  0.4757460000000  0.5064580000000 1.0
C      1  0.5733680000000  0.5521100000000  0.4839410000000 1.0
C      1  0.4363000000000  0.4357260000000  0.5340080000000 1.0
C      1  0.4576820000000  0.4534580000000  0.5172640000000 1.0
C      1  0.5971590000000  0.4715440000000  0.4817490000000 1.0
C      1  0.5463990000000  0.4579820000000  0.4945030000000 1.0
C      1  0.4876810000000  0.5301970000000  0.4473870000000 1.0
C      1  0.4747260000000  0.4533220000000  0.4190340000000 1.0
C      1  0.5281690000000  0.5593890000000  0.4310410000000 1.0
C      1  0.4664980000000  0.4616290000000  0.5857180000000 1.0
C      1  0.5147790000000  0.4090650000000  0.5075640000000 1.0
C      1  0.4989550000000  0.5786840000000  0.4497860000000 1.0
C      1  0.5359590000000  0.4078820000000  0.4865790000000 1.0
C      1  0.5741730000000  0.4958050000000  0.5516420000000 1.0
C      1  0.5341460000000  0.5872770000000  0.4883710000000 1.0
C      1  0.4499050000000  0.4169280000000  0.4777250000000 1.0
C      1  0.4561280000000  0.5297270000000  0.4542010000000 1.0
C      1  0.4473060000000  0.4838830000000  0.5148050000000 1.0
C      1  0.5751990000000  0.5005430000000  0.4981530000000 1.0
C      1  0.4984060000000  0.5214080000000  0.5759130000000 1.0
C      1  0.4655260000000  0.4429300000000  0.4885810000000 1.0
C      1  0.4120900000000  0.4908760000000  0.4613550000000 1.0
C      1  0.4229900000000  0.5184550000000  0.4738570000000 1.0
END
