TITL C-2778427-5640-1080 -0.00381083819015029 125000 -475.133802602953 0 0 83 (C1) n - 1
REM
REM in /home/nfs/bkarasulu/CARBON/AIRSS/Generating-Clusters/REBO/Only-C1/SD-CG/HFTN-CG
REM
REM
REM
REM
REM
REM ./C.cell (11c1c37f851c82e70ff6c80c92926a4b)
REM
REM compiler GCC version 9.2.1 20190827 (Red Hat 9.2.1-1)
REM options -cpp -mtune=generic -march=x86-64 -g -O0 -fpre-include=/usr/include/finclude/math-vector-fortran.h
REM seed 1520016304 7077758 -149616979 376449531 -2077649845 23448011 -562008044 -320245442 1196819257 307128449 -281726297 2009944367 1741498076 126295393 2082020124 1040294092 -625778865 359468719 -141613697 -244426184 1702735334 172701811 229399297 270230661 635615965 -1839293625 1398711419 1843852204 696034322 1778064807 286213993 -302264835 2055089717
REM
CELL 1.54180   50.00000   50.00000   50.00000   90.00000   90.00000   90.00000
LATT -1
SFAC C  
C      1  0.5319740000000  0.4225750000000  0.4685770000000 1.0
C      1  0.6026410000000  0.5354730000000  0.5006840000000 1.0
C      1  0.5309530000000  0.5744860000000  0.4921230000000 1.0
C      1  0.4536310000000  0.5805290000000  0.5018260000000 1.0
C      1  0.5381680000000  0.4859310000000  0.3779720000000 1.0
C      1  0.4698180000000  0.5210550000000  0.5324550000000 1.0
C      1  0.5414830000000  0.4409480000000  0.4446450000000 1.0
C      1  0.5104070000000  0.4774050000000  0.4648690000000 1.0
C      1  0.5809710000000  0.4985110000000  0.5243020000000 1.0
C      1  0.4957700000000  0.5815780000000  0.5280370000000 1.0
C      1  0.5233970000000  0.5692680000000  0.5215260000000 1.0
C      1  0.5266340000000  0.5520300000000  0.5506620000000 1.0
C      1  0.4412070000000  0.4825930000000  0.5440140000000 1.0
C      1  0.4625430000000  0.4676920000000  0.4409440000000 1.0
C      1  0.4678250000000  0.4221940000000  0.5102660000000 1.0
C      1  0.4726850000000  0.5378830000000  0.4357280000000 1.0
C      1  0.4747750000000  0.5122750000000  0.4230390000000 1.0
C      1  0.4538440000000  0.5528840000000  0.5150150000000 1.0
C      1  0.5256600000000  0.4819350000000  0.4015180000000 1.0
C      1  0.4561760000000  0.4689680000000  0.4731780000000 1.0
C      1  0.4308730000000  0.5168550000000  0.5179520000000 1.0
C      1  0.5321480000000  0.4578420000000  0.4246300000000 1.0
C      1  0.5156740000000  0.5563210000000  0.4458210000000 1.0
C      1  0.5527970000000  0.5321410000000  0.4976720000000 1.0
C      1  0.4904970000000  0.5415990000000  0.4744390000000 1.0
C      1  0.4600980000000  0.4725370000000  0.5776180000000 1.0
C      1  0.4905790000000  0.4749720000000  0.5812490000000 1.0
C      1  0.5349630000000  0.5175380000000  0.4724790000000 1.0
C      1  0.5472850000000  0.4877380000000  0.4755720000000 1.0
C      1  0.4743990000000  0.4747730000000  0.5082440000000 1.0
C      1  0.5384960000000  0.5396500000000  0.4492550000000 1.0
C      1  0.4816430000000  0.5358540000000  0.5044160000000 1.0
C      1  0.5442010000000  0.4359930000000  0.4956380000000 1.0
C      1  0.5019190000000  0.5514650000000  0.5646620000000 1.0
C      1  0.4943790000000  0.5544980000000  0.4280350000000 1.0
C      1  0.5466500000000  0.4968200000000  0.5481250000000 1.0
C      1  0.5762370000000  0.4748620000000  0.4845030000000 1.0
C      1  0.4694800000000  0.4720800000000  0.5390290000000 1.0
C      1  0.4997430000000  0.5075440000000  0.5104160000000 1.0
C      1  0.4595230000000  0.5027610000000  0.5061470000000 1.0
C      1  0.5327040000000  0.4997260000000  0.5712330000000 1.0
C      1  0.4987200000000  0.4987930000000  0.4137300000000 1.0
C      1  0.5054090000000  0.4502490000000  0.5706650000000 1.0
C      1  0.4776920000000  0.3957240000000  0.5505160000000 1.0
C      1  0.5077390000000  0.5703970000000  0.4727350000000 1.0
C      1  0.4551990000000  0.5532500000000  0.5469430000000 1.0
C      1  0.5093260000000  0.4358890000000  0.5434790000000 1.0
C      1  0.5004780000000  0.4468890000000  0.4742110000000 1.0
C      1  0.4430910000000  0.4653510000000  0.4999960000000 1.0
C      1  0.4739650000000  0.4477840000000  0.5574520000000 1.0
C      1  0.4430950000000  0.4353790000000  0.5087010000000 1.0
C      1  0.5344230000000  0.5370800000000  0.5226020000000 1.0
C      1  0.4589920000000  0.5494730000000  0.4647720000000 1.0
C      1  0.5301760000000  0.4388150000000  0.5265470000000 1.0
C      1  0.4821370000000  0.4202900000000  0.4838180000000 1.0
C      1  0.4349880000000  0.5257480000000  0.5473220000000 1.0
C      1  0.4704880000000  0.4413670000000  0.4604880000000 1.0
C      1  0.4619990000000  0.5137220000000  0.4775080000000 1.0
C      1  0.4821920000000  0.5923290000000  0.5060140000000 1.0
C      1  0.5020500000000  0.5010380000000  0.5699490000000 1.0
C      1  0.4415550000000  0.5349760000000  0.4908250000000 1.0
C      1  0.4901100000000  0.4968330000000  0.5408860000000 1.0
C      1  0.4536180000000  0.4935590000000  0.4254910000000 1.0
C      1  0.4428040000000  0.5008040000000  0.5698460000000 1.0
C      1  0.5268890000000  0.4898060000000  0.5000300000000 1.0
C      1  0.4597320000000  0.5293940000000  0.5709290000000 1.0
C      1  0.5541730000000  0.4553420000000  0.4702660000000 1.0
C      1  0.5017190000000  0.5094560000000  0.4760150000000 1.0
C      1  0.5796560000000  0.5217290000000  0.5078640000000 1.0
C      1  0.5769600000000  0.4726960000000  0.5131650000000 1.0
C      1  0.5557000000000  0.5606550000000  0.4848020000000 1.0
C      1  0.4262570000000  0.4840420000000  0.5176230000000 1.0
C      1  0.5591940000000  0.4519970000000  0.5214050000000 1.0
C      1  0.4747070000000  0.5780300000000  0.4755370000000 1.0
C      1  0.4804440000000  0.4207490000000  0.5381100000000 1.0
C      1  0.5126180000000  0.4794740000000  0.4361950000000 1.0
C      1  0.5093950000000  0.4079460000000  0.4722590000000 1.0
C      1  0.4831590000000  0.5681160000000  0.5500200000000 1.0
C      1  0.5613210000000  0.5563340000000  0.4566540000000 1.0
C      1  0.5381620000000  0.5061920000000  0.5242810000000 1.0
C      1  0.5003910000000  0.4701600000000  0.4965950000000 1.0
C      1  0.4749820000000  0.4939400000000  0.4592760000000 1.0
C      1  0.4894470000000  0.5284220000000  0.5759610000000 1.0
END
