TITL C-2778435-5768-189 0.000315011502290252 125000 -530.071319174385 0 0 91 (C1) n - 1
REM
REM in /home/nfs/bkarasulu/CARBON/AIRSS/Generating-Clusters/REBO/Only-C1/SD-CG/HFTN-CG
REM
REM
REM
REM
REM
REM ./C.cell (11c1c37f851c82e70ff6c80c92926a4b)
REM
REM compiler GCC version 9.2.1 20190827 (Red Hat 9.2.1-1)
REM options -cpp -mtune=generic -march=x86-64 -g -O0 -fpre-include=/usr/include/finclude/math-vector-fortran.h
REM seed -1839803484 -35553379 -2072440702 -2024244204 -763698686 -1727678074 1701341792 1744532327 122303034 -2013849941 -1678252238 1082022439 -1943092599 -2065853969 1290380449 -549419991 2104281966 1524355552 -16176217 -779736280 -640279118 -1028133342 201000693 -356541983 -2043201097 1823411997 1580760109 -1984690367 1494659946 990575871 510905467 1955899273 2033945111
REM
CELL 1.54180   50.00000   50.00000   50.00000   90.00000   90.00000   90.00000
LATT -1
SFAC C  
C      1  0.5273190000000  0.5068690000000  0.4817750000000 1.0
C      1  0.4997080000000  0.4721070000000  0.5716350000000 1.0
C      1  0.4938730000000  0.4795620000000  0.4966370000000 1.0
C      1  0.4331150000000  0.5141790000000  0.5595430000000 1.0
C      1  0.5847690000000  0.5187860000000  0.4816860000000 1.0
C      1  0.4672190000000  0.4985290000000  0.4560260000000 1.0
C      1  0.4650980000000  0.4214210000000  0.5092420000000 1.0
C      1  0.4709890000000  0.5749830000000  0.4627720000000 1.0
C      1  0.4229860000000  0.4764680000000  0.5003320000000 1.0
C      1  0.5212010000000  0.5253290000000  0.4180370000000 1.0
C      1  0.4676360000000  0.4744830000000  0.4345490000000 1.0
C      1  0.4874430000000  0.4791800000000  0.4160200000000 1.0
C      1  0.4707240000000  0.5303840000000  0.4891660000000 1.0
C      1  0.4332380000000  0.4612720000000  0.5275670000000 1.0
C      1  0.4984690000000  0.5109870000000  0.4637400000000 1.0
C      1  0.4978380000000  0.4231270000000  0.4446090000000 1.0
C      1  0.4744950000000  0.5510940000000  0.5703280000000 1.0
C      1  0.4477710000000  0.5590570000000  0.5507550000000 1.0
C      1  0.4513260000000  0.4848300000000  0.4878150000000 1.0
C      1  0.4853920000000  0.4740280000000  0.4699950000000 1.0
C      1  0.4940980000000  0.5256210000000  0.5797830000000 1.0
C      1  0.5303160000000  0.5669460000000  0.5039630000000 1.0
C      1  0.4835590000000  0.5450830000000  0.5239470000000 1.0
C      1  0.4687140000000  0.4968780000000  0.5345750000000 1.0
C      1  0.5474400000000  0.5385210000000  0.5571730000000 1.0
C      1  0.5262780000000  0.5010760000000  0.4491200000000 1.0
C      1  0.4343070000000  0.5356360000000  0.5346800000000 1.0
C      1  0.4694360000000  0.4588550000000  0.5632980000000 1.0
C      1  0.4366000000000  0.5135960000000  0.4573890000000 1.0
C      1  0.4218820000000  0.5266580000000  0.5055090000000 1.0
C      1  0.5194580000000  0.4985580000000  0.5632850000000 1.0
C      1  0.4507240000000  0.4479710000000  0.5027370000000 1.0
C      1  0.5311460000000  0.4633910000000  0.4299590000000 1.0
C      1  0.5275410000000  0.5269270000000  0.5743570000000 1.0
C      1  0.5566070000000  0.5058130000000  0.4473390000000 1.0
C      1  0.4917990000000  0.4404120000000  0.5486600000000 1.0
C      1  0.4803620000000  0.4983770000000  0.5787970000000 1.0
C      1  0.5125260000000  0.4418920000000  0.4294540000000 1.0
C      1  0.5519070000000  0.4392660000000  0.4663130000000 1.0
C      1  0.4800770000000  0.4193180000000  0.5296820000000 1.0
C      1  0.5228360000000  0.4505860000000  0.5585780000000 1.0
C      1  0.4565020000000  0.4515560000000  0.4487610000000 1.0
C      1  0.5580220000000  0.5525710000000  0.5128700000000 1.0
C      1  0.5420550000000  0.4402500000000  0.4982090000000 1.0
C      1  0.5540960000000  0.4593790000000  0.4472410000000 1.0
C      1  0.4699280000000  0.5631790000000  0.5005060000000 1.0
C      1  0.4797110000000  0.5364150000000  0.4582580000000 1.0
C      1  0.5641240000000  0.4500660000000  0.5164510000000 1.0
C      1  0.5306020000000  0.4873160000000  0.5095510000000 1.0
C      1  0.4993560000000  0.4927500000000  0.5374220000000 1.0
C      1  0.5426400000000  0.4913910000000  0.5410930000000 1.0
C      1  0.5448560000000  0.5623060000000  0.5407840000000 1.0
C      1  0.4987170000000  0.5598540000000  0.4497700000000 1.0
C      1  0.4466240000000  0.5597850000000  0.4772770000000 1.0
C      1  0.4453050000000  0.4617160000000  0.5517540000000 1.0
C      1  0.5390440000000  0.5258430000000  0.5074960000000 1.0
C      1  0.4682540000000  0.4749600000000  0.5139580000000 1.0
C      1  0.5662600000000  0.5293950000000  0.4607780000000 1.0
C      1  0.4613690000000  0.4104920000000  0.4729030000000 1.0
C      1  0.5070060000000  0.4642760000000  0.5321270000000 1.0
C      1  0.4961780000000  0.5763280000000  0.4857100000000 1.0
C      1  0.4562800000000  0.5340620000000  0.4416940000000 1.0
C      1  0.5169800000000  0.4915270000000  0.4198770000000 1.0
C      1  0.5348380000000  0.4150410000000  0.4770050000000 1.0
C      1  0.5782590000000  0.5269440000000  0.5134720000000 1.0
C      1  0.4994750000000  0.5408620000000  0.5499920000000 1.0
C      1  0.4949880000000  0.5129370000000  0.5033340000000 1.0
C      1  0.5499870000000  0.4609210000000  0.5456920000000 1.0
C      1  0.5787240000000  0.4732220000000  0.5027280000000 1.0
C      1  0.5865360000000  0.4887400000000  0.4777570000000 1.0
C      1  0.5250010000000  0.5662370000000  0.4707290000000 1.0
C      1  0.4560630000000  0.4988000000000  0.5621390000000 1.0
C      1  0.5754770000000  0.4409100000000  0.5471660000000 1.0
C      1  0.5192110000000  0.4586950000000  0.5038600000000 1.0
C      1  0.5483110000000  0.5505430000000  0.4555130000000 1.0
C      1  0.5607250000000  0.4989920000000  0.5064130000000 1.0
C      1  0.5151570000000  0.5213020000000  0.5291820000000 1.0
C      1  0.4706460000000  0.4269400000000  0.4525510000000 1.0
C      1  0.4974310000000  0.5889330000000  0.5418980000000 1.0
C      1  0.5610750000000  0.5176190000000  0.5415000000000 1.0
C      1  0.4735730000000  0.5790500000000  0.5517780000000 1.0
C      1  0.5705890000000  0.4819340000000  0.4537870000000 1.0
C      1  0.5136110000000  0.4060660000000  0.4612980000000 1.0
C      1  0.5057040000000  0.5458260000000  0.4991420000000 1.0
C      1  0.4605450000000  0.5230070000000  0.5208610000000 1.0
C      1  0.4146260000000  0.4990120000000  0.4492210000000 1.0
C      1  0.5247100000000  0.5461440000000  0.4362000000000 1.0
C      1  0.4397030000000  0.4584140000000  0.4728650000000 1.0
C      1  0.4083690000000  0.5023630000000  0.5051580000000 1.0
C      1  0.4320720000000  0.5357620000000  0.4804420000000 1.0
C      1  0.5224620000000  0.5813050000000  0.5330000000000 1.0
END
