TITL C-2778437-8639-283 -0.00267262582805727 125000 -1056.25968178709 0 0 180 (C1) n - 1
REM
REM in /home/nfs/bkarasulu/CARBON/AIRSS/Generating-Clusters/REBO/Only-C1/SD-CG/HFTN-CG
REM
REM
REM
REM
REM
REM ./C.cell (11c1c37f851c82e70ff6c80c92926a4b)
REM
REM compiler GCC version 9.2.1 20190827 (Red Hat 9.2.1-1)
REM options -cpp -mtune=generic -march=x86-64 -g -O0 -fpre-include=/usr/include/finclude/math-vector-fortran.h
REM seed -140688305 1588075036 39430092 998065304 502523327 -5223696 -295440729 -848485033 -89454117 -106861854 -60469521 -2134829985 -795481966 1705503539 -1058145263 1089256861 550463648 455705762 -1872755702 -1152021384 1966303093 357096449 1794552974 1252153242 -1060248483 1164235218 -324407 309913890 1227241066 -1660672315 -626840353 479899302 853312821
REM
CELL 1.54180   50.00000   50.00000   50.00000   90.00000   90.00000   90.00000
LATT -1
SFAC C  
C      1  0.6028960000000  0.4662390000000  0.4988530000000 1.0
C      1  0.5387680000000  0.5180600000000  0.4065660000000 1.0
C      1  0.5072090000000  0.5724730000000  0.4103650000000 1.0
C      1  0.5606120000000  0.4709670000000  0.5457170000000 1.0
C      1  0.4868130000000  0.3985830000000  0.4544250000000 1.0
C      1  0.5692650000000  0.4883860000000  0.4515120000000 1.0
C      1  0.5929770000000  0.5637440000000  0.5215300000000 1.0
C      1  0.4937200000000  0.4859960000000  0.5511960000000 1.0
C      1  0.4505710000000  0.4929470000000  0.5495200000000 1.0
C      1  0.4847520000000  0.4810580000000  0.4692680000000 1.0
C      1  0.5241130000000  0.4837780000000  0.5901370000000 1.0
C      1  0.3972080000000  0.4881300000000  0.5358420000000 1.0
C      1  0.4939420000000  0.6128890000000  0.5041860000000 1.0
C      1  0.4823010000000  0.4882990000000  0.4301840000000 1.0
C      1  0.4849630000000  0.5125280000000  0.4777610000000 1.0
C      1  0.6002360000000  0.5359940000000  0.4632890000000 1.0
C      1  0.4740680000000  0.5309050000000  0.3737240000000 1.0
C      1  0.5335070000000  0.4729970000000  0.5240410000000 1.0
C      1  0.5226210000000  0.6063060000000  0.4972600000000 1.0
C      1  0.4577820000000  0.3984620000000  0.5278820000000 1.0
C      1  0.5723270000000  0.5460480000000  0.4565900000000 1.0
C      1  0.4405010000000  0.4177330000000  0.5158190000000 1.0
C      1  0.5114210000000  0.5042270000000  0.3941990000000 1.0
C      1  0.4548740000000  0.4068100000000  0.4497200000000 1.0
C      1  0.4437850000000  0.4886450000000  0.5104730000000 1.0
C      1  0.6142220000000  0.4871480000000  0.5521530000000 1.0
C      1  0.4751580000000  0.5322940000000  0.4523100000000 1.0
C      1  0.5867810000000  0.4766520000000  0.4257240000000 1.0
C      1  0.5716600000000  0.5537560000000  0.4260950000000 1.0
C      1  0.3851070000000  0.5130540000000  0.5436010000000 1.0
C      1  0.4636870000000  0.5100440000000  0.5253320000000 1.0
C      1  0.5474340000000  0.5247840000000  0.5305600000000 1.0
C      1  0.4847410000000  0.5306300000000  0.5406950000000 1.0
C      1  0.5144610000000  0.3867400000000  0.4578650000000 1.0
C      1  0.5268680000000  0.4501290000000  0.5487190000000 1.0
C      1  0.5231050000000  0.5441300000000  0.5927920000000 1.0
C      1  0.5570370000000  0.5750070000000  0.4566420000000 1.0
C      1  0.4758000000000  0.5609420000000  0.4951780000000 1.0
C      1  0.5091900000000  0.5108520000000  0.5652820000000 1.0
C      1  0.4045000000000  0.5366290000000  0.5470220000000 1.0
C      1  0.6155240000000  0.4679600000000  0.5256130000000 1.0
C      1  0.5302280000000  0.3892500000000  0.4801450000000 1.0
C      1  0.4553910000000  0.5657220000000  0.5666070000000 1.0
C      1  0.4552820000000  0.4613560000000  0.5463720000000 1.0
C      1  0.4913140000000  0.6193190000000  0.5356230000000 1.0
C      1  0.5902120000000  0.4885010000000  0.4764920000000 1.0
C      1  0.4277890000000  0.5593850000000  0.4988170000000 1.0
C      1  0.4740590000000  0.5843430000000  0.4482890000000 1.0
C      1  0.5711630000000  0.4622850000000  0.4880280000000 1.0
C      1  0.5124220000000  0.3826150000000  0.5073210000000 1.0
C      1  0.4713420000000  0.5356890000000  0.5680650000000 1.0
C      1  0.5131110000000  0.5328470000000  0.4404080000000 1.0
C      1  0.4042330000000  0.4955090000000  0.4516390000000 1.0
C      1  0.5246240000000  0.5473810000000  0.4118700000000 1.0
C      1  0.5047040000000  0.5836010000000  0.5709330000000 1.0
C      1  0.5101640000000  0.4147780000000  0.4183080000000 1.0
C      1  0.5285020000000  0.4335800000000  0.5209580000000 1.0
C      1  0.5757430000000  0.4314480000000  0.4738670000000 1.0
C      1  0.4937310000000  0.4698760000000  0.5232380000000 1.0
C      1  0.4872370000000  0.4273190000000  0.4382200000000 1.0
C      1  0.4918140000000  0.5446330000000  0.5942800000000 1.0
C      1  0.5517430000000  0.5004640000000  0.5941010000000 1.0
C      1  0.4775270000000  0.4844830000000  0.6002060000000 1.0
C      1  0.5135430000000  0.4126060000000  0.5515160000000 1.0
C      1  0.5753550000000  0.5903460000000  0.5290280000000 1.0
C      1  0.5691200000000  0.5451830000000  0.5706150000000 1.0
C      1  0.4761590000000  0.5707230000000  0.4183850000000 1.0
C      1  0.5383970000000  0.4841860000000  0.4017910000000 1.0
C      1  0.5716330000000  0.4857150000000  0.5750200000000 1.0
C      1  0.4574240000000  0.4599270000000  0.5081840000000 1.0
C      1  0.5728140000000  0.4364020000000  0.4434010000000 1.0
C      1  0.4157820000000  0.5210000000000  0.4541850000000 1.0
C      1  0.3971720000000  0.4513270000000  0.4762420000000 1.0
C      1  0.5000750000000  0.4259580000000  0.5744990000000 1.0
C      1  0.4799050000000  0.4564030000000  0.4882960000000 1.0
C      1  0.4865410000000  0.5401770000000  0.4215900000000 1.0
C      1  0.4645260000000  0.5591200000000  0.4652870000000 1.0
C      1  0.4423890000000  0.4898450000000  0.4617550000000 1.0
C      1  0.5110230000000  0.4985870000000  0.5235330000000 1.0
C      1  0.5628470000000  0.5895170000000  0.4797960000000 1.0
C      1  0.4199730000000  0.4789330000000  0.5506000000000 1.0
C      1  0.4131020000000  0.4327940000000  0.4774720000000 1.0
C      1  0.4630840000000  0.4008060000000  0.5555770000000 1.0
C      1  0.5497220000000  0.5683670000000  0.5628230000000 1.0
C      1  0.4990710000000  0.4778020000000  0.4039560000000 1.0
C      1  0.4589230000000  0.5362190000000  0.3530070000000 1.0
C      1  0.5421640000000  0.4808020000000  0.4920880000000 1.0
C      1  0.4572840000000  0.5978040000000  0.4721280000000 1.0
C      1  0.4983410000000  0.4093540000000  0.4934830000000 1.0
C      1  0.5965130000000  0.5118790000000  0.5613690000000 1.0
C      1  0.4624040000000  0.5052380000000  0.4457420000000 1.0
C      1  0.4184800000000  0.5373130000000  0.5784660000000 1.0
C      1  0.4379260000000  0.5454490000000  0.4487890000000 1.0
C      1  0.5452720000000  0.5477540000000  0.5055470000000 1.0
C      1  0.5107410000000  0.4574450000000  0.5746440000000 1.0
C      1  0.4761460000000  0.4426720000000  0.5287220000000 1.0
C      1  0.5909000000000  0.4499040000000  0.4278030000000 1.0
C      1  0.4781770000000  0.3859280000000  0.5073260000000 1.0
C      1  0.4702010000000  0.5225360000000  0.6055110000000 1.0
C      1  0.5474690000000  0.5285740000000  0.5898820000000 1.0
C      1  0.4046710000000  0.5179400000000  0.5006030000000 1.0
C      1  0.4122280000000  0.5408810000000  0.5165210000000 1.0
C      1  0.5459950000000  0.4222530000000  0.5547410000000 1.0
C      1  0.3568400000000  0.5158580000000  0.5053000000000 1.0
C      1  0.4574740000000  0.5073400000000  0.5742850000000 1.0
C      1  0.3594720000000  0.5186170000000  0.5326910000000 1.0
C      1  0.5043840000000  0.4551410000000  0.4293170000000 1.0
C      1  0.5638670000000  0.5102170000000  0.5519730000000 1.0
C      1  0.5053920000000  0.4475370000000  0.5018920000000 1.0
C      1  0.4849630000000  0.4491420000000  0.3948780000000 1.0
C      1  0.5457560000000  0.6116500000000  0.4845150000000 1.0
C      1  0.4405960000000  0.4545960000000  0.4297250000000 1.0
C      1  0.5111900000000  0.4724240000000  0.4528060000000 1.0
C      1  0.5006660000000  0.5597890000000  0.5390880000000 1.0
C      1  0.5215820000000  0.5467410000000  0.4681980000000 1.0
C      1  0.4642530000000  0.3940410000000  0.4794420000000 1.0
C      1  0.4721190000000  0.4199310000000  0.5745500000000 1.0
C      1  0.3930760000000  0.4750970000000  0.5080800000000 1.0
C      1  0.5074360000000  0.5560050000000  0.4971190000000 1.0
C      1  0.5480340000000  0.5813600000000  0.5381830000000 1.0
C      1  0.5838520000000  0.5084210000000  0.5104100000000 1.0
C      1  0.4160040000000  0.5635840000000  0.5619160000000 1.0
C      1  0.4570950000000  0.4455480000000  0.5754750000000 1.0
C      1  0.4380710000000  0.5832350000000  0.4876240000000 1.0
C      1  0.5656210000000  0.5712270000000  0.5037810000000 1.0
C      1  0.5184630000000  0.5253210000000  0.5036850000000 1.0
C      1  0.5997390000000  0.5374070000000  0.5833980000000 1.0
C      1  0.4201720000000  0.4642850000000  0.5134020000000 1.0
C      1  0.5322790000000  0.4561920000000  0.4091830000000 1.0
C      1  0.4754270000000  0.5285580000000  0.5020840000000 1.0
C      1  0.4531930000000  0.5957900000000  0.5309380000000 1.0
C      1  0.5514070000000  0.4085850000000  0.4814230000000 1.0
C      1  0.5284960000000  0.5732270000000  0.4532560000000 1.0
C      1  0.4798620000000  0.4682420000000  0.5767900000000 1.0
C      1  0.5172870000000  0.5013190000000  0.4797310000000 1.0
C      1  0.4653200000000  0.4618100000000  0.4168320000000 1.0
C      1  0.5235610000000  0.5801170000000  0.5146640000000 1.0
C      1  0.6033080000000  0.5342490000000  0.5136840000000 1.0
C      1  0.4331440000000  0.5361400000000  0.4797710000000 1.0
C      1  0.5059350000000  0.5921830000000  0.5411500000000 1.0
C      1  0.5906870000000  0.5399470000000  0.5447660000000 1.0
C      1  0.5275170000000  0.5694400000000  0.5793140000000 1.0
C      1  0.4354790000000  0.5797680000000  0.5466800000000 1.0
C      1  0.4317630000000  0.5037360000000  0.4864680000000 1.0
C      1  0.5551770000000  0.5099310000000  0.5004860000000 1.0
C      1  0.5359980000000  0.4916020000000  0.5587980000000 1.0
C      1  0.5428340000000  0.4375360000000  0.4938290000000 1.0
C      1  0.5613940000000  0.4091580000000  0.5276010000000 1.0
C      1  0.4448850000000  0.4347660000000  0.4535710000000 1.0
C      1  0.4394750000000  0.4168190000000  0.4848640000000 1.0
C      1  0.5111390000000  0.4340280000000  0.3962640000000 1.0
C      1  0.4231240000000  0.4750840000000  0.4400040000000 1.0
C      1  0.4701690000000  0.6187680000000  0.4840520000000 1.0
C      1  0.5627310000000  0.4987470000000  0.4197360000000 1.0
C      1  0.6026590000000  0.5175940000000  0.4843890000000 1.0
C      1  0.5297030000000  0.3999470000000  0.5260650000000 1.0
C      1  0.5190320000000  0.5322770000000  0.5430370000000 1.0
C      1  0.4993530000000  0.5058030000000  0.5974930000000 1.0
C      1  0.5082260000000  0.5040230000000  0.4466780000000 1.0
C      1  0.5550510000000  0.5544970000000  0.4079340000000 1.0
C      1  0.5902580000000  0.4882330000000  0.5297450000000 1.0
C      1  0.4647610000000  0.6189680000000  0.5435280000000 1.0
C      1  0.4571460000000  0.4611780000000  0.4654780000000 1.0
C      1  0.4710360000000  0.5880480000000  0.5096070000000 1.0
C      1  0.4811300000000  0.5718940000000  0.5811070000000 1.0
C      1  0.5230680000000  0.4247960000000  0.4472530000000 1.0
C      1  0.3800300000000  0.5086100000000  0.4911810000000 1.0
C      1  0.5673780000000  0.4419020000000  0.5369410000000 1.0
C      1  0.4274060000000  0.4469450000000  0.5594400000000 1.0
C      1  0.4894860000000  0.5254940000000  0.3948140000000 1.0
C      1  0.4924380000000  0.4180920000000  0.5258540000000 1.0
C      1  0.5499500000000  0.5327960000000  0.4758510000000 1.0
C      1  0.5433910000000  0.4460130000000  0.4388550000000 1.0
C      1  0.4389030000000  0.5257390000000  0.5925970000000 1.0
C      1  0.5790770000000  0.4286870000000  0.5076400000000 1.0
C      1  0.5424830000000  0.4715970000000  0.4590370000000 1.0
C      1  0.3870810000000  0.4823670000000  0.4752310000000 1.0
C      1  0.4274990000000  0.4393670000000  0.5279150000000 1.0
C      1  0.5068600000000  0.5843980000000  0.4389600000000 1.0
C      1  0.5165660000000  0.4274700000000  0.4763430000000 1.0
END
