TITL C-2778428-5639-369 0.00266466011152885 125000 -579.202971051719 0 0 100 (C1) n - 1
REM
REM in /home/nfs/bkarasulu/CARBON/AIRSS/Generating-Clusters/REBO/Only-C1/SD-CG/HFTN-CG
REM
REM
REM
REM
REM
REM ./C.cell (11c1c37f851c82e70ff6c80c92926a4b)
REM
REM compiler GCC version 9.2.1 20190827 (Red Hat 9.2.1-1)
REM options -cpp -mtune=generic -march=x86-64 -g -O0 -fpre-include=/usr/include/finclude/math-vector-fortran.h
REM seed 834439694 -905879156 -1712937348 1043530727 -1813383653 2058427165 1722529052 -106917492 -206243726 334447941 807402421 -159366404 -1343509554 -760583424 -1994020519 -1669513618 -454423995 803503593 -2074302157 389452826 -1915271440 2069260237 1931721886 -1617141073 -2021992366 1590506113 391478103 -431256632 -394010816 -347840734 1793665801 -118188447 -1821508826
REM
CELL 1.54180   50.00000   50.00000   50.00000   90.00000   90.00000   90.00000
LATT -1
SFAC C  
C      1  0.4294340000000  0.5331110000000  0.5108770000000 1.0
C      1  0.5320830000000  0.4402310000000  0.4437060000000 1.0
C      1  0.5075280000000  0.4424500000000  0.4292550000000 1.0
C      1  0.4531100000000  0.5227820000000  0.4367930000000 1.0
C      1  0.4341240000000  0.5511080000000  0.4755140000000 1.0
C      1  0.4325560000000  0.4706990000000  0.5374590000000 1.0
C      1  0.4950730000000  0.4566820000000  0.4675190000000 1.0
C      1  0.4882460000000  0.5165460000000  0.4724050000000 1.0
C      1  0.5544700000000  0.5153020000000  0.5000430000000 1.0
C      1  0.4888480000000  0.5591540000000  0.5357860000000 1.0
C      1  0.4528360000000  0.5403740000000  0.5444090000000 1.0
C      1  0.5909710000000  0.5435620000000  0.4982820000000 1.0
C      1  0.5041100000000  0.4684000000000  0.4170030000000 1.0
C      1  0.4828130000000  0.5042400000000  0.5733040000000 1.0
C      1  0.5091200000000  0.5836220000000  0.4969480000000 1.0
C      1  0.4581930000000  0.4906900000000  0.4767990000000 1.0
C      1  0.5227650000000  0.4741230000000  0.5130750000000 1.0
C      1  0.5277530000000  0.4815900000000  0.4084960000000 1.0
C      1  0.4573970000000  0.4661710000000  0.4224610000000 1.0
C      1  0.5648500000000  0.5033330000000  0.4363990000000 1.0
C      1  0.4778270000000  0.5652590000000  0.5632390000000 1.0
C      1  0.4287300000000  0.5209290000000  0.5407150000000 1.0
C      1  0.4062500000000  0.4811180000000  0.5512290000000 1.0
C      1  0.4502100000000  0.4169340000000  0.4940070000000 1.0
C      1  0.4557470000000  0.4612020000000  0.5139260000000 1.0
C      1  0.4585610000000  0.5295220000000  0.4672390000000 1.0
C      1  0.4502570000000  0.5632840000000  0.5265960000000 1.0
C      1  0.4515280000000  0.5759540000000  0.4670530000000 1.0
C      1  0.4613380000000  0.5351920000000  0.4995110000000 1.0
C      1  0.3713260000000  0.5370030000000  0.5853500000000 1.0
C      1  0.4536720000000  0.4439220000000  0.4406110000000 1.0
C      1  0.4762360000000  0.4768080000000  0.5662970000000 1.0
C      1  0.5247530000000  0.5038480000000  0.5052770000000 1.0
C      1  0.5015310000000  0.5285930000000  0.5343840000000 1.0
C      1  0.4770820000000  0.5436440000000  0.4349040000000 1.0
C      1  0.5212600000000  0.4249920000000  0.5029060000000 1.0
C      1  0.5513720000000  0.4810240000000  0.4240960000000 1.0
C      1  0.4752310000000  0.5663560000000  0.4541100000000 1.0
C      1  0.3881800000000  0.5231180000000  0.5708600000000 1.0
C      1  0.5042900000000  0.5325790000000  0.4313570000000 1.0
C      1  0.5664610000000  0.4651730000000  0.4706730000000 1.0
C      1  0.5770260000000  0.4919330000000  0.4596860000000 1.0
C      1  0.4811330000000  0.4813640000000  0.4287030000000 1.0
C      1  0.4876920000000  0.5494670000000  0.5032050000000 1.0
C      1  0.5604950000000  0.5340230000000  0.5222580000000 1.0
C      1  0.4929100000000  0.5858120000000  0.5190470000000 1.0
C      1  0.5164260000000  0.5151270000000  0.4554260000000 1.0
C      1  0.5112810000000  0.5039300000000  0.5805510000000 1.0
C      1  0.5229400000000  0.4397820000000  0.4722370000000 1.0
C      1  0.5396800000000  0.5119410000000  0.4693640000000 1.0
C      1  0.5410570000000  0.4580580000000  0.4924550000000 1.0
C      1  0.4865930000000  0.4194880000000  0.4780160000000 1.0
C      1  0.4355650000000  0.5000610000000  0.4359820000000 1.0
C      1  0.5638350000000  0.4422470000000  0.5635990000000 1.0
C      1  0.5018420000000  0.4630150000000  0.5533160000000 1.0
C      1  0.4973990000000  0.5652270000000  0.4740670000000 1.0
C      1  0.5788440000000  0.5107510000000  0.4794330000000 1.0
C      1  0.4942400000000  0.4453260000000  0.4989810000000 1.0
C      1  0.5923730000000  0.5405310000000  0.5322930000000 1.0
C      1  0.4450680000000  0.4447830000000  0.4895840000000 1.0
C      1  0.4767750000000  0.4104330000000  0.5077760000000 1.0
C      1  0.5679610000000  0.5665620000000  0.5146600000000 1.0
C      1  0.5682570000000  0.5412940000000  0.4730250000000 1.0
C      1  0.5125050000000  0.5303900000000  0.4920920000000 1.0
C      1  0.5342810000000  0.5350630000000  0.5409260000000 1.0
C      1  0.5972120000000  0.5128280000000  0.5141520000000 1.0
C      1  0.4685180000000  0.5704180000000  0.5864330000000 1.0
C      1  0.4851610000000  0.4847620000000  0.4605960000000 1.0
C      1  0.4814860000000  0.4324010000000  0.4479380000000 1.0
C      1  0.4757140000000  0.5263070000000  0.5544230000000 1.0
C      1  0.4998820000000  0.4945740000000  0.5384580000000 1.0
C      1  0.5345110000000  0.5440070000000  0.4347240000000 1.0
C      1  0.5035440000000  0.4334000000000  0.5459770000000 1.0
C      1  0.4797340000000  0.4227030000000  0.5343090000000 1.0
C      1  0.4057920000000  0.5371420000000  0.4996040000000 1.0
C      1  0.6029940000000  0.5520020000000  0.5541640000000 1.0
C      1  0.5276520000000  0.4270890000000  0.5331330000000 1.0
C      1  0.5600330000000  0.5318170000000  0.4413250000000 1.0
C      1  0.4884960000000  0.4709140000000  0.5166190000000 1.0
C      1  0.5329970000000  0.4737290000000  0.5454990000000 1.0
C      1  0.5544910000000  0.4359260000000  0.5389600000000 1.0
C      1  0.4412070000000  0.4971400000000  0.5235340000000 1.0
C      1  0.4536020000000  0.4615820000000  0.5605510000000 1.0
C      1  0.5694920000000  0.4402080000000  0.5140470000000 1.0
C      1  0.5529660000000  0.4252610000000  0.4932990000000 1.0
C      1  0.5375110000000  0.5748370000000  0.5030390000000 1.0
C      1  0.4356270000000  0.4829420000000  0.4596040000000 1.0
C      1  0.5280120000000  0.4781140000000  0.5791390000000 1.0
C      1  0.5217840000000  0.5545240000000  0.4597160000000 1.0
C      1  0.4550510000000  0.5041630000000  0.5007570000000 1.0
C      1  0.4059000000000  0.5085220000000  0.5556270000000 1.0
C      1  0.4437530000000  0.5710550000000  0.5000310000000 1.0
C      1  0.4581690000000  0.4403840000000  0.5393380000000 1.0
C      1  0.5797240000000  0.4635420000000  0.5009180000000 1.0
C      1  0.5293310000000  0.5068690000000  0.5521810000000 1.0
C      1  0.5409680000000  0.5659660000000  0.5354170000000 1.0
C      1  0.4383230000000  0.4535810000000  0.4631660000000 1.0
C      1  0.5399800000000  0.5490660000000  0.4842460000000 1.0
C      1  0.5920850000000  0.4871440000000  0.5099530000000 1.0
C      1  0.5539940000000  0.4578500000000  0.4415700000000 1.0
END
