TITL C-2778427-5640-662 -0.00568437929705657 125000 -587.952760725293 0 0 103 (C1) n - 1
REM
REM in /home/nfs/bkarasulu/CARBON/AIRSS/Generating-Clusters/REBO/Only-C1/SD-CG/HFTN-CG
REM
REM
REM
REM
REM
REM ./C.cell (11c1c37f851c82e70ff6c80c92926a4b)
REM
REM compiler GCC version 9.2.1 20190827 (Red Hat 9.2.1-1)
REM options -cpp -mtune=generic -march=x86-64 -g -O0 -fpre-include=/usr/include/finclude/math-vector-fortran.h
REM seed 695820015 -1810936186 -1848228493 1171201501 1312559528 -253498366 -601658174 1178132946 880663094 1677864585 -1345792 -1822081265 -2108669670 -1019549858 681076160 -948528531 -197847521 -467424175 -758814457 1452281888 -614898566 366863447 859573393 2127011021 -857689398 -628469104 -689424399 -377939204 2003688030 -614119606 -232583776 1561939725 1186548467
REM
CELL 1.54180   50.00000   50.00000   50.00000   90.00000   90.00000   90.00000
LATT -1
SFAC C  
C      1  0.4782770000000  0.4293660000000  0.4787440000000 1.0
C      1  0.4265130000000  0.4725970000000  0.4892210000000 1.0
C      1  0.5651080000000  0.4683020000000  0.5219740000000 1.0
C      1  0.5622230000000  0.4806060000000  0.4743020000000 1.0
C      1  0.4814980000000  0.4465180000000  0.4431940000000 1.0
C      1  0.4238990000000  0.5437800000000  0.4508240000000 1.0
C      1  0.5798340000000  0.5131820000000  0.5380100000000 1.0
C      1  0.4748250000000  0.5402560000000  0.5230770000000 1.0
C      1  0.5396700000000  0.5242600000000  0.5186460000000 1.0
C      1  0.4998800000000  0.5901210000000  0.5090730000000 1.0
C      1  0.4531380000000  0.5314150000000  0.4456180000000 1.0
C      1  0.5150590000000  0.5816010000000  0.5372900000000 1.0
C      1  0.4352330000000  0.4927810000000  0.5672670000000 1.0
C      1  0.4295690000000  0.4347650000000  0.4769030000000 1.0
C      1  0.4896610000000  0.4531320000000  0.5084770000000 1.0
C      1  0.4522920000000  0.4397150000000  0.4594360000000 1.0
C      1  0.5244250000000  0.5214720000000  0.4819570000000 1.0
C      1  0.5386730000000  0.5818670000000  0.5127430000000 1.0
C      1  0.4789350000000  0.4751670000000  0.4615720000000 1.0
C      1  0.4946370000000  0.5644130000000  0.4931150000000 1.0
C      1  0.5315710000000  0.4917540000000  0.5224500000000 1.0
C      1  0.5119260000000  0.4271140000000  0.5029060000000 1.0
C      1  0.5129060000000  0.4847200000000  0.5889870000000 1.0
C      1  0.5398810000000  0.5115750000000  0.4086020000000 1.0
C      1  0.5294660000000  0.5606490000000  0.5588770000000 1.0
C      1  0.4708660000000  0.4115920000000  0.5286260000000 1.0
C      1  0.4534200000000  0.5150550000000  0.4739550000000 1.0
C      1  0.4629760000000  0.5620120000000  0.4502770000000 1.0
C      1  0.5305260000000  0.5297880000000  0.5740920000000 1.0
C      1  0.4308850000000  0.4468340000000  0.5085960000000 1.0
C      1  0.4412240000000  0.4613020000000  0.5634330000000 1.0
C      1  0.5656360000000  0.5650080000000  0.5128980000000 1.0
C      1  0.5069510000000  0.4451300000000  0.5509330000000 1.0
C      1  0.5148480000000  0.5479260000000  0.4627940000000 1.0
C      1  0.5537640000000  0.4628150000000  0.5475720000000 1.0
C      1  0.5794720000000  0.5259530000000  0.4654210000000 1.0
C      1  0.4829060000000  0.5702180000000  0.5386280000000 1.0
C      1  0.5495230000000  0.5374900000000  0.5458680000000 1.0
C      1  0.5559040000000  0.4823500000000  0.4426150000000 1.0
C      1  0.5149140000000  0.4647710000000  0.5253330000000 1.0
C      1  0.4822250000000  0.5404770000000  0.5557370000000 1.0
C      1  0.4875770000000  0.5353280000000  0.4753670000000 1.0
C      1  0.5149810000000  0.5783520000000  0.4618130000000 1.0
C      1  0.5508710000000  0.4540160000000  0.5017370000000 1.0
C      1  0.4277910000000  0.5658730000000  0.4688640000000 1.0
C      1  0.5178720000000  0.4700650000000  0.4167550000000 1.0
C      1  0.4712640000000  0.4828850000000  0.4231630000000 1.0
C      1  0.4631930000000  0.5386780000000  0.4964970000000 1.0
C      1  0.4346690000000  0.5531680000000  0.4974900000000 1.0
C      1  0.5801160000000  0.5019450000000  0.4875280000000 1.0
C      1  0.5256800000000  0.4268290000000  0.5309750000000 1.0
C      1  0.4611240000000  0.4571210000000  0.5409010000000 1.0
C      1  0.5430200000000  0.4834540000000  0.4149590000000 1.0
C      1  0.4749720000000  0.4927120000000  0.4875420000000 1.0
C      1  0.5380750000000  0.4950520000000  0.4914520000000 1.0
C      1  0.4384240000000  0.4967040000000  0.5187800000000 1.0
C      1  0.5371380000000  0.5327010000000  0.4364380000000 1.0
C      1  0.5830580000000  0.5421840000000  0.5248070000000 1.0
C      1  0.5256850000000  0.4645450000000  0.4843580000000 1.0
C      1  0.5586530000000  0.5437590000000  0.4605440000000 1.0
C      1  0.4969460000000  0.5146270000000  0.5289600000000 1.0
C      1  0.5087610000000  0.4851540000000  0.4662530000000 1.0
C      1  0.4213640000000  0.4852640000000  0.5392340000000 1.0
C      1  0.5070450000000  0.5123730000000  0.5852410000000 1.0
C      1  0.5660620000000  0.5265270000000  0.5029620000000 1.0
C      1  0.5563240000000  0.5639020000000  0.4818390000000 1.0
C      1  0.4602250000000  0.4359980000000  0.5070190000000 1.0
C      1  0.4215820000000  0.4542800000000  0.5364580000000 1.0
C      1  0.5794980000000  0.4923440000000  0.5184280000000 1.0
C      1  0.4425350000000  0.5371900000000  0.5467860000000 1.0
C      1  0.5096350000000  0.5211950000000  0.4175880000000 1.0
C      1  0.5324600000000  0.4184670000000  0.4770930000000 1.0
C      1  0.5341680000000  0.5856800000000  0.4815980000000 1.0
C      1  0.5139620000000  0.5426550000000  0.5060760000000 1.0
C      1  0.4061210000000  0.5264180000000  0.4664920000000 1.0
C      1  0.4969400000000  0.5132690000000  0.4544500000000 1.0
C      1  0.4865880000000  0.4067760000000  0.5026740000000 1.0
C      1  0.5362370000000  0.4875120000000  0.5555520000000 1.0
C      1  0.5000950000000  0.5059380000000  0.4992280000000 1.0
C      1  0.5127380000000  0.4601170000000  0.5774600000000 1.0
C      1  0.4808150000000  0.5195750000000  0.5767950000000 1.0
C      1  0.5046330000000  0.4456130000000  0.4684600000000 1.0
C      1  0.5134840000000  0.4452450000000  0.4350800000000 1.0
C      1  0.4636150000000  0.4754310000000  0.5124030000000 1.0
C      1  0.5568090000000  0.5107010000000  0.5630310000000 1.0
C      1  0.5287420000000  0.5023290000000  0.4471220000000 1.0
C      1  0.4837450000000  0.5730180000000  0.4626860000000 1.0
C      1  0.4511590000000  0.5172050000000  0.5669650000000 1.0
C      1  0.5386580000000  0.4326910000000  0.4526450000000 1.0
C      1  0.5031690000000  0.4935070000000  0.5502420000000 1.0
C      1  0.4385790000000  0.4875040000000  0.4697020000000 1.0
C      1  0.4968540000000  0.4894690000000  0.4165250000000 1.0
C      1  0.4501180000000  0.4707060000000  0.4453950000000 1.0
C      1  0.4326940000000  0.5267540000000  0.5192700000000 1.0
C      1  0.4510420000000  0.5634430000000  0.5464890000000 1.0
C      1  0.5516700000000  0.4257260000000  0.4989010000000 1.0
C      1  0.5108520000000  0.5421130000000  0.5395080000000 1.0
C      1  0.4828340000000  0.4822040000000  0.5627800000000 1.0
C      1  0.5458010000000  0.4358740000000  0.5497030000000 1.0
C      1  0.4105230000000  0.5301570000000  0.4936280000000 1.0
C      1  0.4781650000000  0.5218490000000  0.4300440000000 1.0
C      1  0.4785520000000  0.4354780000000  0.5451660000000 1.0
C      1  0.5589010000000  0.4524990000000  0.4560560000000 1.0
END
