TITL C-2778428-5639-7 0.00832394435891835 125000 -1074.80156438449 0 0 182 (C1) n - 1
REM
REM in /home/nfs/bkarasulu/CARBON/AIRSS/Generating-Clusters/REBO/Only-C1/SD-CG/HFTN-CG
REM
REM
REM
REM
REM
REM ./C.cell (11c1c37f851c82e70ff6c80c92926a4b)
REM
REM compiler GCC version 9.2.1 20190827 (Red Hat 9.2.1-1)
REM options -cpp -mtune=generic -march=x86-64 -g -O0 -fpre-include=/usr/include/finclude/math-vector-fortran.h
REM seed -662426491 -1444170420 1539146078 1751239393 -1612839608 1858111379 1241570399 -1356870112 -208685407 -1813581329 460965392 81415862 -1298188069 -133163431 1949242697 109082232 -1116099677 -841066086 -391636585 2065536670 766030398 -854154234 -481959992 849852436 -1748807861 1840233227 -448955448 1850632310 -710129433 1402785332 1285424106 889841993 568895694
REM
CELL 1.54180   50.00000   50.00000   50.00000   90.00000   90.00000   90.00000
LATT -1
SFAC C  
C      1  0.4838610000000  0.5593270000000  0.5676490000000 1.0
C      1  0.5199210000000  0.4434300000000  0.4564000000000 1.0
C      1  0.4480280000000  0.4106840000000  0.5120370000000 1.0
C      1  0.5083000000000  0.4088740000000  0.4402820000000 1.0
C      1  0.5796560000000  0.5054220000000  0.4799420000000 1.0
C      1  0.4115860000000  0.5488950000000  0.4863840000000 1.0
C      1  0.4918540000000  0.5902810000000  0.5353480000000 1.0
C      1  0.4369100000000  0.6014800000000  0.5405610000000 1.0
C      1  0.4387930000000  0.5834990000000  0.4645600000000 1.0
C      1  0.5983430000000  0.5345130000000  0.5009800000000 1.0
C      1  0.5370190000000  0.5065530000000  0.5159600000000 1.0
C      1  0.3924780000000  0.5407310000000  0.5066440000000 1.0
C      1  0.5548830000000  0.5355530000000  0.5818210000000 1.0
C      1  0.5525580000000  0.4342930000000  0.5666860000000 1.0
C      1  0.6040020000000  0.5006010000000  0.4559360000000 1.0
C      1  0.5513780000000  0.4580080000000  0.5862800000000 1.0
C      1  0.5533620000000  0.4417110000000  0.4782590000000 1.0
C      1  0.5378560000000  0.3960070000000  0.5427320000000 1.0
C      1  0.4607860000000  0.5793860000000  0.5305010000000 1.0
C      1  0.4816940000000  0.5245950000000  0.4932980000000 1.0
C      1  0.5175630000000  0.4696150000000  0.4778810000000 1.0
C      1  0.4897080000000  0.6001880000000  0.4813620000000 1.0
C      1  0.5764600000000  0.4722670000000  0.5389150000000 1.0
C      1  0.6059550000000  0.4834440000000  0.4846770000000 1.0
C      1  0.4792380000000  0.4462590000000  0.4917950000000 1.0
C      1  0.4392490000000  0.4964680000000  0.5683080000000 1.0
C      1  0.5652720000000  0.5107330000000  0.5312600000000 1.0
C      1  0.5347250000000  0.5475900000000  0.5498630000000 1.0
C      1  0.5352760000000  0.4584100000000  0.4304250000000 1.0
C      1  0.5233360000000  0.4567470000000  0.5955640000000 1.0
C      1  0.5104100000000  0.5776500000000  0.5599730000000 1.0
C      1  0.4160570000000  0.4924210000000  0.4787180000000 1.0
C      1  0.4808810000000  0.5227810000000  0.3943240000000 1.0
C      1  0.4695930000000  0.5262680000000  0.5253640000000 1.0
C      1  0.4292800000000  0.5296390000000  0.5173260000000 1.0
C      1  0.5585770000000  0.4940120000000  0.6005470000000 1.0
C      1  0.5020190000000  0.4170990000000  0.5485420000000 1.0
C      1  0.4459770000000  0.5745670000000  0.4357430000000 1.0
C      1  0.5895260000000  0.5430880000000  0.5656110000000 1.0
C      1  0.5216110000000  0.5344920000000  0.4512180000000 1.0
C      1  0.5645570000000  0.5368640000000  0.5010240000000 1.0
C      1  0.4377630000000  0.4752630000000  0.4656940000000 1.0
C      1  0.5174900000000  0.5000010000000  0.5383190000000 1.0
C      1  0.5652080000000  0.4668500000000  0.5069500000000 1.0
C      1  0.4318370000000  0.4542590000000  0.5277100000000 1.0
C      1  0.5310040000000  0.4811690000000  0.5610380000000 1.0
C      1  0.5285550000000  0.4528120000000  0.5250870000000 1.0
C      1  0.4794240000000  0.4340400000000  0.5202770000000 1.0
C      1  0.4589680000000  0.6080230000000  0.4689750000000 1.0
C      1  0.4163150000000  0.4560590000000  0.5645100000000 1.0
C      1  0.4757700000000  0.5385810000000  0.6008020000000 1.0
C      1  0.4200620000000  0.5784280000000  0.5229270000000 1.0
C      1  0.5569170000000  0.4903260000000  0.4406480000000 1.0
C      1  0.5606500000000  0.5814630000000  0.5257640000000 1.0
C      1  0.5440270000000  0.5967210000000  0.4757040000000 1.0
C      1  0.4728570000000  0.4463720000000  0.4071180000000 1.0
C      1  0.5209130000000  0.6096820000000  0.4714480000000 1.0
C      1  0.4159960000000  0.5827740000000  0.4893920000000 1.0
C      1  0.5298440000000  0.4376550000000  0.4982770000000 1.0
C      1  0.5311350000000  0.5839050000000  0.5336500000000 1.0
C      1  0.5501110000000  0.5759520000000  0.4198680000000 1.0
C      1  0.5237100000000  0.4459410000000  0.4031240000000 1.0
C      1  0.4741130000000  0.4752340000000  0.6080550000000 1.0
C      1  0.5633610000000  0.5851960000000  0.4978280000000 1.0
C      1  0.4055980000000  0.4895990000000  0.4336320000000 1.0
C      1  0.5070920000000  0.4701810000000  0.5073080000000 1.0
C      1  0.4426420000000  0.5394990000000  0.5924110000000 1.0
C      1  0.4419080000000  0.4468600000000  0.4780130000000 1.0
C      1  0.4387290000000  0.6020720000000  0.5062730000000 1.0
C      1  0.5089220000000  0.4333990000000  0.5855950000000 1.0
C      1  0.4898730000000  0.4044180000000  0.4643100000000 1.0
C      1  0.4836930000000  0.4802930000000  0.5153850000000 1.0
C      1  0.4228420000000  0.5326560000000  0.4205180000000 1.0
C      1  0.4592550000000  0.5657130000000  0.5868620000000 1.0
C      1  0.5359940000000  0.4741070000000  0.3938200000000 1.0
C      1  0.5190910000000  0.5641560000000  0.4888570000000 1.0
C      1  0.5883800000000  0.5275380000000  0.4479350000000 1.0
C      1  0.5183430000000  0.3910820000000  0.5230660000000 1.0
C      1  0.4351740000000  0.4730090000000  0.4339020000000 1.0
C      1  0.4070010000000  0.5168670000000  0.4393080000000 1.0
C      1  0.5062850000000  0.4791080000000  0.3892290000000 1.0
C      1  0.6026820000000  0.4740170000000  0.5174850000000 1.0
C      1  0.4893870000000  0.4995920000000  0.4759390000000 1.0
C      1  0.4857490000000  0.5604300000000  0.4110270000000 1.0
C      1  0.5347020000000  0.5629870000000  0.5788990000000 1.0
C      1  0.5109500000000  0.5249970000000  0.5531130000000 1.0
C      1  0.4447940000000  0.5563450000000  0.4842790000000 1.0
C      1  0.5894370000000  0.4567830000000  0.4843930000000 1.0
C      1  0.4996340000000  0.4314120000000  0.4191580000000 1.0
C      1  0.5833220000000  0.5445250000000  0.4732810000000 1.0
C      1  0.4724320000000  0.6040010000000  0.5104920000000 1.0
C      1  0.5100890000000  0.5894000000000  0.5074200000000 1.0
C      1  0.5140730000000  0.5479370000000  0.4012280000000 1.0
C      1  0.4750110000000  0.5776100000000  0.4339890000000 1.0
C      1  0.4484820000000  0.5134330000000  0.4695490000000 1.0
C      1  0.5242080000000  0.3986750000000  0.4921110000000 1.0
C      1  0.5503780000000  0.4965400000000  0.4116550000000 1.0
C      1  0.4809370000000  0.5308210000000  0.5535620000000 1.0
C      1  0.3963440000000  0.5207820000000  0.5305070000000 1.0
C      1  0.4612740000000  0.4502380000000  0.5399100000000 1.0
C      1  0.4889280000000  0.5733090000000  0.4614550000000 1.0
C      1  0.5521080000000  0.5442120000000  0.4487290000000 1.0
C      1  0.4685140000000  0.4535490000000  0.5669230000000 1.0
C      1  0.4805290000000  0.4305870000000  0.5791850000000 1.0
C      1  0.5724200000000  0.5149700000000  0.5631400000000 1.0
C      1  0.5533630000000  0.5138270000000  0.4640080000000 1.0
C      1  0.5323210000000  0.5370300000000  0.5045480000000 1.0
C      1  0.5642410000000  0.4007410000000  0.5333880000000 1.0
C      1  0.4621950000000  0.5009560000000  0.4431180000000 1.0
C      1  0.5360180000000  0.5821130000000  0.4395650000000 1.0
C      1  0.4427840000000  0.4238810000000  0.4359930000000 1.0
C      1  0.4717240000000  0.4075080000000  0.5594300000000 1.0
C      1  0.5308140000000  0.4953870000000  0.5886870000000 1.0
C      1  0.5422740000000  0.4847480000000  0.4958960000000 1.0
C      1  0.6074000000000  0.5482010000000  0.5844100000000 1.0
C      1  0.4263800000000  0.5238900000000  0.5763290000000 1.0
C      1  0.4694270000000  0.4758800000000  0.4782990000000 1.0
C      1  0.4576690000000  0.4086690000000  0.4601130000000 1.0
C      1  0.6074600000000  0.5545160000000  0.5199200000000 1.0
C      1  0.5285850000000  0.4139530000000  0.5669750000000 1.0
C      1  0.5550010000000  0.4348380000000  0.4393070000000 1.0
C      1  0.4367270000000  0.4360010000000  0.5031290000000 1.0
C      1  0.4044880000000  0.4751230000000  0.5443570000000 1.0
C      1  0.4801940000000  0.4807390000000  0.5750190000000 1.0
C      1  0.4087840000000  0.5351850000000  0.5576020000000 1.0
C      1  0.4604870000000  0.5549470000000  0.5118640000000 1.0
C      1  0.3985650000000  0.4857470000000  0.4981250000000 1.0
C      1  0.5168840000000  0.4815560000000  0.4460950000000 1.0
C      1  0.4864270000000  0.4019600000000  0.5226590000000 1.0
C      1  0.5876820000000  0.4425020000000  0.5139850000000 1.0
C      1  0.3931610000000  0.4921310000000  0.5250630000000 1.0
C      1  0.5002210000000  0.5038250000000  0.4064570000000 1.0
C      1  0.5005570000000  0.4744180000000  0.5529890000000 1.0
C      1  0.4994640000000  0.5364300000000  0.4293990000000 1.0
C      1  0.4607800000000  0.5504980000000  0.3944310000000 1.0
C      1  0.4898090000000  0.4524600000000  0.4427520000000 1.0
C      1  0.4497940000000  0.5185230000000  0.3947530000000 1.0
C      1  0.5056630000000  0.5501320000000  0.5913230000000 1.0
C      1  0.5011620000000  0.4475930000000  0.5396770000000 1.0
C      1  0.5208130000000  0.5071090000000  0.4652980000000 1.0
C      1  0.5879690000000  0.5045250000000  0.5129160000000 1.0
C      1  0.5285850000000  0.5187490000000  0.4085270000000 1.0
C      1  0.4374030000000  0.5558880000000  0.4158950000000 1.0
C      1  0.5369680000000  0.4138580000000  0.4551180000000 1.0
C      1  0.4882170000000  0.4849170000000  0.4322360000000 1.0
C      1  0.5027210000000  0.4249740000000  0.4873560000000 1.0
C      1  0.5191640000000  0.5651330000000  0.4587540000000 1.0
C      1  0.4684670000000  0.5106780000000  0.5731730000000 1.0
C      1  0.5066720000000  0.4832490000000  0.6048640000000 1.0
C      1  0.4833920000000  0.4627000000000  0.3859690000000 1.0
C      1  0.5650760000000  0.5253230000000  0.4233180000000 1.0
C      1  0.5707270000000  0.4819120000000  0.5711180000000 1.0
C      1  0.4609560000000  0.3969630000000  0.4907020000000 1.0
C      1  0.4492500000000  0.4474000000000  0.4230900000000 1.0
C      1  0.5596270000000  0.5425060000000  0.5344630000000 1.0
C      1  0.5801440000000  0.4438240000000  0.4562840000000 1.0
C      1  0.4726030000000  0.5485950000000  0.4716750000000 1.0
C      1  0.4285080000000  0.4308910000000  0.5517440000000 1.0
C      1  0.4827670000000  0.5077090000000  0.6041030000000 1.0
C      1  0.4204230000000  0.5519680000000  0.5346440000000 1.0
C      1  0.5144750000000  0.5551340000000  0.5272720000000 1.0
C      1  0.4308940000000  0.4711700000000  0.5844730000000 1.0
C      1  0.4391720000000  0.4850840000000  0.5384730000000 1.0
C      1  0.5531210000000  0.4084290000000  0.4846410000000 1.0
C      1  0.5463430000000  0.5483010000000  0.4075220000000 1.0
C      1  0.4629860000000  0.4957070000000  0.5235860000000 1.0
C      1  0.4921760000000  0.3870110000000  0.4934810000000 1.0
C      1  0.5844830000000  0.5621970000000  0.5404900000000 1.0
C      1  0.5619160000000  0.5686670000000  0.4681630000000 1.0
C      1  0.4426170000000  0.5177130000000  0.4971540000000 1.0
C      1  0.4693450000000  0.4399840000000  0.4610680000000 1.0
C      1  0.5486320000000  0.4594240000000  0.5466040000000 1.0
C      1  0.5245120000000  0.5247480000000  0.5825710000000 1.0
C      1  0.4403590000000  0.5031130000000  0.4196230000000 1.0
C      1  0.4480150000000  0.4102330000000  0.5426800000000 1.0
C      1  0.4829330000000  0.5246040000000  0.4533310000000 1.0
C      1  0.4161890000000  0.5232090000000  0.4677220000000 1.0
C      1  0.5726170000000  0.4145070000000  0.5111780000000 1.0
C      1  0.5847330000000  0.4757670000000  0.4495840000000 1.0
C      1  0.4925750000000  0.5525250000000  0.5059120000000 1.0
C      1  0.5561710000000  0.4728900000000  0.4686430000000 1.0
C      1  0.4450050000000  0.4659430000000  0.6071950000000 1.0
END
