TITL C-2778428-5639-182 -0.000498179719417072 125000 -540.503152091926 0 0 94 (C1) n - 1
REM
REM in /home/nfs/bkarasulu/CARBON/AIRSS/Generating-Clusters/REBO/Only-C1/SD-CG/HFTN-CG
REM
REM
REM
REM
REM
REM ./C.cell (11c1c37f851c82e70ff6c80c92926a4b)
REM
REM compiler GCC version 9.2.1 20190827 (Red Hat 9.2.1-1)
REM options -cpp -mtune=generic -march=x86-64 -g -O0 -fpre-include=/usr/include/finclude/math-vector-fortran.h
REM seed -1383849240 302731504 -951780596 1936136501 -1219066906 1619972848 -1860327383 1658072901 -2053645439 -1084141907 -1185671047 -1617164743 -425245614 -953384762 765776414 -953174838 760387871 -1877033184 -1135279217 -1541253662 -1232788849 1616568386 -1609435586 554138837 946641567 -2092640163 -866188741 1622164397 -775012931 456110305 1442761495 343574149 -1382270184
REM
CELL 1.54180   50.00000   50.00000   50.00000   90.00000   90.00000   90.00000
LATT -1
SFAC C  
C      1  0.5286910000000  0.4320910000000  0.5021640000000 1.0
C      1  0.5806760000000  0.5206300000000  0.4985750000000 1.0
C      1  0.5076240000000  0.4737690000000  0.4603070000000 1.0
C      1  0.4167500000000  0.5259480000000  0.4726280000000 1.0
C      1  0.5150060000000  0.4678840000000  0.5528410000000 1.0
C      1  0.4369530000000  0.4201540000000  0.5508890000000 1.0
C      1  0.4912400000000  0.4644560000000  0.4848240000000 1.0
C      1  0.5261920000000  0.5737300000000  0.5207050000000 1.0
C      1  0.5818710000000  0.4955320000000  0.5491770000000 1.0
C      1  0.4492210000000  0.4648470000000  0.4323710000000 1.0
C      1  0.4200210000000  0.5149660000000  0.5213560000000 1.0
C      1  0.5496930000000  0.4839160000000  0.5175830000000 1.0
C      1  0.5012400000000  0.5888700000000  0.5093850000000 1.0
C      1  0.4726570000000  0.4452780000000  0.4315460000000 1.0
C      1  0.4642670000000  0.5534960000000  0.4977460000000 1.0
C      1  0.4670890000000  0.5091320000000  0.5350240000000 1.0
C      1  0.4508490000000  0.5842300000000  0.5008790000000 1.0
C      1  0.4700890000000  0.4563460000000  0.5482210000000 1.0
C      1  0.4294930000000  0.4970530000000  0.4597770000000 1.0
C      1  0.4481040000000  0.4890970000000  0.5547630000000 1.0
C      1  0.5401480000000  0.5349480000000  0.5661140000000 1.0
C      1  0.5824520000000  0.5053750000000  0.4677480000000 1.0
C      1  0.4287820000000  0.4542380000000  0.5145800000000 1.0
C      1  0.5300930000000  0.5018020000000  0.4255070000000 1.0
C      1  0.5617710000000  0.4294480000000  0.5043710000000 1.0
C      1  0.4382460000000  0.5478530000000  0.4578780000000 1.0
C      1  0.4927600000000  0.5480950000000  0.5776610000000 1.0
C      1  0.5411180000000  0.5244140000000  0.4833550000000 1.0
C      1  0.5700350000000  0.5279620000000  0.4455200000000 1.0
C      1  0.4457760000000  0.4428810000000  0.5385290000000 1.0
C      1  0.5756650000000  0.4971620000000  0.5212640000000 1.0
C      1  0.4566900000000  0.4961510000000  0.5835480000000 1.0
C      1  0.5397680000000  0.4751420000000  0.5729660000000 1.0
C      1  0.4480440000000  0.5311590000000  0.5265760000000 1.0
C      1  0.5613500000000  0.4240770000000  0.4473810000000 1.0
C      1  0.5046070000000  0.5545490000000  0.5292330000000 1.0
C      1  0.4862400000000  0.5087290000000  0.5615040000000 1.0
C      1  0.5266130000000  0.3847500000000  0.4852710000000 1.0
C      1  0.5664560000000  0.4633930000000  0.4473560000000 1.0
C      1  0.5016400000000  0.4993420000000  0.4424230000000 1.0
C      1  0.4163860000000  0.5022100000000  0.4969940000000 1.0
C      1  0.5477610000000  0.4458090000000  0.4699190000000 1.0
C      1  0.4746150000000  0.4355860000000  0.4627820000000 1.0
C      1  0.5477130000000  0.5262700000000  0.5406950000000 1.0
C      1  0.5486670000000  0.5618020000000  0.5081100000000 1.0
C      1  0.4422290000000  0.5718690000000  0.4703790000000 1.0
C      1  0.4802760000000  0.4742450000000  0.5728500000000 1.0
C      1  0.4592510000000  0.4585950000000  0.4804230000000 1.0
C      1  0.4345160000000  0.6060300000000  0.5070610000000 1.0
C      1  0.4599480000000  0.4776780000000  0.5057880000000 1.0
C      1  0.4353340000000  0.4667030000000  0.4608950000000 1.0
C      1  0.4540350000000  0.5132230000000  0.4694960000000 1.0
C      1  0.5221240000000  0.5454130000000  0.4553440000000 1.0
C      1  0.4925680000000  0.4182450000000  0.4724810000000 1.0
C      1  0.4859650000000  0.5628470000000  0.5528070000000 1.0
C      1  0.4697780000000  0.5262740000000  0.5848910000000 1.0
C      1  0.5636920000000  0.4852280000000  0.5674220000000 1.0
C      1  0.5007980000000  0.5224030000000  0.4631530000000 1.0
C      1  0.5089640000000  0.4845280000000  0.4060280000000 1.0
C      1  0.5538830000000  0.4816440000000  0.4325930000000 1.0
C      1  0.4398600000000  0.4808650000000  0.5277100000000 1.0
C      1  0.5012460000000  0.5900940000000  0.4810970000000 1.0
C      1  0.4527500000000  0.5511790000000  0.5716650000000 1.0
C      1  0.5216400000000  0.5194190000000  0.5019940000000 1.0
C      1  0.4560750000000  0.4888490000000  0.4206660000000 1.0
C      1  0.5036980000000  0.4935970000000  0.5384940000000 1.0
C      1  0.4973240000000  0.5127540000000  0.4902510000000 1.0
C      1  0.4742420000000  0.5802400000000  0.5253990000000 1.0
C      1  0.5094250000000  0.4663490000000  0.5858710000000 1.0
C      1  0.4966160000000  0.4610370000000  0.4126010000000 1.0
C      1  0.5842940000000  0.4355330000000  0.4899610000000 1.0
C      1  0.5097840000000  0.5745420000000  0.4606440000000 1.0
C      1  0.5295510000000  0.5053320000000  0.5271630000000 1.0
C      1  0.4438800000000  0.5310370000000  0.4936420000000 1.0
C      1  0.5861390000000  0.4399820000000  0.4614220000000 1.0
C      1  0.4743420000000  0.5088580000000  0.4294280000000 1.0
C      1  0.4948960000000  0.4549080000000  0.5334640000000 1.0
C      1  0.4884590000000  0.5474860000000  0.5074150000000 1.0
C      1  0.5362030000000  0.4768190000000  0.4698010000000 1.0
C      1  0.4550170000000  0.5566190000000  0.5414110000000 1.0
C      1  0.5750070000000  0.5427270000000  0.4731700000000 1.0
C      1  0.5044690000000  0.4504110000000  0.4410230000000 1.0
C      1  0.5039380000000  0.4520950000000  0.5073820000000 1.0
C      1  0.4620740000000  0.5304830000000  0.4452000000000 1.0
C      1  0.5190440000000  0.5425940000000  0.5813380000000 1.0
C      1  0.5626860000000  0.5398300000000  0.5202330000000 1.0
C      1  0.4226090000000  0.4743390000000  0.4916610000000 1.0
C      1  0.5157380000000  0.4100900000000  0.4859620000000 1.0
C      1  0.5517700000000  0.5024080000000  0.4701240000000 1.0
C      1  0.4837320000000  0.4958510000000  0.5110100000000 1.0
C      1  0.5091870000000  0.4558340000000  0.6111850000000 1.0
C      1  0.5460280000000  0.5563150000000  0.4772750000000 1.0
C      1  0.5424580000000  0.5288560000000  0.4360730000000 1.0
C      1  0.5413360000000  0.4631660000000  0.4986110000000 1.0
END
