TITL C-2778427-5640-663 0.00173995050485927 125000 -651.471969571626 0 0 114 (C1) n - 1
REM
REM in /home/nfs/bkarasulu/CARBON/AIRSS/Generating-Clusters/REBO/Only-C1/SD-CG/HFTN-CG
REM
REM
REM
REM
REM
REM ./C.cell (11c1c37f851c82e70ff6c80c92926a4b)
REM
REM compiler GCC version 9.2.1 20190827 (Red Hat 9.2.1-1)
REM options -cpp -mtune=generic -march=x86-64 -g -O0 -fpre-include=/usr/include/finclude/math-vector-fortran.h
REM seed 99402402 1943922645 -440661471 1535290963 -1636264872 785228750 -1506490674 -104774881 1161858242 -565598882 170866838 1786344040 1076621648 -2077313485 -1425665057 1180807547 823106727 -1176892694 -5921322 -1350710118 177562214 -1819066457 469299973 -993764128 -938053 -933983608 1361047440 121776680 586151626 -1288919420 -274774225 944842504 1092687773
REM
CELL 1.54180   50.00000   50.00000   50.00000   90.00000   90.00000   90.00000
LATT -1
SFAC C  
C      1  0.5557740000000  0.4942220000000  0.4228460000000 1.0
C      1  0.5036440000000  0.5323440000000  0.4666130000000 1.0
C      1  0.4415640000000  0.5222630000000  0.4624080000000 1.0
C      1  0.5811530000000  0.4760230000000  0.4779980000000 1.0
C      1  0.4708890000000  0.4177930000000  0.5017520000000 1.0
C      1  0.4102240000000  0.5353230000000  0.5239630000000 1.0
C      1  0.4379730000000  0.5657200000000  0.4846920000000 1.0
C      1  0.5147310000000  0.4558140000000  0.4897660000000 1.0
C      1  0.5497010000000  0.5731510000000  0.5329400000000 1.0
C      1  0.4762920000000  0.4312090000000  0.5506770000000 1.0
C      1  0.5040420000000  0.5649480000000  0.5467930000000 1.0
C      1  0.4667530000000  0.4377190000000  0.4398800000000 1.0
C      1  0.4638020000000  0.5155910000000  0.4852500000000 1.0
C      1  0.4419180000000  0.5420140000000  0.5615970000000 1.0
C      1  0.5184650000000  0.5839330000000  0.5235930000000 1.0
C      1  0.4785350000000  0.5706060000000  0.5610990000000 1.0
C      1  0.5599470000000  0.5684570000000  0.4837710000000 1.0
C      1  0.4933250000000  0.5548830000000  0.5097970000000 1.0
C      1  0.5037430000000  0.4851980000000  0.5469650000000 1.0
C      1  0.5193910000000  0.5309550000000  0.5611760000000 1.0
C      1  0.4673580000000  0.5469500000000  0.5703930000000 1.0
C      1  0.5515350000000  0.4420560000000  0.5576990000000 1.0
C      1  0.4673540000000  0.4917310000000  0.4611440000000 1.0
C      1  0.5844460000000  0.5078780000000  0.4897460000000 1.0
C      1  0.5396600000000  0.5439260000000  0.5074500000000 1.0
C      1  0.5858390000000  0.5310300000000  0.4666880000000 1.0
C      1  0.4774230000000  0.5380830000000  0.4552600000000 1.0
C      1  0.5263130000000  0.5426020000000  0.4538890000000 1.0
C      1  0.4105520000000  0.4995050000000  0.4732140000000 1.0
C      1  0.4391890000000  0.4570070000000  0.4428790000000 1.0
C      1  0.4270460000000  0.4737880000000  0.5418990000000 1.0
C      1  0.5646870000000  0.5359270000000  0.5622350000000 1.0
C      1  0.5376050000000  0.5064750000000  0.4943320000000 1.0
C      1  0.5707600000000  0.4436150000000  0.4745780000000 1.0
C      1  0.5233280000000  0.4460120000000  0.5440460000000 1.0
C      1  0.5565350000000  0.5100600000000  0.5214760000000 1.0
C      1  0.5697930000000  0.5380280000000  0.4960360000000 1.0
C      1  0.4277900000000  0.4865250000000  0.4518250000000 1.0
C      1  0.5659440000000  0.4265540000000  0.5389160000000 1.0
C      1  0.5056440000000  0.4699500000000  0.4607120000000 1.0
C      1  0.5555710000000  0.5449460000000  0.4595370000000 1.0
C      1  0.4855550000000  0.5831360000000  0.4604170000000 1.0
C      1  0.4833270000000  0.4991820000000  0.4058630000000 1.0
C      1  0.5433170000000  0.5122360000000  0.5742850000000 1.0
C      1  0.5443980000000  0.4625920000000  0.4846380000000 1.0
C      1  0.5869960000000  0.4833360000000  0.5111100000000 1.0
C      1  0.4517340000000  0.4946770000000  0.4074470000000 1.0
C      1  0.4752700000000  0.5079110000000  0.5163590000000 1.0
C      1  0.5172950000000  0.4320120000000  0.4580920000000 1.0
C      1  0.5179900000000  0.4264740000000  0.5166720000000 1.0
C      1  0.5502150000000  0.4615980000000  0.4319110000000 1.0
C      1  0.4184700000000  0.4540910000000  0.4980290000000 1.0
C      1  0.4922520000000  0.4879420000000  0.4823550000000 1.0
C      1  0.4943540000000  0.4482020000000  0.4389030000000 1.0
C      1  0.4884980000000  0.5246980000000  0.5650520000000 1.0
C      1  0.5785500000000  0.5246460000000  0.5401530000000 1.0
C      1  0.5457610000000  0.4130630000000  0.5165540000000 1.0
C      1  0.4164010000000  0.4783930000000  0.5152540000000 1.0
C      1  0.5197550000000  0.5484400000000  0.4234270000000 1.0
C      1  0.4653370000000  0.5630050000000  0.4645100000000 1.0
C      1  0.5185710000000  0.4977750000000  0.5219710000000 1.0
C      1  0.4450850000000  0.4379940000000  0.5123080000000 1.0
C      1  0.4963060000000  0.4732950000000  0.4186160000000 1.0
C      1  0.5103650000000  0.5756630000000  0.4395480000000 1.0
C      1  0.5152040000000  0.5760170000000  0.4724460000000 1.0
C      1  0.5250490000000  0.4886970000000  0.4471050000000 1.0
C      1  0.5000650000000  0.5253950000000  0.4118610000000 1.0
C      1  0.5270220000000  0.4770640000000  0.4143300000000 1.0
C      1  0.4653970000000  0.4770460000000  0.4335750000000 1.0
C      1  0.4249210000000  0.5158680000000  0.5482560000000 1.0
C      1  0.5510660000000  0.4914790000000  0.4681010000000 1.0
C      1  0.4724330000000  0.4101380000000  0.5298650000000 1.0
C      1  0.4711880000000  0.5217170000000  0.4294850000000 1.0
C      1  0.4618400000000  0.5637580000000  0.5062580000000 1.0
C      1  0.4445230000000  0.4807550000000  0.4819420000000 1.0
C      1  0.4724610000000  0.4510300000000  0.5742380000000 1.0
C      1  0.5185850000000  0.5573600000000  0.4938990000000 1.0
C      1  0.5286920000000  0.5150690000000  0.4254560000000 1.0
C      1  0.5255520000000  0.5606140000000  0.5690720000000 1.0
C      1  0.5007080000000  0.4259030000000  0.4874530000000 1.0
C      1  0.5651570000000  0.5142090000000  0.4477300000000 1.0
C      1  0.5640820000000  0.4927410000000  0.5592760000000 1.0
C      1  0.5639100000000  0.4599270000000  0.5101070000000 1.0
C      1  0.4851600000000  0.4976540000000  0.5797040000000 1.0
C      1  0.5525700000000  0.5621640000000  0.5587180000000 1.0
C      1  0.4622670000000  0.4796960000000  0.5773680000000 1.0
C      1  0.4286380000000  0.5048220000000  0.5005490000000 1.0
C      1  0.4595840000000  0.4322280000000  0.4665910000000 1.0
C      1  0.4359120000000  0.5511730000000  0.5338780000000 1.0
C      1  0.4517920000000  0.5039460000000  0.5330810000000 1.0
C      1  0.4226530000000  0.5411890000000  0.4697810000000 1.0
C      1  0.4105980000000  0.5492530000000  0.4977850000000 1.0
C      1  0.5528370000000  0.4797690000000  0.5315790000000 1.0
C      1  0.4192220000000  0.4521710000000  0.4700790000000 1.0
C      1  0.4460950000000  0.5334340000000  0.5067520000000 1.0
C      1  0.4408540000000  0.5085780000000  0.4340380000000 1.0
C      1  0.4756030000000  0.4694520000000  0.5393080000000 1.0
C      1  0.4919880000000  0.5330040000000  0.5321760000000 1.0
C      1  0.5084310000000  0.5126410000000  0.4852710000000 1.0
C      1  0.5026270000000  0.4566530000000  0.5660630000000 1.0
C      1  0.5243440000000  0.4658310000000  0.5188540000000 1.0
C      1  0.5891640000000  0.4949100000000  0.5387160000000 1.0
C      1  0.4903540000000  0.4450710000000  0.5222530000000 1.0
C      1  0.5465220000000  0.5841060000000  0.5038000000000 1.0
C      1  0.5186460000000  0.4911860000000  0.5770900000000 1.0
C      1  0.4559880000000  0.4511460000000  0.4856920000000 1.0
C      1  0.5296290000000  0.5264570000000  0.5315890000000 1.0
C      1  0.4482830000000  0.4554430000000  0.5372820000000 1.0
C      1  0.5461300000000  0.4407640000000  0.4514970000000 1.0
C      1  0.4360050000000  0.4890910000000  0.5663170000000 1.0
C      1  0.5725780000000  0.4291190000000  0.5053320000000 1.0
C      1  0.4869970000000  0.4766540000000  0.5095310000000 1.0
C      1  0.4847640000000  0.5857100000000  0.5186760000000 1.0
C      1  0.5338680000000  0.4607220000000  0.5791880000000 1.0
END
