TITL C-2778422-5617-601 -0.00217062890282667 125000 -378.412628600606 0 0 67 (C1) n - 1
REM
REM in /home/nfs/bkarasulu/CARBON/AIRSS/Generating-Clusters/REBO/Only-C1/SD-CG/HFTN-CG
REM
REM
REM
REM
REM
REM ./C.cell (11c1c37f851c82e70ff6c80c92926a4b)
REM
REM compiler GCC version 9.2.1 20190827 (Red Hat 9.2.1-1)
REM options -cpp -mtune=generic -march=x86-64 -g -O0 -fpre-include=/usr/include/finclude/math-vector-fortran.h
REM seed 2083845539 945474545 -406248746 -1903330551 819393720 -597411759 -1855291146 -690603783 1030483065 -1775182104 -850096570 -2068541561 1150635349 308361550 1994355634 -1499356561 380833048 -2075443038 -206841528 -1359650221 -569773425 -1360664868 932000677 -394222754 1207704789 281423534 -1590900100 69251626 -1119443573 395280948 957592232 -1084044804 1922528547
REM
CELL 1.54180   50.00000   50.00000   50.00000   90.00000   90.00000   90.00000
LATT -1
SFAC C  
C      1  0.4731850000000  0.4463720000000  0.5207420000000 1.0
C      1  0.4743300000000  0.4875090000000  0.5675150000000 1.0
C      1  0.5189610000000  0.5107330000000  0.4460400000000 1.0
C      1  0.5660420000000  0.5538770000000  0.5083060000000 1.0
C      1  0.4583350000000  0.4930420000000  0.5286060000000 1.0
C      1  0.5477720000000  0.5135100000000  0.5378970000000 1.0
C      1  0.4526000000000  0.4645470000000  0.5191390000000 1.0
C      1  0.5309680000000  0.5188270000000  0.5666320000000 1.0
C      1  0.5579180000000  0.3965540000000  0.4611720000000 1.0
C      1  0.5162340000000  0.5653990000000  0.4592210000000 1.0
C      1  0.4874740000000  0.5408020000000  0.5707940000000 1.0
C      1  0.4483140000000  0.5404340000000  0.4423390000000 1.0
C      1  0.4381970000000  0.5148960000000  0.4580580000000 1.0
C      1  0.4297530000000  0.5050360000000  0.5258980000000 1.0
C      1  0.4946690000000  0.5249950000000  0.4427220000000 1.0
C      1  0.4989540000000  0.4500310000000  0.5394700000000 1.0
C      1  0.5151420000000  0.4235630000000  0.4800970000000 1.0
C      1  0.5342370000000  0.5156740000000  0.4691570000000 1.0
C      1  0.4876610000000  0.4571970000000  0.4498740000000 1.0
C      1  0.5154770000000  0.4909190000000  0.5091280000000 1.0
C      1  0.4487580000000  0.4479710000000  0.4510560000000 1.0
C      1  0.4910650000000  0.5573670000000  0.5137960000000 1.0
C      1  0.4142540000000  0.4930420000000  0.5019070000000 1.0
C      1  0.4934920000000  0.5530420000000  0.4486660000000 1.0
C      1  0.4658480000000  0.5118240000000  0.4383360000000 1.0
C      1  0.5729080000000  0.4448690000000  0.4982010000000 1.0
C      1  0.5375940000000  0.5107960000000  0.4994050000000 1.0
C      1  0.4761190000000  0.5058940000000  0.4839480000000 1.0
C      1  0.5786730000000  0.3834490000000  0.4519910000000 1.0
C      1  0.5106320000000  0.4378560000000  0.5099740000000 1.0
C      1  0.4570730000000  0.5360370000000  0.5598700000000 1.0
C      1  0.5139240000000  0.4616480000000  0.4335370000000 1.0
C      1  0.4660100000000  0.5536050000000  0.4998770000000 1.0
C      1  0.5125390000000  0.5326600000000  0.5803800000000 1.0
C      1  0.4783100000000  0.4857980000000  0.4659420000000 1.0
C      1  0.4964010000000  0.4772270000000  0.5576980000000 1.0
C      1  0.5410370000000  0.5378620000000  0.5149280000000 1.0
C      1  0.5490920000000  0.4789290000000  0.5381480000000 1.0
C      1  0.5576160000000  0.4648100000000  0.5084960000000 1.0
C      1  0.4321370000000  0.4653440000000  0.4996100000000 1.0
C      1  0.5636210000000  0.5710040000000  0.4860530000000 1.0
C      1  0.5287870000000  0.4560060000000  0.5522630000000 1.0
C      1  0.4659050000000  0.5321570000000  0.4810970000000 1.0
C      1  0.4290190000000  0.4939240000000  0.4723470000000 1.0
C      1  0.5840790000000  0.5873810000000  0.4786280000000 1.0
C      1  0.4402330000000  0.5524980000000  0.5439120000000 1.0
C      1  0.4888760000000  0.5491510000000  0.5403530000000 1.0
C      1  0.5887370000000  0.5513020000000  0.5238160000000 1.0
C      1  0.6043110000000  0.5097220000000  0.5434840000000 1.0
C      1  0.4870560000000  0.5007180000000  0.5120910000000 1.0
C      1  0.4663590000000  0.5620920000000  0.4460670000000 1.0
C      1  0.4677630000000  0.4801450000000  0.4353970000000 1.0
C      1  0.4433470000000  0.5581910000000  0.5169670000000 1.0
C      1  0.5267080000000  0.4888070000000  0.5611760000000 1.0
C      1  0.3866210000000  0.4949920000000  0.5024770000000 1.0
C      1  0.4881340000000  0.4325650000000  0.4664350000000 1.0
C      1  0.5240100000000  0.4868260000000  0.4319050000000 1.0
C      1  0.5639960000000  0.4965820000000  0.5078620000000 1.0
C      1  0.5175320000000  0.5558800000000  0.5052760000000 1.0
C      1  0.5251280000000  0.4655500000000  0.5091500000000 1.0
C      1  0.4176360000000  0.5195760000000  0.5442290000000 1.0
C      1  0.5806750000000  0.5075160000000  0.5328470000000 1.0
C      1  0.4799450000000  0.4321410000000  0.4957390000000 1.0
C      1  0.5368280000000  0.4098700000000  0.4705030000000 1.0
C      1  0.5394760000000  0.5703950000000  0.4715920000000 1.0
C      1  0.4774840000000  0.5168640000000  0.5405310000000 1.0
C      1  0.4380310000000  0.4641950000000  0.4692270000000 1.0
END
