TITL C-2778434-4341-523 0.000794298375140794 125000 -134.86721599363 0 0 26 (C1) n - 1
REM
REM in /home/nfs/bkarasulu/CARBON/AIRSS/Generating-Clusters/REBO/Only-C1/SD-CG/HFTN-CG
REM
REM
REM
REM
REM
REM ./C.cell (11c1c37f851c82e70ff6c80c92926a4b)
REM
REM compiler GCC version 9.2.1 20190827 (Red Hat 9.2.1-1)
REM options -cpp -mtune=generic -march=x86-64 -g -O0 -fpre-include=/usr/include/finclude/math-vector-fortran.h
REM seed -586708566 -662363998 499930256 -1721567538 1435718169 -227411458 -1304047879 1201214045 -793267999 1200823162 -850230134 1281836254 -1705499937 -1668178227 -2116678475 -1804958835 1407001332 1611178281 -2007820633 -1542721551 1313332972 1164796876 -1816194764 1509470273 -1363139329 1272789768 -1867811454 1642078810 169286901 -1642098810 -96330319 -94692334 -595013743
REM
CELL 1.54180   50.00000   50.00000   50.00000   90.00000   90.00000   90.00000
LATT -1
SFAC C  
C      1  0.4485110000000  0.4877500000000  0.5032960000000 1.0
C      1  0.4986070000000  0.5551290000000  0.4816830000000 1.0
C      1  0.5480800000000  0.5081430000000  0.4907050000000 1.0
C      1  0.4832100000000  0.5179420000000  0.4543790000000 1.0
C      1  0.5016480000000  0.5339510000000  0.5059520000000 1.0
C      1  0.5394930000000  0.4751770000000  0.5356750000000 1.0
C      1  0.5041360000000  0.4888090000000  0.5536820000000 1.0
C      1  0.5693380000000  0.5161890000000  0.4764130000000 1.0
C      1  0.5152480000000  0.5088630000000  0.4954400000000 1.0
C      1  0.4966000000000  0.4304160000000  0.5501230000000 1.0
C      1  0.4978900000000  0.4441660000000  0.5207530000000 1.0
C      1  0.4631970000000  0.4938120000000  0.4543170000000 1.0
C      1  0.5111710000000  0.5640130000000  0.5446610000000 1.0
C      1  0.5007960000000  0.4624910000000  0.5474930000000 1.0
C      1  0.4643580000000  0.5033820000000  0.4864090000000 1.0
C      1  0.4704580000000  0.5315890000000  0.4974840000000 1.0
C      1  0.5067150000000  0.5385750000000  0.5349410000000 1.0
C      1  0.4962090000000  0.4954430000000  0.4765640000000 1.0
C      1  0.4531080000000  0.5512150000000  0.4998900000000 1.0
C      1  0.4894860000000  0.5448750000000  0.4578500000000 1.0
C      1  0.4747770000000  0.4690210000000  0.4510070000000 1.0
C      1  0.5248120000000  0.4595610000000  0.4538470000000 1.0
C      1  0.5360050000000  0.4915500000000  0.5146830000000 1.0
C      1  0.4981220000000  0.4476860000000  0.4937530000000 1.0
C      1  0.5064610000000  0.5153460000000  0.5504680000000 1.0
C      1  0.5015610000000  0.4649060000000  0.4685300000000 1.0
END
