TITL C-2778435-5768-100 -0.000211863300796073 125000 -823.245913401637 0 0 141 (C1) n - 1
REM
REM in /home/nfs/bkarasulu/CARBON/AIRSS/Generating-Clusters/REBO/Only-C1/SD-CG/HFTN-CG
REM
REM
REM
REM
REM
REM ./C.cell (11c1c37f851c82e70ff6c80c92926a4b)
REM
REM compiler GCC version 9.2.1 20190827 (Red Hat 9.2.1-1)
REM options -cpp -mtune=generic -march=x86-64 -g -O0 -fpre-include=/usr/include/finclude/math-vector-fortran.h
REM seed 1914510548 -860805372 -1473923973 -549284989 777810231 1293187677 -2039731737 1608436877 1730661813 -1671453659 309457591 -45710546 1684161424 1905239351 2022638673 -1095844425 1414660672 -1618210639 -758427064 -1174085221 -1820859176 -422578870 -467804347 206311285 -1721966045 1930889209 1570577087 1220099459 1188758073 -1733648130 -269099501 2010530295 -601466607
REM
CELL 1.54180   50.00000   50.00000   50.00000   90.00000   90.00000   90.00000
LATT -1
SFAC C  
C      1  0.4736500000000  0.4654050000000  0.5650200000000 1.0
C      1  0.4137160000000  0.4911840000000  0.5182100000000 1.0
C      1  0.4433670000000  0.4913730000000  0.5077000000000 1.0
C      1  0.5247060000000  0.4473060000000  0.4684030000000 1.0
C      1  0.4285430000000  0.4927110000000  0.5638240000000 1.0
C      1  0.4357970000000  0.5480730000000  0.4526740000000 1.0
C      1  0.5024200000000  0.5466820000000  0.5186090000000 1.0
C      1  0.4524690000000  0.5698110000000  0.4888590000000 1.0
C      1  0.5075230000000  0.4246060000000  0.5340970000000 1.0
C      1  0.4111020000000  0.5447990000000  0.4987700000000 1.0
C      1  0.5224380000000  0.4773050000000  0.4662220000000 1.0
C      1  0.4879760000000  0.4537350000000  0.4901100000000 1.0
C      1  0.5482070000000  0.5386680000000  0.5830110000000 1.0
C      1  0.5482350000000  0.5079510000000  0.5679770000000 1.0
C      1  0.5554210000000  0.4071270000000  0.5326010000000 1.0
C      1  0.4939690000000  0.5025470000000  0.5026240000000 1.0
C      1  0.5380440000000  0.5867950000000  0.5066730000000 1.0
C      1  0.5435160000000  0.4871500000000  0.5017300000000 1.0
C      1  0.5695490000000  0.5323640000000  0.5069820000000 1.0
C      1  0.4893250000000  0.5836000000000  0.4402270000000 1.0
C      1  0.5098220000000  0.5784260000000  0.5222660000000 1.0
C      1  0.5374790000000  0.5834950000000  0.5620590000000 1.0
C      1  0.4891830000000  0.5409710000000  0.4634920000000 1.0
C      1  0.4296670000000  0.4390770000000  0.5171760000000 1.0
C      1  0.5650270000000  0.5220320000000  0.5446160000000 1.0
C      1  0.4644130000000  0.5391210000000  0.4865760000000 1.0
C      1  0.4579910000000  0.5807450000000  0.5205730000000 1.0
C      1  0.4685140000000  0.4456110000000  0.5100160000000 1.0
C      1  0.4747100000000  0.4876560000000  0.4571420000000 1.0
C      1  0.4660160000000  0.5345890000000  0.5619500000000 1.0
C      1  0.5325970000000  0.5632910000000  0.5383230000000 1.0
C      1  0.4923120000000  0.4867010000000  0.5976980000000 1.0
C      1  0.5481370000000  0.4603210000000  0.5370960000000 1.0
C      1  0.5446790000000  0.5164710000000  0.4913820000000 1.0
C      1  0.5514730000000  0.4148500000000  0.4936170000000 1.0
C      1  0.4500900000000  0.5311370000000  0.4290080000000 1.0
C      1  0.5432680000000  0.4925300000000  0.4461750000000 1.0
C      1  0.5166820000000  0.5205680000000  0.5102330000000 1.0
C      1  0.4506870000000  0.4661880000000  0.4968460000000 1.0
C      1  0.6007740000000  0.4606350000000  0.5169490000000 1.0
C      1  0.4904350000000  0.5585270000000  0.4929880000000 1.0
C      1  0.5377150000000  0.5598790000000  0.4360960000000 1.0
C      1  0.5016400000000  0.4715550000000  0.5559420000000 1.0
C      1  0.5555960000000  0.5675780000000  0.4625880000000 1.0
C      1  0.5189260000000  0.4077250000000  0.5006280000000 1.0
C      1  0.4417170000000  0.5571840000000  0.5398130000000 1.0
C      1  0.5520440000000  0.4458100000000  0.4378810000000 1.0
C      1  0.5238450000000  0.4414590000000  0.5017170000000 1.0
C      1  0.4583200000000  0.5690680000000  0.4378500000000 1.0
C      1  0.4439640000000  0.5010630000000  0.4251070000000 1.0
C      1  0.4685270000000  0.5047940000000  0.5355220000000 1.0
C      1  0.4136010000000  0.5112010000000  0.5418380000000 1.0
C      1  0.5137360000000  0.6082640000000  0.4962330000000 1.0
C      1  0.4991290000000  0.4254710000000  0.5631980000000 1.0
C      1  0.5162530000000  0.5377950000000  0.5833990000000 1.0
C      1  0.5290210000000  0.4802030000000  0.5726100000000 1.0
C      1  0.5754060000000  0.4535940000000  0.4692640000000 1.0
C      1  0.4419540000000  0.5249690000000  0.5443660000000 1.0
C      1  0.5410610000000  0.5367770000000  0.5254910000000 1.0
C      1  0.5155250000000  0.4426910000000  0.5798610000000 1.0
C      1  0.3993100000000  0.5284310000000  0.5175850000000 1.0
C      1  0.5047920000000  0.5984340000000  0.4644470000000 1.0
C      1  0.5858950000000  0.5070790000000  0.5227230000000 1.0
C      1  0.5659150000000  0.4839540000000  0.4259240000000 1.0
C      1  0.5727630000000  0.4699040000000  0.5557070000000 1.0
C      1  0.4666650000000  0.5531490000000  0.4089000000000 1.0
C      1  0.4912500000000  0.4089460000000  0.4873890000000 1.0
C      1  0.4342290000000  0.4253960000000  0.4654720000000 1.0
C      1  0.4164060000000  0.4492780000000  0.4629450000000 1.0
C      1  0.4856320000000  0.5899480000000  0.5375200000000 1.0
C      1  0.5236890000000  0.5232570000000  0.4038420000000 1.0
C      1  0.5867560000000  0.5078200000000  0.4642320000000 1.0
C      1  0.4342830000000  0.4931690000000  0.5906880000000 1.0
C      1  0.5519760000000  0.4296950000000  0.4668130000000 1.0
C      1  0.4769800000000  0.4537450000000  0.4107010000000 1.0
C      1  0.5100760000000  0.4558260000000  0.5268820000000 1.0
C      1  0.5894160000000  0.4971220000000  0.4902930000000 1.0
C      1  0.5268420000000  0.4950680000000  0.3984020000000 1.0
C      1  0.5289820000000  0.5223000000000  0.4466260000000 1.0
C      1  0.5262390000000  0.4849950000000  0.5279880000000 1.0
C      1  0.5589210000000  0.5627290000000  0.5681410000000 1.0
C      1  0.4871580000000  0.5891470000000  0.4911630000000 1.0
C      1  0.4817510000000  0.5302270000000  0.4364580000000 1.0
C      1  0.5044110000000  0.4997260000000  0.4479560000000 1.0
C      1  0.5798470000000  0.4606110000000  0.4376180000000 1.0
C      1  0.5461930000000  0.4533870000000  0.5698060000000 1.0
C      1  0.5707080000000  0.5212690000000  0.4439320000000 1.0
C      1  0.5098870000000  0.5681550000000  0.4239750000000 1.0
C      1  0.4681720000000  0.4866160000000  0.4063390000000 1.0
C      1  0.4950890000000  0.4816150000000  0.4821000000000 1.0
C      1  0.5009090000000  0.5603450000000  0.5805850000000 1.0
C      1  0.5292700000000  0.5787240000000  0.4753810000000 1.0
C      1  0.4646210000000  0.5147690000000  0.5038760000000 1.0
C      1  0.5489500000000  0.5334740000000  0.4215660000000 1.0
C      1  0.5715840000000  0.5555560000000  0.5426360000000 1.0
C      1  0.4660460000000  0.4071430000000  0.4976340000000 1.0
C      1  0.5924810000000  0.4686640000000  0.4909240000000 1.0
C      1  0.5204820000000  0.5485290000000  0.4639280000000 1.0
C      1  0.4030590000000  0.4908130000000  0.4874510000000 1.0
C      1  0.4713150000000  0.4538580000000  0.4519510000000 1.0
C      1  0.5544130000000  0.4862500000000  0.3996960000000 1.0
C      1  0.4440750000000  0.4462340000000  0.5415930000000 1.0
C      1  0.4512810000000  0.4677200000000  0.4281010000000 1.0
C      1  0.5412150000000  0.5166320000000  0.6063620000000 1.0
C      1  0.4492770000000  0.4208080000000  0.4408930000000 1.0
C      1  0.4286820000000  0.5657290000000  0.5103820000000 1.0
C      1  0.5648730000000  0.5707560000000  0.5167610000000 1.0
C      1  0.4705210000000  0.4440030000000  0.5885160000000 1.0
C      1  0.5051860000000  0.4727170000000  0.4112410000000 1.0
C      1  0.5041370000000  0.5108620000000  0.5768560000000 1.0
C      1  0.4971050000000  0.4586060000000  0.5965100000000 1.0
C      1  0.5313740000000  0.4941520000000  0.6014600000000 1.0
C      1  0.5067500000000  0.5824690000000  0.5632760000000 1.0
C      1  0.4948220000000  0.4328430000000  0.4651250000000 1.0
C      1  0.5013840000000  0.5021960000000  0.5440710000000 1.0
C      1  0.5308770000000  0.4651930000000  0.4293410000000 1.0
C      1  0.5588630000000  0.5358980000000  0.4691370000000 1.0
C      1  0.4411310000000  0.4210860000000  0.4943400000000 1.0
C      1  0.4856820000000  0.5503850000000  0.5450270000000 1.0
C      1  0.4612640000000  0.4976030000000  0.5987040000000 1.0
C      1  0.4412260000000  0.4938540000000  0.4564940000000 1.0
C      1  0.5930910000000  0.4795140000000  0.5376510000000 1.0
C      1  0.4922480000000  0.5035710000000  0.4180440000000 1.0
C      1  0.4198140000000  0.5356470000000  0.4726680000000 1.0
C      1  0.4092020000000  0.4587230000000  0.5102240000000 1.0
C      1  0.4773520000000  0.4279760000000  0.5298470000000 1.0
C      1  0.4661190000000  0.5861560000000  0.4652950000000 1.0
C      1  0.5528850000000  0.4584250000000  0.4943880000000 1.0
C      1  0.5758570000000  0.5586160000000  0.4883730000000 1.0
C      1  0.4957300000000  0.4167080000000  0.4371410000000 1.0
C      1  0.4744920000000  0.5185820000000  0.5822190000000 1.0
C      1  0.4443870000000  0.4639750000000  0.4672260000000 1.0
C      1  0.5360000000000  0.3934280000000  0.5236230000000 1.0
C      1  0.3982910000000  0.4607880000000  0.4814440000000 1.0
C      1  0.4988950000000  0.5420680000000  0.4095460000000 1.0
C      1  0.4725420000000  0.4253270000000  0.4239750000000 1.0
C      1  0.4649250000000  0.5735200000000  0.5585450000000 1.0
C      1  0.5592070000000  0.4360840000000  0.5192380000000 1.0
C      1  0.4648470000000  0.4270340000000  0.5603630000000 1.0
C      1  0.4508660000000  0.4784330000000  0.5477400000000 1.0
C      1  0.4182490000000  0.5073380000000  0.4701520000000 1.0
END
