TITL C-2778432-5617-377 0.000926027227921775 125000 -207.689638094013 0 0 36 (C1) n - 1
REM
REM in /home/nfs/bkarasulu/CARBON/AIRSS/Generating-Clusters/REBO/Only-C1/SD-CG/HFTN-CG
REM
REM
REM
REM
REM
REM ./C.cell (11c1c37f851c82e70ff6c80c92926a4b)
REM
REM compiler GCC version 9.2.1 20190827 (Red Hat 9.2.1-1)
REM options -cpp -mtune=generic -march=x86-64 -g -O0 -fpre-include=/usr/include/finclude/math-vector-fortran.h
REM seed -885768130 -415129066 -1012814779 775576681 -472027696 1761528677 1971857858 1050640600 1034948000 1756728837 1420485857 -234506235 35727995 1826051822 1368040448 983068666 -1332682922 -1958753984 1709877188 -226743990 -67195015 635204832 -1011968250 -88379336 -1796606493 1012036576 -1687177856 693261639 -1438737045 1499347709 1517201095 -362697822 783180114
REM
CELL 1.54180   50.00000   50.00000   50.00000   90.00000   90.00000   90.00000
LATT -1
SFAC C  
C      1  0.4924600000000  0.5110150000000  0.5638140000000 1.0
C      1  0.5046920000000  0.4909050000000  0.5126100000000 1.0
C      1  0.4798930000000  0.4505770000000  0.5246670000000 1.0
C      1  0.4569570000000  0.5067880000000  0.5322180000000 1.0
C      1  0.4448500000000  0.4977820000000  0.4576430000000 1.0
C      1  0.4911710000000  0.5083060000000  0.4529030000000 1.0
C      1  0.5347400000000  0.4540070000000  0.5143900000000 1.0
C      1  0.5265120000000  0.5095700000000  0.4943830000000 1.0
C      1  0.4847820000000  0.5454300000000  0.5317080000000 1.0
C      1  0.5482450000000  0.4519520000000  0.4894910000000 1.0
C      1  0.5135880000000  0.5564530000000  0.4941730000000 1.0
C      1  0.5333240000000  0.5241980000000  0.4721270000000 1.0
C      1  0.5432570000000  0.4569780000000  0.4632080000000 1.0
C      1  0.5235260000000  0.4672880000000  0.4475840000000 1.0
C      1  0.5153540000000  0.5480510000000  0.5246730000000 1.0
C      1  0.5231980000000  0.5186060000000  0.5644910000000 1.0
C      1  0.4451490000000  0.5189850000000  0.5046620000000 1.0
C      1  0.5330630000000  0.5287770000000  0.5378820000000 1.0
C      1  0.5288430000000  0.5641800000000  0.4738030000000 1.0
C      1  0.4471410000000  0.4765170000000  0.4755330000000 1.0
C      1  0.5131750000000  0.4916970000000  0.5455900000000 1.0
C      1  0.4653820000000  0.5178460000000  0.4609820000000 1.0
C      1  0.5405720000000  0.5065800000000  0.5205930000000 1.0
C      1  0.4970540000000  0.4788820000000  0.4586430000000 1.0
C      1  0.5381760000000  0.4775280000000  0.5298820000000 1.0
C      1  0.4717370000000  0.4595710000000  0.4706360000000 1.0
C      1  0.4840630000000  0.4378410000000  0.4936290000000 1.0
C      1  0.5096610000000  0.4412870000000  0.5160180000000 1.0
C      1  0.4965810000000  0.4697480000000  0.4911810000000 1.0
C      1  0.4736420000000  0.5246890000000  0.5477380000000 1.0
C      1  0.5573770000000  0.5365500000000  0.4692700000000 1.0
C      1  0.4840570000000  0.5473590000000  0.5000370000000 1.0
C      1  0.4633770000000  0.5324920000000  0.4864970000000 1.0
C      1  0.4468900000000  0.4864140000000  0.5030670000000 1.0
C      1  0.5136710000000  0.5250020000000  0.4518970000000 1.0
C      1  0.4738420000000  0.4801490000000  0.5223780000000 1.0
END
