TITL C-2778422-5617-752 0.105459988285204 125000 -160.106991116105 0 0 29 (C1) n - 1
REM
REM in /home/nfs/bkarasulu/CARBON/AIRSS/Generating-Clusters/REBO/Only-C1/SD-CG/HFTN-CG
REM
REM
REM
REM
REM
REM ./C.cell (11c1c37f851c82e70ff6c80c92926a4b)
REM
REM compiler GCC version 9.2.1 20190827 (Red Hat 9.2.1-1)
REM options -cpp -mtune=generic -march=x86-64 -g -O0 -fpre-include=/usr/include/finclude/math-vector-fortran.h
REM seed 1135519983 2006412853 661481160 -1472156903 969132598 980479636 -1850433112 -1288994231 -1997746734 1673489155 -173541554 -1096425210 -205276198 1277852082 2125753045 -905430491 -331159020 1531650735 204085183 1281970616 695240773 1297058325 2090401668 -216535236 -1540264006 230916387 -705716254 -1614987427 -1216777472 -2006839806 -1951408959 1584150005 304464936
REM
CELL 1.54180   50.00000   50.00000   50.00000   90.00000   90.00000   90.00000
LATT -1
SFAC C  
C      1  0.5652650000000  0.5019730000000  0.5113480000000 1.0
C      1  0.4759490000000  0.4720830000000  0.5296160000000 1.0
C      1  0.4978110000000  0.5013760000000  0.4675500000000 1.0
C      1  0.3957340000000  0.5544460000000  0.4817420000000 1.0
C      1  0.4373360000000  0.5260720000000  0.4977440000000 1.0
C      1  0.5515930000000  0.4754720000000  0.4956640000000 1.0
C      1  0.5070250000000  0.4299110000000  0.5230670000000 1.0
C      1  0.4940680000000  0.4909370000000  0.5469760000000 1.0
C      1  0.4865160000000  0.5243790000000  0.5116220000000 1.0
C      1  0.4603570000000  0.4825110000000  0.5077340000000 1.0
C      1  0.4590810000000  0.5112410000000  0.5061090000000 1.0
C      1  0.4827050000000  0.4748020000000  0.4640370000000 1.0
C      1  0.5224560000000  0.5412240000000  0.4617710000000 1.0
C      1  0.5460940000000  0.5279010000000  0.5047350000000 1.0
C      1  0.5051500000000  0.5220410000000  0.4500040000000 1.0
C      1  0.4163680000000  0.5403730000000  0.4896790000000 1.0
C      1  0.5019740000000  0.4557660000000  0.5305440000000 1.0
C      1  0.5374470000000  0.5425280000000  0.4844140000000 1.0
C      1  0.5257050000000  0.4791450000000  0.4865490000000 1.0
C      1  0.5680020000000  0.4705900000000  0.5232640000000 1.0
C      1  0.5239390000000  0.4780820000000  0.5409000000000 1.0
C      1  0.4971570000000  0.5233110000000  0.4240870000000 1.0
C      1  0.5079160000000  0.5060320000000  0.4977610000000 1.0
C      1  0.4908850000000  0.5176950000000  0.5419950000000 1.0
C      1  0.5099820000000  0.4633400000000  0.4690590000000 1.0
C      1  0.5318910000000  0.5006390000000  0.5196730000000 1.0
C      1  0.4614520000000  0.4693510000000  0.4823050000000 1.0
C      1  0.4882360000000  0.5515800000000  0.5049710000000 1.0
C      1  0.5519050000000  0.4652010000000  0.5450790000000 1.0
END
