TITL C-2778436-5916-644 0.00228462872105245 125000 -1128.33871309699 0 0 195 (C1) n - 1
REM
REM in /home/nfs/bkarasulu/CARBON/AIRSS/Generating-Clusters/REBO/Only-C1/SD-CG/HFTN-CG
REM
REM
REM
REM
REM
REM ./C.cell (11c1c37f851c82e70ff6c80c92926a4b)
REM
REM compiler GCC version 9.2.1 20190827 (Red Hat 9.2.1-1)
REM options -cpp -mtune=generic -march=x86-64 -g -O0 -fpre-include=/usr/include/finclude/math-vector-fortran.h
REM seed 1927230953 -465623595 -735402110 -1049628445 1099444527 983783086 -628424394 1582342296 1904135587 828985148 -1486449510 1171800404 1224926038 1915064011 -335628006 -1503502458 2058176419 -1446317219 117049403 914667105 1856117476 1234555033 1564957360 -2028893651 -1722663231 1857757068 248454783 203715742 -2145148479 1694787903 118436250 1745170435 -871667025
REM
CELL 1.54180   50.00000   50.00000   50.00000   90.00000   90.00000   90.00000
LATT -1
SFAC C  
C      1  0.5386700000000  0.5252990000000  0.3837780000000 1.0
C      1  0.5870360000000  0.5517530000000  0.5371060000000 1.0
C      1  0.4175180000000  0.4531770000000  0.4820730000000 1.0
C      1  0.4438600000000  0.4903740000000  0.5452050000000 1.0
C      1  0.3929820000000  0.5421970000000  0.4676680000000 1.0
C      1  0.5459010000000  0.5140010000000  0.6129460000000 1.0
C      1  0.4067290000000  0.4885760000000  0.5596620000000 1.0
C      1  0.4821330000000  0.5215230000000  0.5557760000000 1.0
C      1  0.5474440000000  0.4474820000000  0.5871860000000 1.0
C      1  0.4751710000000  0.4718370000000  0.5261160000000 1.0
C      1  0.5088390000000  0.4064320000000  0.4486500000000 1.0
C      1  0.5019780000000  0.6185150000000  0.5142750000000 1.0
C      1  0.4434940000000  0.5976500000000  0.5270050000000 1.0
C      1  0.5750280000000  0.4648480000000  0.5789200000000 1.0
C      1  0.4710850000000  0.4985550000000  0.4291640000000 1.0
C      1  0.4921600000000  0.5461630000000  0.5966940000000 1.0
C      1  0.4495100000000  0.4919120000000  0.4729630000000 1.0
C      1  0.4402970000000  0.5595310000000  0.4684170000000 1.0
C      1  0.5147680000000  0.5389600000000  0.5017400000000 1.0
C      1  0.5612980000000  0.4096750000000  0.4992710000000 1.0
C      1  0.5757080000000  0.4251120000000  0.5479470000000 1.0
C      1  0.5205840000000  0.4990810000000  0.4079520000000 1.0
C      1  0.4118530000000  0.4696540000000  0.4454510000000 1.0
C      1  0.5002510000000  0.5751690000000  0.5496500000000 1.0
C      1  0.5376730000000  0.4045870000000  0.5225380000000 1.0
C      1  0.5835250000000  0.5765970000000  0.5184950000000 1.0
C      1  0.5882400000000  0.4488850000000  0.5525120000000 1.0
C      1  0.5048030000000  0.4708530000000  0.6068700000000 1.0
C      1  0.4496700000000  0.5407860000000  0.5500710000000 1.0
C      1  0.4892560000000  0.4505700000000  0.4941840000000 1.0
C      1  0.5034350000000  0.5737060000000  0.5173030000000 1.0
C      1  0.4992230000000  0.5524260000000  0.4475540000000 1.0
C      1  0.4569650000000  0.4408690000000  0.4932710000000 1.0
C      1  0.5184500000000  0.4509190000000  0.4460330000000 1.0
C      1  0.5433660000000  0.5124390000000  0.5372060000000 1.0
C      1  0.4780630000000  0.4152160000000  0.5534960000000 1.0
C      1  0.4001820000000  0.4315840000000  0.5010810000000 1.0
C      1  0.4885890000000  0.4969800000000  0.5252140000000 1.0
C      1  0.5264240000000  0.4954450000000  0.5836310000000 1.0
C      1  0.4231880000000  0.5180300000000  0.4256260000000 1.0
C      1  0.6216080000000  0.5178660000000  0.5015490000000 1.0
C      1  0.5587020000000  0.5698880000000  0.4882920000000 1.0
C      1  0.4775260000000  0.6055340000000  0.5035680000000 1.0
C      1  0.5167170000000  0.5261330000000  0.6096030000000 1.0
C      1  0.4714190000000  0.4911890000000  0.5607980000000 1.0
C      1  0.4918820000000  0.3898210000000  0.5407540000000 1.0
C      1  0.6116000000000  0.5044150000000  0.5313540000000 1.0
C      1  0.4894670000000  0.4824270000000  0.4805160000000 1.0
C      1  0.4505470000000  0.4210440000000  0.4664820000000 1.0
C      1  0.5429460000000  0.4981670000000  0.4871670000000 1.0
C      1  0.4224530000000  0.4135460000000  0.4841030000000 1.0
C      1  0.5290470000000  0.5461510000000  0.4577340000000 1.0
C      1  0.5721420000000  0.4978030000000  0.5297070000000 1.0
C      1  0.4612620000000  0.5393200000000  0.3973340000000 1.0
C      1  0.4446900000000  0.4890710000000  0.6007760000000 1.0
C      1  0.5102700000000  0.4634490000000  0.3935290000000 1.0
C      1  0.5103850000000  0.4383610000000  0.5500710000000 1.0
C      1  0.5656400000000  0.4679180000000  0.4573650000000 1.0
C      1  0.5486640000000  0.5719300000000  0.4353420000000 1.0
C      1  0.4480850000000  0.4579770000000  0.4337810000000 1.0
C      1  0.4878010000000  0.4772290000000  0.4146500000000 1.0
C      1  0.4744970000000  0.3931050000000  0.5018410000000 1.0
C      1  0.5245770000000  0.4733490000000  0.5672590000000 1.0
C      1  0.5336410000000  0.3921850000000  0.4907360000000 1.0
C      1  0.5512430000000  0.4529710000000  0.4166920000000 1.0
C      1  0.6022730000000  0.4717160000000  0.5314000000000 1.0
C      1  0.4173210000000  0.5491490000000  0.5720560000000 1.0
C      1  0.5489510000000  0.4831060000000  0.6188240000000 1.0
C      1  0.4341580000000  0.5859720000000  0.4968910000000 1.0
C      1  0.4639860000000  0.5204470000000  0.4792300000000 1.0
C      1  0.4657300000000  0.5738670000000  0.5043820000000 1.0
C      1  0.4938110000000  0.5148460000000  0.4898550000000 1.0
C      1  0.4761960000000  0.5956410000000  0.5362110000000 1.0
C      1  0.5453450000000  0.4566190000000  0.5539240000000 1.0
C      1  0.5156060000000  0.4963240000000  0.5073540000000 1.0
C      1  0.4841060000000  0.5517890000000  0.5664500000000 1.0
C      1  0.5260020000000  0.5788610000000  0.4673860000000 1.0
C      1  0.3921470000000  0.5115940000000  0.5087920000000 1.0
C      1  0.5347870000000  0.4019440000000  0.4597140000000 1.0
C      1  0.4386140000000  0.5316950000000  0.4969670000000 1.0
C      1  0.4213590000000  0.5248730000000  0.4691970000000 1.0
C      1  0.4950970000000  0.5197010000000  0.4054470000000 1.0
C      1  0.5303710000000  0.5725930000000  0.5620560000000 1.0
C      1  0.5470820000000  0.5381160000000  0.4294600000000 1.0
C      1  0.4759500000000  0.6037950000000  0.4718110000000 1.0
C      1  0.4861840000000  0.5750270000000  0.4173160000000 1.0
C      1  0.4148650000000  0.5446180000000  0.4417040000000 1.0
C      1  0.4393010000000  0.4635480000000  0.5022960000000 1.0
C      1  0.4405230000000  0.5290190000000  0.5808240000000 1.0
C      1  0.4822670000000  0.4327220000000  0.5230880000000 1.0
C      1  0.4857130000000  0.4527910000000  0.5915790000000 1.0
C      1  0.4486580000000  0.4212610000000  0.5430980000000 1.0
C      1  0.5748460000000  0.4864670000000  0.4813940000000 1.0
C      1  0.4281580000000  0.5734500000000  0.5425370000000 1.0
C      1  0.5510780000000  0.4130750000000  0.5495450000000 1.0
C      1  0.4214030000000  0.4957090000000  0.4630850000000 1.0
C      1  0.4248430000000  0.4987100000000  0.5792540000000 1.0
C      1  0.6023250000000  0.5225540000000  0.5589610000000 1.0
C      1  0.5048890000000  0.6013450000000  0.4540660000000 1.0
C      1  0.4970360000000  0.4982350000000  0.6106210000000 1.0
C      1  0.4308060000000  0.4850840000000  0.4216120000000 1.0
C      1  0.5436210000000  0.4485470000000  0.4652560000000 1.0
C      1  0.4644700000000  0.5695410000000  0.4383300000000 1.0
C      1  0.5696950000000  0.5635470000000  0.4587330000000 1.0
C      1  0.4693810000000  0.4746520000000  0.4531990000000 1.0
C      1  0.5882800000000  0.5252870000000  0.5217080000000 1.0
C      1  0.4235130000000  0.5107710000000  0.5151560000000 1.0
C      1  0.5097780000000  0.4136990000000  0.5295950000000 1.0
C      1  0.3971650000000  0.4833430000000  0.5271750000000 1.0
C      1  0.4269100000000  0.4695470000000  0.5308820000000 1.0
C      1  0.4667840000000  0.4558030000000  0.3986350000000 1.0
C      1  0.5001830000000  0.3967040000000  0.4947590000000 1.0
C      1  0.5237210000000  0.5196790000000  0.5711180000000 1.0
C      1  0.5185110000000  0.5517080000000  0.4196150000000 1.0
C      1  0.5663580000000  0.4717580000000  0.5155250000000 1.0
C      1  0.5343410000000  0.5158940000000  0.4601640000000 1.0
C      1  0.4603280000000  0.4624010000000  0.5755880000000 1.0
C      1  0.4314110000000  0.5743570000000  0.4399640000000 1.0
C      1  0.5670800000000  0.4361500000000  0.4332280000000 1.0
C      1  0.5443270000000  0.5520490000000  0.5124750000000 1.0
C      1  0.5025200000000  0.4904150000000  0.3800060000000 1.0
C      1  0.5437870000000  0.4538500000000  0.5234640000000 1.0
C      1  0.5668880000000  0.4944850000000  0.5936980000000 1.0
C      1  0.5919010000000  0.4855910000000  0.4332540000000 1.0
C      1  0.4606750000000  0.5721360000000  0.5525010000000 1.0
C      1  0.5054460000000  0.4284550000000  0.4255080000000 1.0
C      1  0.5237320000000  0.5544950000000  0.5902540000000 1.0
C      1  0.3848670000000  0.5117450000000  0.4787420000000 1.0
C      1  0.5258280000000  0.4450680000000  0.4072160000000 1.0
C      1  0.4492150000000  0.4104180000000  0.5048920000000 1.0
C      1  0.5604920000000  0.4148760000000  0.4520620000000 1.0
C      1  0.5787330000000  0.5457950000000  0.5668360000000 1.0
C      1  0.4461410000000  0.5924590000000  0.4655030000000 1.0
C      1  0.5107510000000  0.4247720000000  0.4912990000000 1.0
C      1  0.5582740000000  0.4997200000000  0.4475150000000 1.0
C      1  0.4321690000000  0.4522590000000  0.5748140000000 1.0
C      1  0.3918380000000  0.4813550000000  0.4704870000000 1.0
C      1  0.5041920000000  0.5648020000000  0.4851650000000 1.0
C      1  0.5695550000000  0.5960150000000  0.5316680000000 1.0
C      1  0.5926790000000  0.5456900000000  0.4595710000000 1.0
C      1  0.4218470000000  0.4202340000000  0.5231450000000 1.0
C      1  0.4623100000000  0.5392170000000  0.4550980000000 1.0
C      1  0.5934580000000  0.4639990000000  0.4992590000000 1.0
C      1  0.5148690000000  0.4907560000000  0.4597100000000 1.0
C      1  0.5927440000000  0.4542170000000  0.4450170000000 1.0
C      1  0.5545570000000  0.5577170000000  0.5442320000000 1.0
C      1  0.5319190000000  0.4630060000000  0.6089340000000 1.0
C      1  0.5118480000000  0.5152920000000  0.5421120000000 1.0
C      1  0.5778810000000  0.4179930000000  0.4756870000000 1.0
C      1  0.5397380000000  0.4343270000000  0.4959190000000 1.0
C      1  0.5156450000000  0.4782680000000  0.4311320000000 1.0
C      1  0.3999240000000  0.5429390000000  0.5129030000000 1.0
C      1  0.4127250000000  0.5607180000000  0.4886400000000 1.0
C      1  0.4634480000000  0.4513020000000  0.5444730000000 1.0
C      1  0.5879850000000  0.5132640000000  0.4526730000000 1.0
C      1  0.4648230000000  0.5304320000000  0.5989770000000 1.0
C      1  0.3909170000000  0.4643860000000  0.4996170000000 1.0
C      1  0.4113850000000  0.5466060000000  0.5400550000000 1.0
C      1  0.5618120000000  0.5100110000000  0.5658360000000 1.0
C      1  0.5814940000000  0.5488790000000  0.4980690000000 1.0
C      1  0.4971490000000  0.4271340000000  0.5781280000000 1.0
C      1  0.4838700000000  0.5567230000000  0.3957340000000 1.0
C      1  0.4768840000000  0.4183450000000  0.4512500000000 1.0
C      1  0.4838500000000  0.5283190000000  0.4335610000000 1.0
C      1  0.4445580000000  0.5540620000000  0.5188580000000 1.0
C      1  0.5268400000000  0.4689640000000  0.4806540000000 1.0
C      1  0.4832590000000  0.5460570000000  0.5132240000000 1.0
C      1  0.4529620000000  0.4831680000000  0.3963070000000 1.0
C      1  0.5412450000000  0.5954660000000  0.4904250000000 1.0
C      1  0.4962450000000  0.4677300000000  0.5597560000000 1.0
C      1  0.4807100000000  0.5724040000000  0.4663670000000 1.0
C      1  0.5171010000000  0.5836610000000  0.4289280000000 1.0
C      1  0.5252620000000  0.5980060000000  0.5163480000000 1.0
C      1  0.4505450000000  0.5189360000000  0.4138610000000 1.0
C      1  0.5615370000000  0.4828940000000  0.4180200000000 1.0
C      1  0.4690920000000  0.5036480000000  0.6074440000000 1.0
C      1  0.5862310000000  0.4879860000000  0.5575010000000 1.0
C      1  0.4735410000000  0.5015370000000  0.3863460000000 1.0
C      1  0.5308820000000  0.4245820000000  0.5723650000000 1.0
C      1  0.4489500000000  0.4940230000000  0.5051090000000 1.0
C      1  0.4895480000000  0.4474050000000  0.4594390000000 1.0
C      1  0.5491060000000  0.5133840000000  0.4104510000000 1.0
C      1  0.5768370000000  0.5189570000000  0.4843520000000 1.0
C      1  0.5939220000000  0.4422480000000  0.4755770000000 1.0
C      1  0.4724750000000  0.4363950000000  0.4233160000000 1.0
C      1  0.4289470000000  0.5178370000000  0.5444560000000 1.0
C      1  0.5432620000000  0.5955450000000  0.5402810000000 1.0
C      1  0.5121140000000  0.5425320000000  0.3889170000000 1.0
C      1  0.4243640000000  0.4438120000000  0.5476090000000 1.0
C      1  0.6137010000000  0.5335910000000  0.4800420000000 1.0
C      1  0.5495280000000  0.5386610000000  0.5786510000000 1.0
C      1  0.5514220000000  0.5227620000000  0.5068450000000 1.0
C      1  0.5166080000000  0.4635320000000  0.5104180000000 1.0
C      1  0.4680790000000  0.5192440000000  0.5177040000000 1.0
C      1  0.4285570000000  0.4425670000000  0.4546210000000 1.0
END
