TITL C-2778430-5657-1093 0.00250897395187675 125000 -277.258384013756 0 0 49 (C1) n - 1
REM
REM in /home/nfs/bkarasulu/CARBON/AIRSS/Generating-Clusters/REBO/Only-C1/SD-CG/HFTN-CG
REM
REM
REM
REM
REM
REM ./C.cell (11c1c37f851c82e70ff6c80c92926a4b)
REM
REM compiler GCC version 9.2.1 20190827 (Red Hat 9.2.1-1)
REM options -cpp -mtune=generic -march=x86-64 -g -O0 -fpre-include=/usr/include/finclude/math-vector-fortran.h
REM seed 487535015 -875451251 -1576871089 -1765638045 -1151198385 1270629550 531329160 -433253835 -1361937236 1292871366 899372983 -1983671958 -1684642502 1868335472 1742379634 924922454 -830354933 -1157124716 -2053620589 1805169955 -639121332 1395323725 -1342736513 -2034688823 27818036 -919192791 1764929986 865505388 -600742907 438704691 -1728908367 -1411253415 -1466786091
REM
CELL 1.54180   50.00000   50.00000   50.00000   90.00000   90.00000   90.00000
LATT -1
SFAC C  
C      1  0.4955070000000  0.4537260000000  0.4637790000000 1.0
C      1  0.4841360000000  0.5299260000000  0.5453490000000 1.0
C      1  0.5235550000000  0.5224000000000  0.4910700000000 1.0
C      1  0.5085880000000  0.4523050000000  0.5515500000000 1.0
C      1  0.4433150000000  0.4734490000000  0.4562950000000 1.0
C      1  0.5305130000000  0.4549060000000  0.5357420000000 1.0
C      1  0.5309340000000  0.4926020000000  0.5490170000000 1.0
C      1  0.5331550000000  0.4414320000000  0.4981780000000 1.0
C      1  0.5056190000000  0.4075530000000  0.5196410000000 1.0
C      1  0.4457880000000  0.4638810000000  0.5079940000000 1.0
C      1  0.5347200000000  0.4830540000000  0.4660290000000 1.0
C      1  0.4613730000000  0.5387940000000  0.4873110000000 1.0
C      1  0.5097010000000  0.5249510000000  0.4418150000000 1.0
C      1  0.5407070000000  0.5382700000000  0.4469960000000 1.0
C      1  0.4653340000000  0.4756670000000  0.5333700000000 1.0
C      1  0.4616900000000  0.4396150000000  0.4968380000000 1.0
C      1  0.5171290000000  0.5219910000000  0.5431860000000 1.0
C      1  0.5417050000000  0.4753880000000  0.5188570000000 1.0
C      1  0.5290070000000  0.4793960000000  0.5726970000000 1.0
C      1  0.4304460000000  0.4763450000000  0.4810760000000 1.0
C      1  0.5096910000000  0.4758410000000  0.4532430000000 1.0
C      1  0.5029110000000  0.5714410000000  0.5226000000000 1.0
C      1  0.4578190000000  0.5089490000000  0.5394690000000 1.0
C      1  0.5436650000000  0.5374160000000  0.5278390000000 1.0
C      1  0.4806680000000  0.5242160000000  0.5060670000000 1.0
C      1  0.5515500000000  0.5364780000000  0.4792640000000 1.0
C      1  0.5077010000000  0.5280330000000  0.5130960000000 1.0
C      1  0.5074760000000  0.5117720000000  0.4716590000000 1.0
C      1  0.4265330000000  0.5063360000000  0.4856220000000 1.0
C      1  0.4466830000000  0.5209220000000  0.4702860000000 1.0
C      1  0.4589310000000  0.5573600000000  0.5109480000000 1.0
C      1  0.5525640000000  0.5090680000000  0.5304870000000 1.0
C      1  0.4871680000000  0.4692660000000  0.5555500000000 1.0
C      1  0.4875900000000  0.4377170000000  0.4856660000000 1.0
C      1  0.4938580000000  0.4960300000000  0.4380130000000 1.0
C      1  0.5138570000000  0.5574210000000  0.4513430000000 1.0
C      1  0.4836430000000  0.4976600000000  0.4764810000000 1.0
C      1  0.5441830000000  0.5534800000000  0.5050920000000 1.0
C      1  0.5458510000000  0.5081400000000  0.4611160000000 1.0
C      1  0.4719100000000  0.4938880000000  0.5054160000000 1.0
C      1  0.4800530000000  0.5565550000000  0.5302770000000 1.0
C      1  0.5214290000000  0.5703790000000  0.5009810000000 1.0
C      1  0.5762800000000  0.4639560000000  0.4837210000000 1.0
C      1  0.4630940000000  0.4980620000000  0.4510790000000 1.0
C      1  0.5090670000000  0.4274640000000  0.5014950000000 1.0
C      1  0.4387130000000  0.4973180000000  0.5138230000000 1.0
C      1  0.4828650000000  0.4991800000000  0.5602130000000 1.0
C      1  0.5125410000000  0.5724230000000  0.4737920000000 1.0
C      1  0.5487840000000  0.4675810000000  0.4885720000000 1.0
END
