TITL C-2778431-5191-346 0.00197093641855269 125000 -389.249442461613 0 0 69 (C1) n - 1
REM
REM in /home/nfs/bkarasulu/CARBON/AIRSS/Generating-Clusters/REBO/Only-C1/SD-CG/HFTN-CG
REM
REM
REM
REM
REM
REM ./C.cell (11c1c37f851c82e70ff6c80c92926a4b)
REM
REM compiler GCC version 9.2.1 20190827 (Red Hat 9.2.1-1)
REM options -cpp -mtune=generic -march=x86-64 -g -O0 -fpre-include=/usr/include/finclude/math-vector-fortran.h
REM seed 1596098484 -1588820766 232555126 82009986 -2026573484 29451709 -795035000 476962750 -1070830020 1427502761 -405562020 -1175210296 1961785979 -467648850 592886316 -1288898382 -1022249797 56117271 -912558600 -695853097 -566078492 -1920916815 -2080550010 1115218549 359965953 -1027402646 307076858 1354588587 -890968140 1449504161 1016210887 -597237894 63405414
REM
CELL 1.54180   50.00000   50.00000   50.00000   90.00000   90.00000   90.00000
LATT -1
SFAC C  
C      1  0.5017450000000  0.4438920000000  0.4485050000000 1.0
C      1  0.4704920000000  0.5003190000000  0.5113070000000 1.0
C      1  0.5749510000000  0.5601490000000  0.5097110000000 1.0
C      1  0.5557150000000  0.4669560000000  0.4978260000000 1.0
C      1  0.4662900000000  0.4405150000000  0.5133950000000 1.0
C      1  0.5726700000000  0.5221010000000  0.4776760000000 1.0
C      1  0.4731210000000  0.4536140000000  0.4884580000000 1.0
C      1  0.4338690000000  0.5123390000000  0.4746620000000 1.0
C      1  0.4504980000000  0.4540700000000  0.5318470000000 1.0
C      1  0.5154830000000  0.4911720000000  0.5644580000000 1.0
C      1  0.4496070000000  0.5409730000000  0.4708860000000 1.0
C      1  0.4968240000000  0.5318240000000  0.4584220000000 1.0
C      1  0.4310500000000  0.4727370000000  0.5026260000000 1.0
C      1  0.5240840000000  0.4272480000000  0.4889170000000 1.0
C      1  0.4988540000000  0.5006130000000  0.4493400000000 1.0
C      1  0.5021960000000  0.4591720000000  0.4240380000000 1.0
C      1  0.5082970000000  0.5678700000000  0.5413890000000 1.0
C      1  0.5312630000000  0.4907620000000  0.4504580000000 1.0
C      1  0.4429040000000  0.5191870000000  0.4454010000000 1.0
C      1  0.5304250000000  0.5482130000000  0.5496410000000 1.0
C      1  0.4616260000000  0.5301190000000  0.5223710000000 1.0
C      1  0.4334060000000  0.5149690000000  0.5338900000000 1.0
C      1  0.5148340000000  0.5413530000000  0.4243410000000 1.0
C      1  0.5470300000000  0.4901030000000  0.5169750000000 1.0
C      1  0.5166200000000  0.4950740000000  0.5037270000000 1.0
C      1  0.4994970000000  0.4903300000000  0.4106980000000 1.0
C      1  0.5253850000000  0.4427560000000  0.4651910000000 1.0
C      1  0.5613940000000  0.5429390000000  0.4939010000000 1.0
C      1  0.5606720000000  0.5169320000000  0.5242310000000 1.0
C      1  0.4608770000000  0.4998100000000  0.4370630000000 1.0
C      1  0.4913370000000  0.4831810000000  0.5321880000000 1.0
C      1  0.5166190000000  0.4647260000000  0.5200030000000 1.0
C      1  0.5130490000000  0.5270270000000  0.5066940000000 1.0
C      1  0.5478990000000  0.4323400000000  0.5340190000000 1.0
C      1  0.5362050000000  0.4765690000000  0.5451780000000 1.0
C      1  0.5268840000000  0.4790050000000  0.4219670000000 1.0
C      1  0.5519620000000  0.4517580000000  0.5596860000000 1.0
C      1  0.5216740000000  0.4402310000000  0.5530380000000 1.0
C      1  0.5136080000000  0.4358180000000  0.5137290000000 1.0
C      1  0.5154590000000  0.5249040000000  0.5624080000000 1.0
C      1  0.4774630000000  0.4414490000000  0.4632910000000 1.0
C      1  0.4155430000000  0.4534610000000  0.4939470000000 1.0
C      1  0.4328590000000  0.4836600000000  0.5329900000000 1.0
C      1  0.5527110000000  0.5400650000000  0.5361910000000 1.0
C      1  0.4518470000000  0.4717680000000  0.5578410000000 1.0
C      1  0.5486350000000  0.5171400000000  0.4548060000000 1.0
C      1  0.4766510000000  0.4786740000000  0.5689980000000 1.0
C      1  0.4845370000000  0.5586520000000  0.5592940000000 1.0
C      1  0.5660000000000  0.4915320000000  0.4695980000000 1.0
C      1  0.5329160000000  0.5425830000000  0.4883100000000 1.0
C      1  0.4886680000000  0.4251250000000  0.5223210000000 1.0
C      1  0.4747830000000  0.4841960000000  0.4627410000000 1.0
C      1  0.4508880000000  0.4898400000000  0.4865750000000 1.0
C      1  0.4503820000000  0.5783660000000  0.5031240000000 1.0
C      1  0.4960490000000  0.5786850000000  0.5132450000000 1.0
C      1  0.4997040000000  0.5132070000000  0.5351200000000 1.0
C      1  0.5011810000000  0.4611870000000  0.5566350000000 1.0
C      1  0.4771880000000  0.5512270000000  0.4623280000000 1.0
C      1  0.4892830000000  0.4810110000000  0.4924170000000 1.0
C      1  0.4464590000000  0.5510520000000  0.5002650000000 1.0
C      1  0.4871880000000  0.5082330000000  0.5727670000000 1.0
C      1  0.4766880000000  0.5316710000000  0.5530290000000 1.0
C      1  0.4764800000000  0.5878610000000  0.4947620000000 1.0
C      1  0.5278210000000  0.5411550000000  0.4558020000000 1.0
C      1  0.4819640000000  0.5788620000000  0.4678570000000 1.0
C      1  0.5426070000000  0.4672110000000  0.4685790000000 1.0
C      1  0.4908560000000  0.5470940000000  0.5165910000000 1.0
C      1  0.5581240000000  0.4422420000000  0.5097070000000 1.0
C      1  0.4981460000000  0.5191190000000  0.4206080000000 1.0
END
