TITL C-2778428-5639-987 -0.00272136121808795 125000 -651.479803935281 0 0 114 (C1) n - 1
REM
REM in /home/nfs/bkarasulu/CARBON/AIRSS/Generating-Clusters/REBO/Only-C1/SD-CG/HFTN-CG
REM
REM
REM
REM
REM
REM ./C.cell (11c1c37f851c82e70ff6c80c92926a4b)
REM
REM compiler GCC version 9.2.1 20190827 (Red Hat 9.2.1-1)
REM options -cpp -mtune=generic -march=x86-64 -g -O0 -fpre-include=/usr/include/finclude/math-vector-fortran.h
REM seed -1183291817 -120786686 -1730886932 1077245499 -192556456 -2044645734 95518140 941324680 -1749323815 -224720085 -1262604752 -710046643 -821246076 -1528258703 -79438454 205107483 1450136382 1575743535 910829007 1786466853 987514732 374643075 446538061 1833046402 333740628 -1484111219 -142309733 -1933187212 -579568764 1322161317 -976522127 954875925 -1712989755
REM
CELL 1.54180   50.00000   50.00000   50.00000   90.00000   90.00000   90.00000
LATT -1
SFAC C  
C      1  0.4922840000000  0.5385190000000  0.5834990000000 1.0
C      1  0.4570240000000  0.4343250000000  0.4696920000000 1.0
C      1  0.5318010000000  0.5034300000000  0.5822910000000 1.0
C      1  0.5252270000000  0.4952960000000  0.4097210000000 1.0
C      1  0.4361300000000  0.5593870000000  0.5166150000000 1.0
C      1  0.5152200000000  0.4620000000000  0.4540770000000 1.0
C      1  0.4872340000000  0.5604310000000  0.5604210000000 1.0
C      1  0.5398070000000  0.4846930000000  0.4613430000000 1.0
C      1  0.4638190000000  0.5104170000000  0.5148870000000 1.0
C      1  0.5124110000000  0.5179560000000  0.5364870000000 1.0
C      1  0.4349140000000  0.4561510000000  0.4583820000000 1.0
C      1  0.5284040000000  0.4595900000000  0.5337880000000 1.0
C      1  0.4540200000000  0.5087290000000  0.4828060000000 1.0
C      1  0.4544700000000  0.5616350000000  0.4656240000000 1.0
C      1  0.4960470000000  0.5054630000000  0.5127150000000 1.0
C      1  0.4755020000000  0.5161430000000  0.5981400000000 1.0
C      1  0.5251350000000  0.5757480000000  0.5181070000000 1.0
C      1  0.4908850000000  0.5439330000000  0.5311330000000 1.0
C      1  0.4759010000000  0.4723730000000  0.5398310000000 1.0
C      1  0.4981490000000  0.5875590000000  0.5177920000000 1.0
C      1  0.4861240000000  0.5520750000000  0.5044410000000 1.0
C      1  0.5411450000000  0.5103140000000  0.4846250000000 1.0
C      1  0.4166350000000  0.4624110000000  0.4854510000000 1.0
C      1  0.4880650000000  0.4734280000000  0.5100110000000 1.0
C      1  0.4955380000000  0.5873680000000  0.4617750000000 1.0
C      1  0.4995120000000  0.4991110000000  0.4619220000000 1.0
C      1  0.4337250000000  0.5206070000000  0.5628440000000 1.0
C      1  0.4359500000000  0.4741990000000  0.5444480000000 1.0
C      1  0.4373790000000  0.5059120000000  0.5328690000000 1.0
C      1  0.5765010000000  0.4468250000000  0.4630470000000 1.0
C      1  0.4878890000000  0.4704960000000  0.4707470000000 1.0
C      1  0.5887210000000  0.5322910000000  0.4606810000000 1.0
C      1  0.4372120000000  0.5263550000000  0.4586800000000 1.0
C      1  0.4678740000000  0.5205400000000  0.6244280000000 1.0
C      1  0.5399440000000  0.5263630000000  0.5642420000000 1.0
C      1  0.4846460000000  0.5829190000000  0.4899340000000 1.0
C      1  0.5504830000000  0.5791240000000  0.4976900000000 1.0
C      1  0.5400190000000  0.4243260000000  0.5485390000000 1.0
C      1  0.5636200000000  0.4916800000000  0.5445570000000 1.0
C      1  0.4547940000000  0.5599080000000  0.5371270000000 1.0
C      1  0.4519600000000  0.4597880000000  0.5188630000000 1.0
C      1  0.4631930000000  0.4779480000000  0.4870770000000 1.0
C      1  0.4152680000000  0.5073750000000  0.5102100000000 1.0
C      1  0.4768880000000  0.5491550000000  0.4224860000000 1.0
C      1  0.4162630000000  0.5385900000000  0.4987500000000 1.0
C      1  0.5477380000000  0.4614400000000  0.5053760000000 1.0
C      1  0.5678380000000  0.5220010000000  0.4358340000000 1.0
C      1  0.4766510000000  0.4243290000000  0.5603240000000 1.0
C      1  0.5457230000000  0.4768780000000  0.4280210000000 1.0
C      1  0.5798370000000  0.4733730000000  0.5040160000000 1.0
C      1  0.4754120000000  0.5159760000000  0.4593290000000 1.0
C      1  0.4919600000000  0.4965700000000  0.4157990000000 1.0
C      1  0.4698850000000  0.4401030000000  0.4976320000000 1.0
C      1  0.4380540000000  0.4225610000000  0.5146610000000 1.0
C      1  0.5992880000000  0.5134600000000  0.4774290000000 1.0
C      1  0.5525060000000  0.5798050000000  0.4634780000000 1.0
C      1  0.5514240000000  0.5289150000000  0.5113530000000 1.0
C      1  0.5562310000000  0.5194580000000  0.5424810000000 1.0
C      1  0.4526360000000  0.5440890000000  0.4384290000000 1.0
C      1  0.4632970000000  0.4510430000000  0.4419180000000 1.0
C      1  0.4739780000000  0.4276690000000  0.5267530000000 1.0
C      1  0.5758910000000  0.4689750000000  0.5334520000000 1.0
C      1  0.4942420000000  0.5720910000000  0.4381090000000 1.0
C      1  0.5410230000000  0.4744350000000  0.5849910000000 1.0
C      1  0.5207700000000  0.4331350000000  0.4626330000000 1.0
C      1  0.4920410000000  0.4661940000000  0.4315320000000 1.0
C      1  0.5100680000000  0.5532050000000  0.4822070000000 1.0
C      1  0.5048120000000  0.4017230000000  0.4979300000000 1.0
C      1  0.5356040000000  0.4259840000000  0.4918860000000 1.0
C      1  0.5370730000000  0.5252670000000  0.4213760000000 1.0
C      1  0.5309290000000  0.5341520000000  0.4665790000000 1.0
C      1  0.5538190000000  0.5482620000000  0.4514670000000 1.0
C      1  0.5305680000000  0.5475870000000  0.5309840000000 1.0
C      1  0.5699180000000  0.5540860000000  0.5048710000000 1.0
C      1  0.4145350000000  0.5123440000000  0.4777100000000 1.0
C      1  0.5208780000000  0.5040160000000  0.4423220000000 1.0
C      1  0.5028790000000  0.5277550000000  0.4159290000000 1.0
C      1  0.5009900000000  0.4356070000000  0.4972720000000 1.0
C      1  0.4847340000000  0.4699570000000  0.5787560000000 1.0
C      1  0.4739780000000  0.4439540000000  0.5781170000000 1.0
C      1  0.5229670000000  0.5822840000000  0.4785950000000 1.0
C      1  0.5000240000000  0.4482390000000  0.5384150000000 1.0
C      1  0.5135760000000  0.4954710000000  0.4892150000000 1.0
C      1  0.4759490000000  0.5056250000000  0.5472120000000 1.0
C      1  0.5090020000000  0.5420580000000  0.4441950000000 1.0
C      1  0.4781790000000  0.5810950000000  0.5380550000000 1.0
C      1  0.5018710000000  0.5118160000000  0.5683940000000 1.0
C      1  0.4425840000000  0.4923930000000  0.5700150000000 1.0
C      1  0.5712600000000  0.4899950000000  0.4373490000000 1.0
C      1  0.4360480000000  0.5623450000000  0.4854950000000 1.0
C      1  0.4820690000000  0.5456910000000  0.4652700000000 1.0
C      1  0.4581100000000  0.5346070000000  0.5512360000000 1.0
C      1  0.5631980000000  0.4396590000000  0.4855500000000 1.0
C      1  0.5590200000000  0.4470940000000  0.5406170000000 1.0
C      1  0.5837530000000  0.4738600000000  0.4573500000000 1.0
C      1  0.4153870000000  0.5002200000000  0.4125740000000 1.0
C      1  0.4312910000000  0.4332500000000  0.4907150000000 1.0
C      1  0.5177220000000  0.4640910000000  0.4959170000000 1.0
C      1  0.4633060000000  0.5057990000000  0.4321720000000 1.0
C      1  0.5296270000000  0.4898090000000  0.5448520000000 1.0
C      1  0.4319400000000  0.4963230000000  0.4329850000000 1.0
C      1  0.5179740000000  0.5478520000000  0.5624060000000 1.0
C      1  0.5022660000000  0.4144720000000  0.5401650000000 1.0
C      1  0.5327950000000  0.4447480000000  0.5705730000000 1.0
C      1  0.4610900000000  0.4744150000000  0.4192750000000 1.0
C      1  0.4675410000000  0.4919190000000  0.5839710000000 1.0
C      1  0.4209980000000  0.4860790000000  0.4610230000000 1.0
C      1  0.5079930000000  0.4078070000000  0.4694060000000 1.0
C      1  0.5279390000000  0.4105070000000  0.5213040000000 1.0
C      1  0.5121880000000  0.4718390000000  0.5681010000000 1.0
C      1  0.4220090000000  0.4750880000000  0.5130410000000 1.0
C      1  0.5905230000000  0.4870490000000  0.4818140000000 1.0
C      1  0.5763840000000  0.5584340000000  0.4745150000000 1.0
C      1  0.5924750000000  0.5587810000000  0.5244800000000 1.0
END
