TITL C-2778432-5617-969 -0.00272165914234506 125000 -438.663525790737 0 0 76 (C1) n - 1
REM
REM in /home/nfs/bkarasulu/CARBON/AIRSS/Generating-Clusters/REBO/Only-C1/SD-CG/HFTN-CG
REM
REM
REM
REM
REM
REM ./C.cell (11c1c37f851c82e70ff6c80c92926a4b)
REM
REM compiler GCC version 9.2.1 20190827 (Red Hat 9.2.1-1)
REM options -cpp -mtune=generic -march=x86-64 -g -O0 -fpre-include=/usr/include/finclude/math-vector-fortran.h
REM seed -1001258763 1316645093 1828548681 316323180 -1386900896 840861875 186338483 -1544317563 1376613587 1639604451 1011502487 -2140926110 -1356011368 -1004479074 1020329544 2084136353 -211120515 516848565 -124811527 -2144976529 -289865615 1348078237 -1835169351 1292063732 -1265212793 -1477356565 833225379 -1205592791 -832615004 -1135358957 -1869749794 -182607221 197430465
REM
CELL 1.54180   50.00000   50.00000   50.00000   90.00000   90.00000   90.00000
LATT -1
SFAC C  
C      1  0.5011780000000  0.4898930000000  0.5925350000000 1.0
C      1  0.5086960000000  0.5311490000000  0.5682290000000 1.0
C      1  0.4957570000000  0.5517580000000  0.5483040000000 1.0
C      1  0.4866540000000  0.4779200000000  0.5031180000000 1.0
C      1  0.4717390000000  0.5914050000000  0.5402520000000 1.0
C      1  0.5125420000000  0.4672190000000  0.4420500000000 1.0
C      1  0.4531680000000  0.5150230000000  0.4816690000000 1.0
C      1  0.4566070000000  0.4818080000000  0.4229670000000 1.0
C      1  0.5082290000000  0.5370960000000  0.4936730000000 1.0
C      1  0.4947960000000  0.4523860000000  0.4848680000000 1.0
C      1  0.5247150000000  0.4478580000000  0.4746200000000 1.0
C      1  0.5569490000000  0.5700190000000  0.5148910000000 1.0
C      1  0.4399820000000  0.4966160000000  0.5298540000000 1.0
C      1  0.5025720000000  0.4258360000000  0.5261540000000 1.0
C      1  0.5491290000000  0.5319060000000  0.4885020000000 1.0
C      1  0.5187140000000  0.5211040000000  0.4158030000000 1.0
C      1  0.4958410000000  0.5058080000000  0.4922210000000 1.0
C      1  0.4846780000000  0.4199860000000  0.4895330000000 1.0
C      1  0.4553370000000  0.5399810000000  0.5577480000000 1.0
C      1  0.5144090000000  0.4740420000000  0.4121130000000 1.0
C      1  0.4942770000000  0.4412820000000  0.4465310000000 1.0
C      1  0.4645450000000  0.5120100000000  0.5680950000000 1.0
C      1  0.5440700000000  0.5039430000000  0.4684200000000 1.0
C      1  0.5084520000000  0.5280810000000  0.4408310000000 1.0
C      1  0.5243430000000  0.4371140000000  0.5420260000000 1.0
C      1  0.5173960000000  0.4166330000000  0.4984000000000 1.0
C      1  0.5706330000000  0.4565590000000  0.5300280000000 1.0
C      1  0.4847860000000  0.5255800000000  0.5350000000000 1.0
C      1  0.4267010000000  0.4912930000000  0.4997730000000 1.0
C      1  0.4901220000000  0.5135480000000  0.5816000000000 1.0
C      1  0.4293180000000  0.5237650000000  0.5030560000000 1.0
C      1  0.4909660000000  0.5809670000000  0.4691110000000 1.0
C      1  0.5050230000000  0.5059630000000  0.5374960000000 1.0
C      1  0.5299010000000  0.5147740000000  0.5535590000000 1.0
C      1  0.4689070000000  0.5666520000000  0.5559440000000 1.0
C      1  0.5108710000000  0.5680750000000  0.5277190000000 1.0
C      1  0.4750700000000  0.5019270000000  0.4150830000000 1.0
C      1  0.4662650000000  0.4439720000000  0.4523510000000 1.0
C      1  0.4440280000000  0.4451630000000  0.4943800000000 1.0
C      1  0.5835080000000  0.4933040000000  0.4977020000000 1.0
C      1  0.5556380000000  0.5083410000000  0.5560120000000 1.0
C      1  0.4558590000000  0.4744220000000  0.5010600000000 1.0
C      1  0.4784170000000  0.5226140000000  0.4382420000000 1.0
C      1  0.4762610000000  0.5334870000000  0.4986290000000 1.0
C      1  0.5128910000000  0.4699870000000  0.5781140000000 1.0
C      1  0.5028930000000  0.4990630000000  0.4048340000000 1.0
C      1  0.5501340000000  0.4360630000000  0.5290320000000 1.0
C      1  0.5741030000000  0.4678290000000  0.5039710000000 1.0
C      1  0.5758960000000  0.5085800000000  0.4705790000000 1.0
C      1  0.5141010000000  0.4623060000000  0.5511180000000 1.0
C      1  0.4398070000000  0.4785660000000  0.4710480000000 1.0
C      1  0.4513220000000  0.5264340000000  0.5289600000000 1.0
C      1  0.4590930000000  0.4306910000000  0.4769270000000 1.0
C      1  0.4992460000000  0.5997970000000  0.4945550000000 1.0
C      1  0.5086690000000  0.4201330000000  0.4657140000000 1.0
C      1  0.4691640000000  0.5628940000000  0.4725850000000 1.0
C      1  0.5392030000000  0.4746760000000  0.4619440000000 1.0
C      1  0.4631450000000  0.5381440000000  0.4602440000000 1.0
C      1  0.4592290000000  0.5615970000000  0.5013900000000 1.0
C      1  0.5013500000000  0.4788630000000  0.5312510000000 1.0
C      1  0.5560030000000  0.4536150000000  0.4830610000000 1.0
C      1  0.4873690000000  0.4771940000000  0.4627030000000 1.0
C      1  0.5171800000000  0.5185950000000  0.4684570000000 1.0
C      1  0.5215890000000  0.5806290000000  0.4805030000000 1.0
C      1  0.5764330000000  0.5230630000000  0.5071390000000 1.0
C      1  0.4511110000000  0.4680810000000  0.4474510000000 1.0
C      1  0.4783220000000  0.4392600000000  0.5338940000000 1.0
C      1  0.4944550000000  0.5913540000000  0.5217760000000 1.0
C      1  0.5458480000000  0.4278000000000  0.5016460000000 1.0
C      1  0.5807900000000  0.5401990000000  0.4780570000000 1.0
C      1  0.5316200000000  0.5578300000000  0.5026220000000 1.0
C      1  0.4675020000000  0.4610970000000  0.5469960000000 1.0
C      1  0.4723740000000  0.4992710000000  0.4606760000000 1.0
C      1  0.4566110000000  0.4873740000000  0.5518070000000 1.0
C      1  0.5823930000000  0.4655130000000  0.5527210000000 1.0
C      1  0.4331040000000  0.5552230000000  0.5080750000000 1.0
END
