TITL C-2778437-8639-1128 -0.00283603235837786 125000 -102.690537591222 0 0 20 (C1) n - 1
REM
REM in /home/nfs/bkarasulu/CARBON/AIRSS/Generating-Clusters/REBO/Only-C1/SD-CG/HFTN-CG
REM
REM
REM
REM
REM
REM ./C.cell (11c1c37f851c82e70ff6c80c92926a4b)
REM
REM compiler GCC version 9.2.1 20190827 (Red Hat 9.2.1-1)
REM options -cpp -mtune=generic -march=x86-64 -g -O0 -fpre-include=/usr/include/finclude/math-vector-fortran.h
REM seed -1441547346 -228330087 1265395257 -375129487 1679010634 -766837349 -806367983 -1982138234 -690688628 1593635901 -567591952 536264090 -1756662602 -1870449021 1658003193 -1233759216 -1981612634 1971037958 337424157 -1727689602 923443988 -1625669302 525754613 637518315 -944583118 -908406215 -1136529282 853923456 -778540099 1657963042 -637889402 184001265 -1246954103
REM
CELL 1.54180   50.00000   50.00000   50.00000   90.00000   90.00000   90.00000
LATT -1
SFAC C  
C      1  0.5104880000000  0.5035440000000  0.5233780000000 1.0
C      1  0.5430730000000  0.5049760000000  0.4767950000000 1.0
C      1  0.4819510000000  0.4899840000000  0.5157850000000 1.0
C      1  0.4951150000000  0.5186680000000  0.4405230000000 1.0
C      1  0.4537590000000  0.4879410000000  0.4590080000000 1.0
C      1  0.4732670000000  0.4614480000000  0.5496180000000 1.0
C      1  0.5103880000000  0.5504000000000  0.5552570000000 1.0
C      1  0.5704980000000  0.5060160000000  0.4736910000000 1.0
C      1  0.5047710000000  0.4812390000000  0.4488680000000 1.0
C      1  0.4768540000000  0.4942050000000  0.4449710000000 1.0
C      1  0.5104350000000  0.5285800000000  0.5404120000000 1.0
C      1  0.5017680000000  0.4749630000000  0.5394980000000 1.0
C      1  0.4462750000000  0.4820650000000  0.4843680000000 1.0
C      1  0.5307550000000  0.5033850000000  0.5007290000000 1.0
C      1  0.5260780000000  0.5057370000000  0.4528700000000 1.0
C      1  0.5238150000000  0.4610240000000  0.5489320000000 1.0
C      1  0.5103410000000  0.5720670000000  0.5699990000000 1.0
C      1  0.5217570000000  0.5330320000000  0.4330810000000 1.0
C      1  0.4515300000000  0.4620200000000  0.5323280000000 1.0
C      1  0.4570810000000  0.4787050000000  0.5098860000000 1.0
END
