TITL C-2778426-5645-988 -0.00229530497660816 125000 -318.682945441127 0 0 56 (C1) n - 1
REM
REM in /home/nfs/bkarasulu/CARBON/AIRSS/Generating-Clusters/REBO/Only-C1/SD-CG/HFTN-CG
REM
REM
REM
REM
REM
REM ./C.cell (11c1c37f851c82e70ff6c80c92926a4b)
REM
REM compiler GCC version 9.2.1 20190827 (Red Hat 9.2.1-1)
REM options -cpp -mtune=generic -march=x86-64 -g -O0 -fpre-include=/usr/include/finclude/math-vector-fortran.h
REM seed -1338349291 1868506337 2045395833 1041157170 1753749411 -2050522358 -882169689 -291383553 -343216327 2120224306 1546903997 -456221378 596666617 -148204759 -1450474102 -485432831 1335978382 -1665150830 262284254 -760531529 1796662981 -91420807 -244612972 695775931 -1198246150 -1700970290 561691174 -1125830905 -1538976618 1869702746 -2038855243 -1321306989 1103385726
REM
CELL 1.54180   50.00000   50.00000   50.00000   90.00000   90.00000   90.00000
LATT -1
SFAC C  
C      1  0.4410490000000  0.4936570000000  0.4971550000000 1.0
C      1  0.4480320000000  0.5070290000000  0.4364210000000 1.0
C      1  0.5643070000000  0.4917380000000  0.4597060000000 1.0
C      1  0.5176630000000  0.4789490000000  0.5632170000000 1.0
C      1  0.4841040000000  0.4674540000000  0.4907910000000 1.0
C      1  0.4464400000000  0.4993090000000  0.5496210000000 1.0
C      1  0.5472090000000  0.4869420000000  0.5533330000000 1.0
C      1  0.5232130000000  0.5670540000000  0.4511110000000 1.0
C      1  0.5307360000000  0.5231550000000  0.5092140000000 1.0
C      1  0.5673490000000  0.5144500000000  0.4763870000000 1.0
C      1  0.5457010000000  0.5462860000000  0.5504020000000 1.0
C      1  0.4702340000000  0.4570880000000  0.5668840000000 1.0
C      1  0.4370040000000  0.5209060000000  0.4828980000000 1.0
C      1  0.4673390000000  0.4393440000000  0.5885990000000 1.0
C      1  0.5051490000000  0.5611860000000  0.5281130000000 1.0
C      1  0.4857070000000  0.4610630000000  0.5207420000000 1.0
C      1  0.5156260000000  0.4894640000000  0.4579350000000 1.0
C      1  0.4486280000000  0.5419540000000  0.5748800000000 1.0
C      1  0.4577030000000  0.4728230000000  0.4804450000000 1.0
C      1  0.4786200000000  0.4159260000000  0.5390790000000 1.0
C      1  0.4993040000000  0.5723500000000  0.4386770000000 1.0
C      1  0.4834470000000  0.5071270000000  0.5788440000000 1.0
C      1  0.5302840000000  0.5409120000000  0.4584950000000 1.0
C      1  0.5477190000000  0.4836550000000  0.4131350000000 1.0
C      1  0.5305600000000  0.5083370000000  0.5703570000000 1.0
C      1  0.5188890000000  0.5181460000000  0.4416710000000 1.0
C      1  0.5674020000000  0.4753910000000  0.5028350000000 1.0
C      1  0.4577100000000  0.5005700000000  0.5230440000000 1.0
C      1  0.5440670000000  0.5324890000000  0.4812770000000 1.0
C      1  0.4643030000000  0.4572820000000  0.4314690000000 1.0
C      1  0.5666290000000  0.4681090000000  0.4758710000000 1.0
C      1  0.4808830000000  0.5510790000000  0.4351390000000 1.0
C      1  0.4783840000000  0.4763500000000  0.4173020000000 1.0
C      1  0.4280560000000  0.5417770000000  0.4990330000000 1.0
C      1  0.5663700000000  0.4422140000000  0.4658820000000 1.0
C      1  0.4434820000000  0.5266880000000  0.4561570000000 1.0
C      1  0.5601670000000  0.5081740000000  0.5084150000000 1.0
C      1  0.4905410000000  0.4796730000000  0.5719370000000 1.0
C      1  0.5270830000000  0.5443020000000  0.5300090000000 1.0
C      1  0.4736650000000  0.5035350000000  0.4240290000000 1.0
C      1  0.5079330000000  0.5225760000000  0.5816840000000 1.0
C      1  0.5420660000000  0.4934140000000  0.4383170000000 1.0
C      1  0.5049110000000  0.4863680000000  0.4828480000000 1.0
C      1  0.4435910000000  0.4726120000000  0.5598070000000 1.0
C      1  0.4521670000000  0.4607370000000  0.4557800000000 1.0
C      1  0.4157850000000  0.4823480000000  0.5041640000000 1.0
C      1  0.5946390000000  0.4907030000000  0.5446880000000 1.0
C      1  0.5661260000000  0.4177640000000  0.4564500000000 1.0
C      1  0.5689710000000  0.4888870000000  0.5338360000000 1.0
C      1  0.5077400000000  0.5039920000000  0.5059230000000 1.0
C      1  0.4844300000000  0.5771340000000  0.5263220000000 1.0
C      1  0.4919500000000  0.5249900000000  0.4289340000000 1.0
C      1  0.4792650000000  0.4434460000000  0.5410190000000 1.0
C      1  0.4555560000000  0.5514020000000  0.4485040000000 1.0
C      1  0.4856460000000  0.4923640000000  0.5220180000000 1.0
C      1  0.4584640000000  0.5173280000000  0.5691930000000 1.0
END
