TITL C-2778424-3986-815 -0.00177521191326484 125000 -226.533499399258 0 0 40 (C1) n - 1
REM
REM in /home/nfs/bkarasulu/CARBON/AIRSS/Generating-Clusters/REBO/Only-C1/SD-CG/HFTN-CG
REM
REM
REM
REM
REM
REM ./C.cell (11c1c37f851c82e70ff6c80c92926a4b)
REM
REM compiler GCC version 9.2.1 20190827 (Red Hat 9.2.1-1)
REM options -cpp -mtune=generic -march=x86-64 -g -O0 -fpre-include=/usr/include/finclude/math-vector-fortran.h
REM seed 1843351014 -809612706 460225855 1892246131 -447186639 947268550 1170926297 -1243189033 -802607553 -1328185213 -510280899 -1542110572 -1775595224 -345652079 2081368956 571036707 1102417964 -967131227 219454496 2147042754 703797572 -1451044229 1431229485 -472861157 1141569465 425133594 1248750493 -1850167521 -355908540 753501974 456817385 -1867228224 -517286423
REM
CELL 1.54180   50.00000   50.00000   50.00000   90.00000   90.00000   90.00000
LATT -1
SFAC C  
C      1  0.4614030000000  0.4898090000000  0.4929290000000 1.0
C      1  0.5516600000000  0.5383550000000  0.5201360000000 1.0
C      1  0.5278640000000  0.5266910000000  0.5346270000000 1.0
C      1  0.5622550000000  0.4888050000000  0.4927390000000 1.0
C      1  0.5591060000000  0.4813120000000  0.5184750000000 1.0
C      1  0.5132550000000  0.4948730000000  0.4620620000000 1.0
C      1  0.5011170000000  0.5451670000000  0.4759880000000 1.0
C      1  0.4671300000000  0.5449670000000  0.5135820000000 1.0
C      1  0.5364300000000  0.4522210000000  0.5515270000000 1.0
C      1  0.5425570000000  0.4779500000000  0.5411260000000 1.0
C      1  0.5068010000000  0.4619520000000  0.4993570000000 1.0
C      1  0.4624660000000  0.4598650000000  0.4238810000000 1.0
C      1  0.4936750000000  0.5398930000000  0.5038560000000 1.0
C      1  0.4504770000000  0.5618690000000  0.4933540000000 1.0
C      1  0.4664490000000  0.4840830000000  0.4650070000000 1.0
C      1  0.5771210000000  0.5361560000000  0.5305280000000 1.0
C      1  0.5299130000000  0.5438830000000  0.4727050000000 1.0
C      1  0.4935900000000  0.4547750000000  0.5284140000000 1.0
C      1  0.4584110000000  0.4535290000000  0.5094750000000 1.0
C      1  0.5421500000000  0.5224970000000  0.4583740000000 1.0
C      1  0.4553400000000  0.4629210000000  0.4500280000000 1.0
C      1  0.5307520000000  0.4875920000000  0.4425530000000 1.0
C      1  0.4793660000000  0.4511050000000  0.4912530000000 1.0
C      1  0.4519700000000  0.5208420000000  0.5273430000000 1.0
C      1  0.4376810000000  0.4459140000000  0.4619730000000 1.0
C      1  0.4610910000000  0.4978560000000  0.5439540000000 1.0
C      1  0.4642340000000  0.4664900000000  0.5364200000000 1.0
C      1  0.4941350000000  0.4921620000000  0.5424830000000 1.0
C      1  0.5162970000000  0.4884830000000  0.4904330000000 1.0
C      1  0.4462620000000  0.5141520000000  0.4971500000000 1.0
C      1  0.4528820000000  0.5354090000000  0.4775130000000 1.0
C      1  0.4858490000000  0.5035350000000  0.4553050000000 1.0
C      1  0.5560650000000  0.5019570000000  0.4699720000000 1.0
C      1  0.4829640000000  0.4912990000000  0.5115430000000 1.0
C      1  0.5163240000000  0.5458440000000  0.5520070000000 1.0
C      1  0.5078080000000  0.5137000000000  0.5116860000000 1.0
C      1  0.5450980000000  0.5511840000000  0.4958250000000 1.0
C      1  0.5222160000000  0.4974650000000  0.5450100000000 1.0
C      1  0.4786990000000  0.5312040000000  0.4624120000000 1.0
C      1  0.5111370000000  0.4422360000000  0.5469950000000 1.0
END
