TITL C-2778427-5640-27 0.00274920241571932 125000 -820.027001313972 0 0 144 (C1) n - 1
REM
REM in /home/nfs/bkarasulu/CARBON/AIRSS/Generating-Clusters/REBO/Only-C1/SD-CG/HFTN-CG
REM
REM
REM
REM
REM
REM ./C.cell (11c1c37f851c82e70ff6c80c92926a4b)
REM
REM compiler GCC version 9.2.1 20190827 (Red Hat 9.2.1-1)
REM options -cpp -mtune=generic -march=x86-64 -g -O0 -fpre-include=/usr/include/finclude/math-vector-fortran.h
REM seed 1025294267 1577830618 86284302 1656696909 857062219 931238233 536102948 -886558898 -2062450693 -568900016 1360911327 -563705615 -1087536643 898121530 -782779127 -334918458 -1614302904 -1503664894 2122201392 123791838 348577941 -1653723226 -851372838 1156218445 1294867542 808855636 1540346875 -1790558059 1572389012 -1123415460 1801855782 -1573329103 2043461421
REM
CELL 1.54180   50.00000   50.00000   50.00000   90.00000   90.00000   90.00000
LATT -1
SFAC C  
C      1  0.4865520000000  0.4111340000000  0.5454150000000 1.0
C      1  0.5168200000000  0.4846280000000  0.4676450000000 1.0
C      1  0.5104270000000  0.4654780000000  0.4427330000000 1.0
C      1  0.5028780000000  0.5131780000000  0.4670670000000 1.0
C      1  0.5924090000000  0.4741290000000  0.4877190000000 1.0
C      1  0.5880520000000  0.5394390000000  0.5313270000000 1.0
C      1  0.5558700000000  0.4464260000000  0.5306140000000 1.0
C      1  0.5955860000000  0.5273740000000  0.5012290000000 1.0
C      1  0.5855160000000  0.4565660000000  0.5399810000000 1.0
C      1  0.5407360000000  0.5170170000000  0.4777190000000 1.0
C      1  0.4404980000000  0.5259110000000  0.5328180000000 1.0
C      1  0.4362260000000  0.4326930000000  0.4735990000000 1.0
C      1  0.5833610000000  0.5719700000000  0.4708610000000 1.0
C      1  0.4710720000000  0.4959610000000  0.3983690000000 1.0
C      1  0.4834650000000  0.4255990000000  0.4851810000000 1.0
C      1  0.5265780000000  0.5167460000000  0.4004020000000 1.0
C      1  0.5329250000000  0.4911700000000  0.5939490000000 1.0
C      1  0.4609290000000  0.5495060000000  0.4134970000000 1.0
C      1  0.5286440000000  0.5768180000000  0.5019790000000 1.0
C      1  0.4938020000000  0.5492990000000  0.5651850000000 1.0
C      1  0.5537120000000  0.4167180000000  0.4497980000000 1.0
C      1  0.4646520000000  0.5044530000000  0.4730930000000 1.0
C      1  0.5823530000000  0.4255160000000  0.5420400000000 1.0
C      1  0.5859030000000  0.4959730000000  0.5093030000000 1.0
C      1  0.5886850000000  0.4839980000000  0.5384530000000 1.0
C      1  0.4840390000000  0.4904970000000  0.5401500000000 1.0
C      1  0.4317990000000  0.5553080000000  0.5120580000000 1.0
C      1  0.4069320000000  0.4824530000000  0.5214280000000 1.0
C      1  0.5492400000000  0.4596450000000  0.5033720000000 1.0
C      1  0.5374540000000  0.5407060000000  0.5337890000000 1.0
C      1  0.5888530000000  0.5081860000000  0.4670960000000 1.0
C      1  0.5194250000000  0.4708330000000  0.5453310000000 1.0
C      1  0.5245520000000  0.4042460000000  0.4724730000000 1.0
C      1  0.3997820000000  0.4904560000000  0.4944440000000 1.0
C      1  0.4658930000000  0.4632730000000  0.5752400000000 1.0
C      1  0.5249640000000  0.5421390000000  0.4178770000000 1.0
C      1  0.4052160000000  0.4737540000000  0.4682800000000 1.0
C      1  0.5355280000000  0.5109450000000  0.4444140000000 1.0
C      1  0.4680730000000  0.5001240000000  0.4321740000000 1.0
C      1  0.5383140000000  0.4344330000000  0.4744570000000 1.0
C      1  0.4662480000000  0.5159150000000  0.5895380000000 1.0
C      1  0.5744950000000  0.5289030000000  0.5595580000000 1.0
C      1  0.4634200000000  0.5476420000000  0.5239510000000 1.0
C      1  0.4800340000000  0.5907000000000  0.4636900000000 1.0
C      1  0.5153400000000  0.5192820000000  0.5253810000000 1.0
C      1  0.4275730000000  0.5307180000000  0.5626410000000 1.0
C      1  0.4792680000000  0.5591540000000  0.4755360000000 1.0
C      1  0.5718560000000  0.4052310000000  0.4991030000000 1.0
C      1  0.5715030000000  0.5956570000000  0.4868540000000 1.0
C      1  0.4422630000000  0.5490470000000  0.4642640000000 1.0
C      1  0.4047790000000  0.5059400000000  0.5391200000000 1.0
C      1  0.4961490000000  0.4830970000000  0.4100220000000 1.0
C      1  0.4973500000000  0.5852160000000  0.4992400000000 1.0
C      1  0.4796470000000  0.4762030000000  0.4846610000000 1.0
C      1  0.4923890000000  0.5245490000000  0.5975030000000 1.0
C      1  0.5440670000000  0.5988140000000  0.4853700000000 1.0
C      1  0.4985550000000  0.5188890000000  0.5525900000000 1.0
C      1  0.3974320000000  0.5552720000000  0.5323370000000 1.0
C      1  0.5217150000000  0.4750230000000  0.4960210000000 1.0
C      1  0.5627510000000  0.5318260000000  0.4485660000000 1.0
C      1  0.3983040000000  0.5194110000000  0.4941710000000 1.0
C      1  0.5064170000000  0.5270520000000  0.4974470000000 1.0
C      1  0.4608430000000  0.4247340000000  0.5279830000000 1.0
C      1  0.5358540000000  0.4933480000000  0.4162590000000 1.0
C      1  0.4911650000000  0.4526960000000  0.4671880000000 1.0
C      1  0.5853640000000  0.4408540000000  0.4474180000000 1.0
C      1  0.4822050000000  0.5672310000000  0.5245570000000 1.0
C      1  0.5865980000000  0.5411160000000  0.4713310000000 1.0
C      1  0.5355170000000  0.5658850000000  0.5486510000000 1.0
C      1  0.4464330000000  0.5830830000000  0.5168870000000 1.0
C      1  0.5250920000000  0.5855330000000  0.5322480000000 1.0
C      1  0.4770050000000  0.4429620000000  0.5516440000000 1.0
C      1  0.5193680000000  0.5597990000000  0.5729700000000 1.0
C      1  0.4377370000000  0.5041050000000  0.4649150000000 1.0
C      1  0.5290180000000  0.5478890000000  0.4853160000000 1.0
C      1  0.5141840000000  0.3913570000000  0.5473300000000 1.0
C      1  0.4303780000000  0.4683400000000  0.5287760000000 1.0
C      1  0.3968470000000  0.5285070000000  0.5218390000000 1.0
C      1  0.5129640000000  0.4165890000000  0.5667520000000 1.0
C      1  0.4651580000000  0.4496150000000  0.4261900000000 1.0
C      1  0.5438660000000  0.4650890000000  0.4642570000000 1.0
C      1  0.4298340000000  0.4988450000000  0.5602070000000 1.0
C      1  0.4351290000000  0.4616300000000  0.4691490000000 1.0
C      1  0.5185200000000  0.5177700000000  0.5805280000000 1.0
C      1  0.5333780000000  0.4208060000000  0.5327580000000 1.0
C      1  0.5296250000000  0.4313550000000  0.4356490000000 1.0
C      1  0.4938460000000  0.5477860000000  0.4202080000000 1.0
C      1  0.5454600000000  0.5145520000000  0.5512570000000 1.0
C      1  0.5659740000000  0.4970000000000  0.4681630000000 1.0
C      1  0.5128950000000  0.4389670000000  0.5832680000000 1.0
C      1  0.4171460000000  0.4736020000000  0.4362160000000 1.0
C      1  0.4648210000000  0.5852160000000  0.4936060000000 1.0
C      1  0.4873870000000  0.5384140000000  0.4522590000000 1.0
C      1  0.4430770000000  0.4469460000000  0.5114720000000 1.0
C      1  0.4419850000000  0.5012640000000  0.5094420000000 1.0
C      1  0.4432600000000  0.5313210000000  0.4934990000000 1.0
C      1  0.4909180000000  0.4552860000000  0.4192000000000 1.0
C      1  0.5332020000000  0.4580140000000  0.5860480000000 1.0
C      1  0.4935570000000  0.4850530000000  0.5941380000000 1.0
C      1  0.4571870000000  0.5304470000000  0.4391110000000 1.0
C      1  0.3826190000000  0.5757300000000  0.5224870000000 1.0
C      1  0.5392250000000  0.4886870000000  0.5611350000000 1.0
C      1  0.5765200000000  0.4231020000000  0.4743590000000 1.0
C      1  0.5640130000000  0.4079310000000  0.5252830000000 1.0
C      1  0.4558510000000  0.4897360000000  0.5789950000000 1.0
C      1  0.4552930000000  0.4217440000000  0.4944580000000 1.0
C      1  0.5131470000000  0.5950350000000  0.4703720000000 1.0
C      1  0.4658740000000  0.5592130000000  0.5655150000000 1.0
C      1  0.4241320000000  0.5242540000000  0.4389430000000 1.0
C      1  0.5618870000000  0.4767030000000  0.5826430000000 1.0
C      1  0.4860220000000  0.4461540000000  0.5904350000000 1.0
C      1  0.5795820000000  0.4969420000000  0.5623240000000 1.0
C      1  0.5374800000000  0.4627920000000  0.4248920000000 1.0
C      1  0.4755340000000  0.5311360000000  0.4896000000000 1.0
C      1  0.5029480000000  0.4269990000000  0.4476850000000 1.0
C      1  0.5408970000000  0.5499620000000  0.4381760000000 1.0
C      1  0.4539350000000  0.4890890000000  0.5391610000000 1.0
C      1  0.5454560000000  0.5381120000000  0.5753890000000 1.0
C      1  0.5552520000000  0.5065400000000  0.5054380000000 1.0
C      1  0.5277100000000  0.4354230000000  0.5044280000000 1.0
C      1  0.5303570000000  0.4915820000000  0.5222930000000 1.0
C      1  0.4974880000000  0.5890260000000  0.5388350000000 1.0
C      1  0.4443760000000  0.5739280000000  0.5470670000000 1.0
C      1  0.5026230000000  0.5037730000000  0.4354820000000 1.0
C      1  0.4044320000000  0.5037880000000  0.4556980000000 1.0
C      1  0.4990400000000  0.5320250000000  0.3902000000000 1.0
C      1  0.4769840000000  0.5171490000000  0.3810300000000 1.0
C      1  0.4509810000000  0.5382650000000  0.5799990000000 1.0
C      1  0.4117390000000  0.5345730000000  0.4692970000000 1.0
C      1  0.5315570000000  0.5704050000000  0.4605480000000 1.0
C      1  0.5714890000000  0.4554900000000  0.4819050000000 1.0
C      1  0.4192630000000  0.5582720000000  0.5502300000000 1.0
C      1  0.5624300000000  0.5800580000000  0.4513960000000 1.0
C      1  0.5081800000000  0.4439530000000  0.5380360000000 1.0
C      1  0.4490660000000  0.5776560000000  0.4578610000000 1.0
C      1  0.4939870000000  0.4767490000000  0.5150560000000 1.0
C      1  0.5609370000000  0.5359270000000  0.5162200000000 1.0
C      1  0.5000860000000  0.4829640000000  0.5691300000000 1.0
C      1  0.5660870000000  0.4591070000000  0.4399520000000 1.0
C      1  0.5001710000000  0.4010880000000  0.4780220000000 1.0
C      1  0.4488960000000  0.4744920000000  0.4940040000000 1.0
C      1  0.4861230000000  0.4060980000000  0.4409390000000 1.0
C      1  0.4501460000000  0.4728580000000  0.4406690000000 1.0
C      1  0.4981150000000  0.4442390000000  0.5056000000000 1.0
END
