TITL C-2778431-5191-67 0.00125676421560129 125000 -861.996869025739 0 0 147 (C1) n - 1
REM
REM in /home/nfs/bkarasulu/CARBON/AIRSS/Generating-Clusters/REBO/Only-C1/SD-CG/HFTN-CG
REM
REM
REM
REM
REM
REM ./C.cell (11c1c37f851c82e70ff6c80c92926a4b)
REM
REM compiler GCC version 9.2.1 20190827 (Red Hat 9.2.1-1)
REM options -cpp -mtune=generic -march=x86-64 -g -O0 -fpre-include=/usr/include/finclude/math-vector-fortran.h
REM seed -1036685521 320918811 808370849 1234958628 -2130689635 1264710795 -113701129 -35769366 1130120402 -1882576834 642778605 -30700731 -1920839603 1011738379 1055092972 360472895 -1607727992 -946319168 -716096605 202182225 1418625465 -2008944968 783108409 537973044 965714268 -1768858668 -1371586299 766109703 -2110154746 -300188563 -1425279970 1189743246 2062342155
REM
CELL 1.54180   50.00000   50.00000   50.00000   90.00000   90.00000   90.00000
LATT -1
SFAC C  
C      1  0.4034190000000  0.5020470000000  0.4953840000000 1.0
C      1  0.4781970000000  0.5100310000000  0.4790640000000 1.0
C      1  0.4317970000000  0.5676330000000  0.5243310000000 1.0
C      1  0.4594090000000  0.5573740000000  0.5628830000000 1.0
C      1  0.5857590000000  0.5372220000000  0.4548530000000 1.0
C      1  0.5396340000000  0.5837090000000  0.5147530000000 1.0
C      1  0.4928430000000  0.4620710000000  0.5495800000000 1.0
C      1  0.4985430000000  0.3975810000000  0.4971870000000 1.0
C      1  0.4495830000000  0.6034680000000  0.4784880000000 1.0
C      1  0.5398770000000  0.4098200000000  0.4642490000000 1.0
C      1  0.5614910000000  0.5067120000000  0.5379260000000 1.0
C      1  0.5249200000000  0.5037450000000  0.5835090000000 1.0
C      1  0.4783120000000  0.5763500000000  0.5546540000000 1.0
C      1  0.4767830000000  0.4342920000000  0.4319250000000 1.0
C      1  0.5582950000000  0.4154970000000  0.5254970000000 1.0
C      1  0.4956660000000  0.4807590000000  0.4034010000000 1.0
C      1  0.5454740000000  0.5619120000000  0.5582040000000 1.0
C      1  0.5654560000000  0.4621220000000  0.4528240000000 1.0
C      1  0.4869020000000  0.5029310000000  0.4486790000000 1.0
C      1  0.5722440000000  0.5592930000000  0.5671360000000 1.0
C      1  0.5667580000000  0.4421170000000  0.5139380000000 1.0
C      1  0.4112350000000  0.4772810000000  0.5154220000000 1.0
C      1  0.5262050000000  0.5278820000000  0.5661740000000 1.0
C      1  0.4233540000000  0.4866490000000  0.5459560000000 1.0
C      1  0.5073200000000  0.4003470000000  0.4649290000000 1.0
C      1  0.4806670000000  0.5507110000000  0.5029950000000 1.0
C      1  0.4173890000000  0.4436900000000  0.5141710000000 1.0
C      1  0.5516550000000  0.4500380000000  0.5483280000000 1.0
C      1  0.5389290000000  0.4862480000000  0.5425070000000 1.0
C      1  0.5177310000000  0.5364500000000  0.4476680000000 1.0
C      1  0.5680600000000  0.5418110000000  0.4319920000000 1.0
C      1  0.5366160000000  0.4785250000000  0.4243250000000 1.0
C      1  0.5428850000000  0.4643470000000  0.5185060000000 1.0
C      1  0.4996140000000  0.5972000000000  0.5467050000000 1.0
C      1  0.4976060000000  0.4067360000000  0.5277060000000 1.0
C      1  0.4971940000000  0.4563230000000  0.3915220000000 1.0
C      1  0.5118330000000  0.5758390000000  0.4451230000000 1.0
C      1  0.4137320000000  0.4392240000000  0.4831480000000 1.0
C      1  0.5034580000000  0.5132730000000  0.5303700000000 1.0
C      1  0.4878060000000  0.5344740000000  0.5468100000000 1.0
C      1  0.5704160000000  0.5005760000000  0.4900250000000 1.0
C      1  0.4720960000000  0.4084860000000  0.4817820000000 1.0
C      1  0.4636020000000  0.5690090000000  0.4894780000000 1.0
C      1  0.5015520000000  0.5115310000000  0.4125420000000 1.0
C      1  0.4521880000000  0.5003140000000  0.5351750000000 1.0
C      1  0.4586090000000  0.4496290000000  0.5834770000000 1.0
C      1  0.4046240000000  0.5280860000000  0.5468270000000 1.0
C      1  0.5396520000000  0.5480330000000  0.4045880000000 1.0
C      1  0.4223120000000  0.4127370000000  0.4762940000000 1.0
C      1  0.4237800000000  0.4605270000000  0.4685700000000 1.0
C      1  0.5260730000000  0.4158460000000  0.5011790000000 1.0
C      1  0.4726120000000  0.5213990000000  0.4278240000000 1.0
C      1  0.5669810000000  0.5797480000000  0.5177480000000 1.0
C      1  0.5603550000000  0.5260780000000  0.4082030000000 1.0
C      1  0.4651260000000  0.5264950000000  0.5214400000000 1.0
C      1  0.5500720000000  0.5007990000000  0.4556660000000 1.0
C      1  0.5636530000000  0.4768600000000  0.5644430000000 1.0
C      1  0.5782200000000  0.5554810000000  0.4759760000000 1.0
C      1  0.4823690000000  0.5697400000000  0.4335300000000 1.0
C      1  0.4984590000000  0.4199510000000  0.5591200000000 1.0
C      1  0.4306560000000  0.5749480000000  0.4814010000000 1.0
C      1  0.5114850000000  0.5511460000000  0.5785740000000 1.0
C      1  0.4937630000000  0.4453180000000  0.4575710000000 1.0
C      1  0.5099740000000  0.5483560000000  0.4902910000000 1.0
C      1  0.5630170000000  0.4970460000000  0.4120200000000 1.0
C      1  0.4912780000000  0.4456650000000  0.5219980000000 1.0
C      1  0.4913810000000  0.4914450000000  0.6038210000000 1.0
C      1  0.5097110000000  0.4901840000000  0.5490910000000 1.0
C      1  0.5142090000000  0.5087050000000  0.4662500000000 1.0
C      1  0.5446280000000  0.5530780000000  0.4441290000000 1.0
C      1  0.4355710000000  0.4751670000000  0.4450580000000 1.0
C      1  0.4949560000000  0.4324840000000  0.4072420000000 1.0
C      1  0.4285250000000  0.4535180000000  0.5424410000000 1.0
C      1  0.4443020000000  0.4053500000000  0.4930500000000 1.0
C      1  0.4993520000000  0.5234420000000  0.5952450000000 1.0
C      1  0.5296920000000  0.4143030000000  0.5350080000000 1.0
C      1  0.4547060000000  0.5387530000000  0.4649670000000 1.0
C      1  0.4804880000000  0.4634350000000  0.5991250000000 1.0
C      1  0.5304930000000  0.4307410000000  0.5629090000000 1.0
C      1  0.4888150000000  0.5390290000000  0.4656880000000 1.0
C      1  0.5764540000000  0.4483940000000  0.4765080000000 1.0
C      1  0.4746980000000  0.4631020000000  0.4772090000000 1.0
C      1  0.4682520000000  0.4232050000000  0.5335540000000 1.0
C      1  0.5380210000000  0.5062660000000  0.4876890000000 1.0
C      1  0.4445500000000  0.5221930000000  0.5778210000000 1.0
C      1  0.4389720000000  0.4690300000000  0.5710610000000 1.0
C      1  0.5183870000000  0.5774680000000  0.5638030000000 1.0
C      1  0.4953110000000  0.4722310000000  0.5010560000000 1.0
C      1  0.4592460000000  0.4625460000000  0.4354180000000 1.0
C      1  0.4061510000000  0.5270790000000  0.5163800000000 1.0
C      1  0.5558490000000  0.4243350000000  0.4866660000000 1.0
C      1  0.4907080000000  0.5439080000000  0.4130850000000 1.0
C      1  0.5664840000000  0.4635810000000  0.4189110000000 1.0
C      1  0.4440360000000  0.4762440000000  0.5135080000000 1.0
C      1  0.4781450000000  0.4091460000000  0.4507630000000 1.0
C      1  0.4128530000000  0.5550740000000  0.5025100000000 1.0
C      1  0.4201850000000  0.5290040000000  0.5688440000000 1.0
C      1  0.4568310000000  0.4958360000000  0.5657600000000 1.0
C      1  0.4864220000000  0.5017710000000  0.5069910000000 1.0
C      1  0.5913410000000  0.5398090000000  0.5628880000000 1.0
C      1  0.5277270000000  0.4537720000000  0.5866570000000 1.0
C      1  0.4616700000000  0.5797270000000  0.4571930000000 1.0
C      1  0.5914690000000  0.5164700000000  0.5494640000000 1.0
C      1  0.4661230000000  0.4280000000000  0.5661650000000 1.0
C      1  0.5263640000000  0.4676810000000  0.4939510000000 1.0
C      1  0.5894110000000  0.4828160000000  0.5704460000000 1.0
C      1  0.4759290000000  0.5330680000000  0.5766320000000 1.0
C      1  0.4613280000000  0.4620960000000  0.5391440000000 1.0
C      1  0.5240520000000  0.5629330000000  0.5247520000000 1.0
C      1  0.5811890000000  0.4705410000000  0.5018690000000 1.0
C      1  0.4520550000000  0.5546590000000  0.4361830000000 1.0
C      1  0.4422350000000  0.4207420000000  0.5179440000000 1.0
C      1  0.4863150000000  0.4933600000000  0.5728340000000 1.0
C      1  0.5249850000000  0.5266060000000  0.5076320000000 1.0
C      1  0.4263030000000  0.5031190000000  0.4449240000000 1.0
C      1  0.4098380000000  0.5137340000000  0.4679360000000 1.0
C      1  0.5253160000000  0.4047920000000  0.4363510000000 1.0
C      1  0.4874270000000  0.4771610000000  0.4342940000000 1.0
C      1  0.5234580000000  0.6060850000000  0.5065680000000 1.0
C      1  0.4364730000000  0.5228570000000  0.5033610000000 1.0
C      1  0.5381680000000  0.4798710000000  0.5827620000000 1.0
C      1  0.4416860000000  0.5226820000000  0.4309540000000 1.0
C      1  0.5827320000000  0.5079030000000  0.4611700000000 1.0
C      1  0.5155190000000  0.4633940000000  0.4423520000000 1.0
C      1  0.4713100000000  0.6080380000000  0.5042880000000 1.0
C      1  0.4217610000000  0.5431740000000  0.4723560000000 1.0
C      1  0.4973890000000  0.6082380000000  0.5191550000000 1.0
C      1  0.4801810000000  0.4360590000000  0.4939000000000 1.0
C      1  0.5777120000000  0.5236100000000  0.5128480000000 1.0
C      1  0.5174700000000  0.4396610000000  0.4802460000000 1.0
C      1  0.4476120000000  0.5079960000000  0.4784080000000 1.0
C      1  0.5226650000000  0.5712970000000  0.4717500000000 1.0
C      1  0.4450420000000  0.5480480000000  0.5401400000000 1.0
C      1  0.4481990000000  0.4766030000000  0.4829150000000 1.0
C      1  0.5815820000000  0.5512080000000  0.5055140000000 1.0
C      1  0.4949220000000  0.5614450000000  0.5296630000000 1.0
C      1  0.5980470000000  0.5759210000000  0.5219100000000 1.0
C      1  0.5828720000000  0.4868030000000  0.4379260000000 1.0
C      1  0.5369930000000  0.4716740000000  0.4636800000000 1.0
C      1  0.5172840000000  0.5612870000000  0.4164680000000 1.0
C      1  0.5527210000000  0.5676060000000  0.4693550000000 1.0
C      1  0.4981500000000  0.4486500000000  0.5776660000000 1.0
C      1  0.5896760000000  0.4933470000000  0.5240880000000 1.0
C      1  0.5297650000000  0.5103500000000  0.4298220000000 1.0
C      1  0.4498980000000  0.5869310000000  0.5141190000000 1.0
C      1  0.5161520000000  0.4141220000000  0.4118620000000 1.0
C      1  0.5375270000000  0.5364680000000  0.5373740000000 1.0
END
