TITL C-2778430-5657-925 -0.000922560341508276 125000 -618.713712301983 0 0 107 (C1) n - 1
REM
REM in /home/nfs/bkarasulu/CARBON/AIRSS/Generating-Clusters/REBO/Only-C1/SD-CG/HFTN-CG
REM
REM
REM
REM
REM
REM ./C.cell (11c1c37f851c82e70ff6c80c92926a4b)
REM
REM compiler GCC version 9.2.1 20190827 (Red Hat 9.2.1-1)
REM options -cpp -mtune=generic -march=x86-64 -g -O0 -fpre-include=/usr/include/finclude/math-vector-fortran.h
REM seed 2108811387 -133439016 -1131856468 -854796116 248139198 -1280913471 1657354704 -1998955998 -477935183 909889728 1858767344 1206688939 1756497265 1608638276 1145767774 1341698978 -659298308 -1656930916 308088505 872254397 803675874 12926705 431571634 947321025 -1560338108 -194366366 380959657 -1176186815 -1296917400 -672286749 -1369046653 1865625540 -2144114347
REM
CELL 1.54180   50.00000   50.00000   50.00000   90.00000   90.00000   90.00000
LATT -1
SFAC C  
C      1  0.4615420000000  0.4135130000000  0.5234170000000 1.0
C      1  0.5606710000000  0.5034890000000  0.4870860000000 1.0
C      1  0.4424210000000  0.5774530000000  0.4745430000000 1.0
C      1  0.5659130000000  0.5530830000000  0.4706640000000 1.0
C      1  0.5854120000000  0.4589020000000  0.4718880000000 1.0
C      1  0.5512420000000  0.5085550000000  0.5785190000000 1.0
C      1  0.5534170000000  0.4688600000000  0.5318080000000 1.0
C      1  0.5774040000000  0.4954600000000  0.4396400000000 1.0
C      1  0.5809780000000  0.5151890000000  0.5111270000000 1.0
C      1  0.5098660000000  0.4949410000000  0.5520130000000 1.0
C      1  0.4354940000000  0.5194660000000  0.4185090000000 1.0
C      1  0.4844690000000  0.4512630000000  0.5763500000000 1.0
C      1  0.4981480000000  0.4481310000000  0.4413920000000 1.0
C      1  0.4588660000000  0.4863530000000  0.4921740000000 1.0
C      1  0.4237460000000  0.4754460000000  0.4765370000000 1.0
C      1  0.4332420000000  0.5651630000000  0.5037170000000 1.0
C      1  0.5501260000000  0.4268610000000  0.5067210000000 1.0
C      1  0.4562910000000  0.5398440000000  0.4176110000000 1.0
C      1  0.4113980000000  0.5413020000000  0.5274700000000 1.0
C      1  0.5443520000000  0.4765750000000  0.4174700000000 1.0
C      1  0.5348960000000  0.5315710000000  0.5712110000000 1.0
C      1  0.5443410000000  0.4332420000000  0.4489110000000 1.0
C      1  0.5769240000000  0.5117780000000  0.5870480000000 1.0
C      1  0.4962650000000  0.5118410000000  0.4741110000000 1.0
C      1  0.4787640000000  0.4221380000000  0.4792980000000 1.0
C      1  0.5811620000000  0.4054150000000  0.4693050000000 1.0
C      1  0.5430870000000  0.5440810000000  0.5262250000000 1.0
C      1  0.4486120000000  0.4358370000000  0.5442250000000 1.0
C      1  0.5111810000000  0.5431530000000  0.4298290000000 1.0
C      1  0.4816170000000  0.5273260000000  0.5245580000000 1.0
C      1  0.4553460000000  0.4502170000000  0.5721720000000 1.0
C      1  0.5285900000000  0.4083570000000  0.4892880000000 1.0
C      1  0.5861770000000  0.5422250000000  0.4959240000000 1.0
C      1  0.5571060000000  0.4183130000000  0.4738860000000 1.0
C      1  0.4478280000000  0.4801330000000  0.5237940000000 1.0
C      1  0.4496920000000  0.4596520000000  0.4639090000000 1.0
C      1  0.5189280000000  0.4143960000000  0.5319450000000 1.0
C      1  0.4926430000000  0.4799650000000  0.4440360000000 1.0
C      1  0.5684430000000  0.5153320000000  0.4605250000000 1.0
C      1  0.5185610000000  0.4752770000000  0.4048380000000 1.0
C      1  0.4922460000000  0.5827580000000  0.4693490000000 1.0
C      1  0.4887580000000  0.5434680000000  0.5517730000000 1.0
C      1  0.5209510000000  0.5772040000000  0.5501850000000 1.0
C      1  0.5024610000000  0.4782880000000  0.5046440000000 1.0
C      1  0.4656830000000  0.5459970000000  0.4472260000000 1.0
C      1  0.4215960000000  0.5555670000000  0.4671100000000 1.0
C      1  0.4177620000000  0.5075760000000  0.4661300000000 1.0
C      1  0.5061360000000  0.4134020000000  0.4726150000000 1.0
C      1  0.5391390000000  0.5544310000000  0.5537260000000 1.0
C      1  0.4919220000000  0.4152070000000  0.5312250000000 1.0
C      1  0.5788310000000  0.4406220000000  0.4987920000000 1.0
C      1  0.4456060000000  0.4775550000000  0.5764920000000 1.0
C      1  0.4561560000000  0.4208110000000  0.4963850000000 1.0
C      1  0.5283400000000  0.4608010000000  0.5613810000000 1.0
C      1  0.5406480000000  0.5379090000000  0.4869910000000 1.0
C      1  0.5174240000000  0.5176820000000  0.4234230000000 1.0
C      1  0.5064800000000  0.4652780000000  0.5358010000000 1.0
C      1  0.4742900000000  0.4646130000000  0.5125210000000 1.0
C      1  0.4529260000000  0.4815990000000  0.4405150000000 1.0
C      1  0.4327560000000  0.5259610000000  0.5105710000000 1.0
C      1  0.5163200000000  0.5469720000000  0.5074530000000 1.0
C      1  0.4323810000000  0.5373610000000  0.5488020000000 1.0
C      1  0.4997240000000  0.5105950000000  0.5079300000000 1.0
C      1  0.4824600000000  0.5261440000000  0.5870620000000 1.0
C      1  0.5071150000000  0.5217200000000  0.5663990000000 1.0
C      1  0.4674000000000  0.5019740000000  0.5857430000000 1.0
C      1  0.5485910000000  0.5091950000000  0.4271440000000 1.0
C      1  0.5803530000000  0.4797810000000  0.4928200000000 1.0
C      1  0.4819650000000  0.5554090000000  0.5892650000000 1.0
C      1  0.5552750000000  0.4553530000000  0.4343740000000 1.0
C      1  0.4554060000000  0.5230020000000  0.5450970000000 1.0
C      1  0.4719610000000  0.4927610000000  0.4664750000000 1.0
C      1  0.6025150000000  0.5019720000000  0.5223160000000 1.0
C      1  0.4676130000000  0.5734900000000  0.4626150000000 1.0
C      1  0.4964810000000  0.5723790000000  0.5673840000000 1.0
C      1  0.4341630000000  0.4463050000000  0.4912460000000 1.0
C      1  0.4415170000000  0.4919940000000  0.4188030000000 1.0
C      1  0.5786910000000  0.4673800000000  0.4457780000000 1.0
C      1  0.5162840000000  0.4279280000000  0.4484980000000 1.0
C      1  0.4544710000000  0.4934930000000  0.5490670000000 1.0
C      1  0.4313380000000  0.5021300000000  0.4948840000000 1.0
C      1  0.4457080000000  0.5712700000000  0.5324660000000 1.0
C      1  0.4867550000000  0.5509960000000  0.4929200000000 1.0
C      1  0.4831010000000  0.4815640000000  0.5637710000000 1.0
C      1  0.3952290000000  0.5248910000000  0.4762290000000 1.0
C      1  0.5184250000000  0.5746910000000  0.4875650000000 1.0
C      1  0.4809300000000  0.4451950000000  0.5371340000000 1.0
C      1  0.4322130000000  0.4528100000000  0.5231300000000 1.0
C      1  0.4771200000000  0.4490250000000  0.4652410000000 1.0
C      1  0.5532320000000  0.5158420000000  0.5264990000000 1.0
C      1  0.4723200000000  0.5675850000000  0.5362740000000 1.0
C      1  0.4885070000000  0.5748900000000  0.5139760000000 1.0
C      1  0.4911830000000  0.5409720000000  0.4642940000000 1.0
C      1  0.5020700000000  0.4938780000000  0.4195350000000 1.0
C      1  0.5205120000000  0.5566700000000  0.4584350000000 1.0
C      1  0.5400780000000  0.4817950000000  0.5746170000000 1.0
C      1  0.4344600000000  0.5313790000000  0.4499000000000 1.0
C      1  0.5777980000000  0.4657070000000  0.5186240000000 1.0
C      1  0.4587610000000  0.5428700000000  0.5075080000000 1.0
C      1  0.5027660000000  0.4691390000000  0.4749990000000 1.0
C      1  0.5399060000000  0.4929050000000  0.5362140000000 1.0
C      1  0.5273560000000  0.5089640000000  0.4880870000000 1.0
C      1  0.5379000000000  0.4405980000000  0.5353470000000 1.0
C      1  0.5159710000000  0.5842740000000  0.5208170000000 1.0
C      1  0.5464440000000  0.5370560000000  0.4475790000000 1.0
C      1  0.4041590000000  0.5494150000000  0.4956470000000 1.0
C      1  0.5597970000000  0.5614530000000  0.5034860000000 1.0
END
