TITL C-2778435-5768-1094 0.000770798268522966 125000 -735.27241068375 0 0 124 (C1) n - 1
REM
REM in /home/nfs/bkarasulu/CARBON/AIRSS/Generating-Clusters/REBO/Only-C1/SD-CG/HFTN-CG
REM
REM
REM
REM
REM
REM ./C.cell (11c1c37f851c82e70ff6c80c92926a4b)
REM
REM compiler GCC version 9.2.1 20190827 (Red Hat 9.2.1-1)
REM options -cpp -mtune=generic -march=x86-64 -g -O0 -fpre-include=/usr/include/finclude/math-vector-fortran.h
REM seed 607505934 -2081910919 -1345355554 -604911605 -810218778 855693159 1542557987 -1619386886 696633368 -255866514 -941829031 7378067 1855138340 -929408231 -2033339078 1647756759 -733755678 -230826488 -61566664 2042775794 -2017167712 802570108 -1527063919 1731607016 -1655998886 1357363184 954328490 -262084862 -1055004252 -1154321471 -226038939 1753978464 1497185573
REM
CELL 1.54180   50.00000   50.00000   50.00000   90.00000   90.00000   90.00000
LATT -1
SFAC C  
C      1  0.4406050000000  0.5275730000000  0.5317590000000 1.0
C      1  0.4519400000000  0.5177470000000  0.5868220000000 1.0
C      1  0.5873350000000  0.4655150000000  0.4642790000000 1.0
C      1  0.4265230000000  0.5297790000000  0.4588980000000 1.0
C      1  0.4196390000000  0.5682650000000  0.5328390000000 1.0
C      1  0.4728990000000  0.4907710000000  0.5838960000000 1.0
C      1  0.4918980000000  0.4342940000000  0.4365940000000 1.0
C      1  0.5597830000000  0.4314730000000  0.4889560000000 1.0
C      1  0.4782410000000  0.4699290000000  0.4446450000000 1.0
C      1  0.5051590000000  0.4953790000000  0.5842180000000 1.0
C      1  0.4400820000000  0.4227060000000  0.4943740000000 1.0
C      1  0.4058960000000  0.5009230000000  0.5046850000000 1.0
C      1  0.5248450000000  0.5251790000000  0.5394250000000 1.0
C      1  0.5008030000000  0.5053990000000  0.4767270000000 1.0
C      1  0.5406570000000  0.5317770000000  0.4218750000000 1.0
C      1  0.5475730000000  0.4987060000000  0.4726830000000 1.0
C      1  0.5790030000000  0.5060080000000  0.5543840000000 1.0
C      1  0.4802650000000  0.5816570000000  0.5267450000000 1.0
C      1  0.5563610000000  0.5199070000000  0.5335410000000 1.0
C      1  0.4540310000000  0.5473990000000  0.5731770000000 1.0
C      1  0.4343190000000  0.4852610000000  0.4813980000000 1.0
C      1  0.5532030000000  0.5423720000000  0.4460340000000 1.0
C      1  0.5754580000000  0.5017340000000  0.4764020000000 1.0
C      1  0.5421040000000  0.5031500000000  0.4171230000000 1.0
C      1  0.4395470000000  0.5026140000000  0.5430330000000 1.0
C      1  0.4865920000000  0.4340070000000  0.5121420000000 1.0
C      1  0.5812590000000  0.4641730000000  0.5221820000000 1.0
C      1  0.4796410000000  0.5492080000000  0.4857700000000 1.0
C      1  0.4872110000000  0.5300360000000  0.5085270000000 1.0
C      1  0.4861840000000  0.5004180000000  0.5239550000000 1.0
C      1  0.5053390000000  0.4222710000000  0.5450070000000 1.0
C      1  0.5071120000000  0.4857800000000  0.4509710000000 1.0
C      1  0.4360890000000  0.4959210000000  0.5706210000000 1.0
C      1  0.4693910000000  0.5043100000000  0.4837280000000 1.0
C      1  0.5531810000000  0.5523970000000  0.5572450000000 1.0
C      1  0.4346380000000  0.4491800000000  0.4533320000000 1.0
C      1  0.5205480000000  0.4836230000000  0.4135110000000 1.0
C      1  0.5641920000000  0.5522150000000  0.5262320000000 1.0
C      1  0.5662480000000  0.5640220000000  0.4639450000000 1.0
C      1  0.4778510000000  0.4548620000000  0.4938460000000 1.0
C      1  0.5484350000000  0.5757560000000  0.5096870000000 1.0
C      1  0.4519080000000  0.4662930000000  0.5771990000000 1.0
C      1  0.5064280000000  0.4563300000000  0.4857460000000 1.0
C      1  0.4441510000000  0.4631560000000  0.5452320000000 1.0
C      1  0.5276500000000  0.5629440000000  0.5646800000000 1.0
C      1  0.5129250000000  0.5416870000000  0.5180950000000 1.0
C      1  0.5091820000000  0.4553100000000  0.5372860000000 1.0
C      1  0.4595670000000  0.4748710000000  0.4916250000000 1.0
C      1  0.5602610000000  0.4462090000000  0.5337610000000 1.0
C      1  0.5841610000000  0.5392160000000  0.5055320000000 1.0
C      1  0.4898050000000  0.5299990000000  0.4073770000000 1.0
C      1  0.4940370000000  0.4368620000000  0.5693360000000 1.0
C      1  0.4959890000000  0.5892840000000  0.4788290000000 1.0
C      1  0.5482390000000  0.4723730000000  0.5022230000000 1.0
C      1  0.5319400000000  0.4814990000000  0.5767970000000 1.0
C      1  0.5174990000000  0.4977080000000  0.5245860000000 1.0
C      1  0.5844420000000  0.5105510000000  0.5032050000000 1.0
C      1  0.4293390000000  0.4779570000000  0.4542080000000 1.0
C      1  0.5884050000000  0.4941510000000  0.4494770000000 1.0
C      1  0.5622790000000  0.5257580000000  0.5724370000000 1.0
C      1  0.5210280000000  0.5867880000000  0.4631900000000 1.0
C      1  0.5168160000000  0.5494020000000  0.4144990000000 1.0
C      1  0.5848750000000  0.4926820000000  0.5268870000000 1.0
C      1  0.4651140000000  0.4387050000000  0.5687570000000 1.0
C      1  0.4897960000000  0.4021720000000  0.4885080000000 1.0
C      1  0.5175610000000  0.5761120000000  0.4361890000000 1.0
C      1  0.4729340000000  0.5008340000000  0.4050620000000 1.0
C      1  0.4648900000000  0.5299700000000  0.4304950000000 1.0
C      1  0.4336650000000  0.5602660000000  0.4752090000000 1.0
C      1  0.5465920000000  0.5814940000000  0.4767890000000 1.0
C      1  0.4291890000000  0.5152870000000  0.4874840000000 1.0
C      1  0.5347450000000  0.5487860000000  0.4963110000000 1.0
C      1  0.4652040000000  0.5767860000000  0.4715270000000 1.0
C      1  0.5039890000000  0.5598040000000  0.5873700000000 1.0
C      1  0.4173210000000  0.4615230000000  0.5363340000000 1.0
C      1  0.5073730000000  0.5324210000000  0.4610820000000 1.0
C      1  0.4292080000000  0.5716380000000  0.5038350000000 1.0
C      1  0.5190850000000  0.5739180000000  0.5229800000000 1.0
C      1  0.5320980000000  0.5210380000000  0.5695290000000 1.0
C      1  0.4329810000000  0.4246640000000  0.5225840000000 1.0
C      1  0.5868250000000  0.5543700000000  0.4814850000000 1.0
C      1  0.4998810000000  0.5134090000000  0.4352960000000 1.0
C      1  0.4978800000000  0.5631600000000  0.5480730000000 1.0
C      1  0.4447440000000  0.5005790000000  0.4134390000000 1.0
C      1  0.4655200000000  0.4400970000000  0.4543350000000 1.0
C      1  0.5467260000000  0.4300950000000  0.5145700000000 1.0
C      1  0.5647270000000  0.4632330000000  0.4412420000000 1.0
C      1  0.5058080000000  0.5272020000000  0.5843110000000 1.0
C      1  0.4666030000000  0.4187530000000  0.4808720000000 1.0
C      1  0.5447780000000  0.4587850000000  0.5551560000000 1.0
C      1  0.5430490000000  0.4906590000000  0.5459850000000 1.0
C      1  0.5380420000000  0.4816440000000  0.4510500000000 1.0
C      1  0.5434630000000  0.4414970000000  0.4423290000000 1.0
C      1  0.4600530000000  0.4840050000000  0.5302900000000 1.0
C      1  0.5341980000000  0.5409430000000  0.4697950000000 1.0
C      1  0.5767250000000  0.4577600000000  0.4905400000000 1.0
C      1  0.5186350000000  0.4122520000000  0.4770890000000 1.0
C      1  0.5176150000000  0.4533510000000  0.4250980000000 1.0
C      1  0.5259680000000  0.4980040000000  0.4953150000000 1.0
C      1  0.4832100000000  0.5382600000000  0.5611230000000 1.0
C      1  0.4566360000000  0.5382580000000  0.4668990000000 1.0
C      1  0.5437230000000  0.4219980000000  0.4673510000000 1.0
C      1  0.5217880000000  0.4609660000000  0.5095880000000 1.0
C      1  0.4036510000000  0.4793650000000  0.5207740000000 1.0
C      1  0.4991890000000  0.4780970000000  0.5544880000000 1.0
C      1  0.4666920000000  0.5600120000000  0.4434770000000 1.0
C      1  0.4809960000000  0.5072940000000  0.5551150000000 1.0
C      1  0.4542650000000  0.5807130000000  0.5175410000000 1.0
C      1  0.4990270000000  0.3977740000000  0.5217250000000 1.0
C      1  0.5182640000000  0.4213860000000  0.5079610000000 1.0
C      1  0.4707510000000  0.4133100000000  0.5277890000000 1.0
C      1  0.4218450000000  0.4337350000000  0.4745130000000 1.0
C      1  0.4772560000000  0.5678540000000  0.5872370000000 1.0
C      1  0.4960820000000  0.5528270000000  0.4396010000000 1.0
C      1  0.5188780000000  0.4505890000000  0.5758000000000 1.0
C      1  0.4897880000000  0.4803230000000  0.4153690000000 1.0
C      1  0.4352530000000  0.5498760000000  0.5482110000000 1.0
C      1  0.4709460000000  0.5028530000000  0.4503520000000 1.0
C      1  0.5141390000000  0.4473760000000  0.4587580000000 1.0
C      1  0.4535500000000  0.5259230000000  0.5047260000000 1.0
C      1  0.4993620000000  0.5922540000000  0.5064330000000 1.0
C      1  0.4297890000000  0.5027670000000  0.4383200000000 1.0
C      1  0.4518500000000  0.4241110000000  0.5474050000000 1.0
C      1  0.5670770000000  0.4921330000000  0.4257060000000 1.0
END
