TITL C-2778428-5639-414 0.224495724484103 125000 -721.252609204656 0 0 124 (C1) n - 1
REM
REM in /home/nfs/bkarasulu/CARBON/AIRSS/Generating-Clusters/REBO/Only-C1/SD-CG/HFTN-CG
REM
REM
REM
REM
REM
REM ./C.cell (11c1c37f851c82e70ff6c80c92926a4b)
REM
REM compiler GCC version 9.2.1 20190827 (Red Hat 9.2.1-1)
REM options -cpp -mtune=generic -march=x86-64 -g -O0 -fpre-include=/usr/include/finclude/math-vector-fortran.h
REM seed 1218035173 285423856 50913856 1976433165 -2068972362 288403448 1005357065 609017836 -360443695 -1327701637 1372151987 1852807638 1423843878 -1212758662 1186950558 631224077 -1143155803 1803986273 1217785397 -643338213 1638950754 -1929599663 -1136891720 1003932872 1135733689 -449635136 -2011561486 1289502259 1092053404 784039709 2030218083 1757125126 -1636416184
REM
CELL 1.54180   50.00000   50.00000   50.00000   90.00000   90.00000   90.00000
LATT -1
SFAC C  
C      1  0.4323610000000  0.4803540000000  0.4967550000000 1.0
C      1  0.5542440000000  0.5159360000000  0.5165640000000 1.0
C      1  0.5807930000000  0.4751950000000  0.4720080000000 1.0
C      1  0.4495350000000  0.5440190000000  0.5535510000000 1.0
C      1  0.5277600000000  0.5680240000000  0.5675970000000 1.0
C      1  0.4398470000000  0.4826920000000  0.4257340000000 1.0
C      1  0.5265650000000  0.4195700000000  0.4848190000000 1.0
C      1  0.4670600000000  0.4786440000000  0.4434250000000 1.0
C      1  0.5343390000000  0.4308920000000  0.4477790000000 1.0
C      1  0.4767830000000  0.4119100000000  0.4751530000000 1.0
C      1  0.4481410000000  0.5039250000000  0.5146210000000 1.0
C      1  0.5183360000000  0.5361360000000  0.4508480000000 1.0
C      1  0.5434560000000  0.4848920000000  0.4813480000000 1.0
C      1  0.5173480000000  0.4407510000000  0.5737630000000 1.0
C      1  0.5239650000000  0.4637690000000  0.5202890000000 1.0
C      1  0.5253370000000  0.4964150000000  0.5202820000000 1.0
C      1  0.4534910000000  0.4329710000000  0.4685410000000 1.0
C      1  0.5226640000000  0.5249580000000  0.5381100000000 1.0
C      1  0.5611350000000  0.4867240000000  0.5057280000000 1.0
C      1  0.4498370000000  0.5043760000000  0.5485230000000 1.0
C      1  0.4921200000000  0.4479260000000  0.5427580000000 1.0
C      1  0.4347470000000  0.5556900000000  0.4951930000000 1.0
C      1  0.4909570000000  0.4865480000000  0.6136300000000 1.0
C      1  0.4004480000000  0.4468620000000  0.4698610000000 1.0
C      1  0.4769820000000  0.4999200000000  0.5066600000000 1.0
C      1  0.4181940000000  0.4860260000000  0.4435410000000 1.0
C      1  0.4927650000000  0.4622340000000  0.4486760000000 1.0
C      1  0.5422720000000  0.5791490000000  0.5218030000000 1.0
C      1  0.4921780000000  0.5259650000000  0.5438190000000 1.0
C      1  0.5904350000000  0.5045240000000  0.4837280000000 1.0
C      1  0.5303130000000  0.4908010000000  0.4315810000000 1.0
C      1  0.4122950000000  0.4726280000000  0.5304660000000 1.0
C      1  0.5497010000000  0.5259920000000  0.5577360000000 1.0
C      1  0.5202290000000  0.5029760000000  0.4814570000000 1.0
C      1  0.4671230000000  0.4715920000000  0.5628240000000 1.0
C      1  0.4627290000000  0.5558550000000  0.4422410000000 1.0
C      1  0.5275420000000  0.6014660000000  0.4319960000000 1.0
C      1  0.4532910000000  0.5656610000000  0.5152880000000 1.0
C      1  0.4907850000000  0.4711480000000  0.5178510000000 1.0
C      1  0.5140830000000  0.4660200000000  0.4234490000000 1.0
C      1  0.4059320000000  0.5008540000000  0.4887920000000 1.0
C      1  0.5929810000000  0.5205290000000  0.5080180000000 1.0
C      1  0.4461710000000  0.5030430000000  0.5989490000000 1.0
C      1  0.4346620000000  0.5395100000000  0.3964940000000 1.0
C      1  0.4722500000000  0.4494860000000  0.4877130000000 1.0
C      1  0.5033520000000  0.5541020000000  0.5800810000000 1.0
C      1  0.4873020000000  0.5908340000000  0.4891950000000 1.0
C      1  0.5581060000000  0.5215930000000  0.3986150000000 1.0
C      1  0.5016910000000  0.5016980000000  0.5845820000000 1.0
C      1  0.4970840000000  0.4221040000000  0.5267340000000 1.0
C      1  0.5339640000000  0.5389340000000  0.5078320000000 1.0
C      1  0.5723300000000  0.4441050000000  0.5192600000000 1.0
C      1  0.5349940000000  0.5459050000000  0.4744350000000 1.0
C      1  0.4668220000000  0.5372610000000  0.5252140000000 1.0
C      1  0.4233370000000  0.4463620000000  0.5178840000000 1.0
C      1  0.5212370000000  0.5807140000000  0.5411520000000 1.0
C      1  0.4864190000000  0.4511140000000  0.5759950000000 1.0
C      1  0.4267570000000  0.5290360000000  0.5058580000000 1.0
C      1  0.4603550000000  0.4548100000000  0.5373440000000 1.0
C      1  0.5385530000000  0.5759440000000  0.4903310000000 1.0
C      1  0.4395940000000  0.4843160000000  0.5738060000000 1.0
C      1  0.4794790000000  0.5042480000000  0.4566360000000 1.0
C      1  0.5593860000000  0.4915930000000  0.5398690000000 1.0
C      1  0.4954820000000  0.5686340000000  0.5322090000000 1.0
C      1  0.5027300000000  0.5144980000000  0.5051340000000 1.0
C      1  0.5734980000000  0.5534890000000  0.4335550000000 1.0
C      1  0.5197480000000  0.5382810000000  0.4217590000000 1.0
C      1  0.4474280000000  0.5469450000000  0.4173030000000 1.0
C      1  0.4719980000000  0.5113730000000  0.6091100000000 1.0
C      1  0.5125350000000  0.5901490000000  0.4764100000000 1.0
C      1  0.5027730000000  0.5467720000000  0.5113470000000 1.0
C      1  0.4694820000000  0.5692790000000  0.4790560000000 1.0
C      1  0.5964180000000  0.5018220000000  0.5299330000000 1.0
C      1  0.4319970000000  0.4391440000000  0.4929980000000 1.0
C      1  0.5296920000000  0.4861330000000  0.5867010000000 1.0
C      1  0.4415010000000  0.5654430000000  0.4670750000000 1.0
C      1  0.4252840000000  0.5249980000000  0.5393830000000 1.0
C      1  0.5808160000000  0.5112770000000  0.5562060000000 1.0
C      1  0.5718850000000  0.4528650000000  0.4879460000000 1.0
C      1  0.4517530000000  0.4487320000000  0.4426260000000 1.0
C      1  0.5737570000000  0.5418020000000  0.4089670000000 1.0
C      1  0.5465050000000  0.4743130000000  0.5613160000000 1.0
C      1  0.5536900000000  0.5553200000000  0.5596100000000 1.0
C      1  0.5566650000000  0.5017670000000  0.5783310000000 1.0
C      1  0.4729820000000  0.4030580000000  0.5012360000000 1.0
C      1  0.4819600000000  0.5008600000000  0.5598090000000 1.0
C      1  0.4572500000000  0.4655670000000  0.5092270000000 1.0
C      1  0.4589060000000  0.4683880000000  0.4058010000000 1.0
C      1  0.5793790000000  0.5480050000000  0.5115060000000 1.0
C      1  0.5392390000000  0.4487300000000  0.4973570000000 1.0
C      1  0.5498760000000  0.4210140000000  0.4291650000000 1.0
C      1  0.5078580000000  0.4625850000000  0.4769240000000 1.0
C      1  0.4960790000000  0.5321740000000  0.5969860000000 1.0
C      1  0.4890740000000  0.5720640000000  0.4345260000000 1.0
C      1  0.5490860000000  0.4313340000000  0.5317260000000 1.0
C      1  0.5022420000000  0.5584600000000  0.4126240000000 1.0
C      1  0.5690690000000  0.5606860000000  0.4870610000000 1.0
C      1  0.4990690000000  0.4354070000000  0.4302690000000 1.0
C      1  0.5336780000000  0.5151890000000  0.4113920000000 1.0
C      1  0.4646430000000  0.4125620000000  0.5284480000000 1.0
C      1  0.5278940000000  0.4163330000000  0.5176240000000 1.0
C      1  0.4753600000000  0.5844820000000  0.5156540000000 1.0
C      1  0.5656120000000  0.5417940000000  0.4608790000000 1.0
C      1  0.4089090000000  0.5010030000000  0.5214660000000 1.0
C      1  0.4398560000000  0.4310910000000  0.5426920000000 1.0
C      1  0.5089710000000  0.5889740000000  0.4477790000000 1.0
C      1  0.5373690000000  0.4555150000000  0.4650180000000 1.0
C      1  0.4026690000000  0.5043250000000  0.4620000000000 1.0
C      1  0.4801400000000  0.4820220000000  0.4809120000000 1.0
C      1  0.5100780000000  0.5067440000000  0.4533410000000 1.0
C      1  0.5079530000000  0.4641910000000  0.5969070000000 1.0
C      1  0.5643330000000  0.5632260000000  0.5330050000000 1.0
C      1  0.5568430000000  0.4867520000000  0.4500260000000 1.0
C      1  0.5047110000000  0.4177070000000  0.4587680000000 1.0
C      1  0.5883770000000  0.4727660000000  0.5205200000000 1.0
C      1  0.5332590000000  0.4507840000000  0.5503080000000 1.0
C      1  0.4253340000000  0.4596800000000  0.5553020000000 1.0
C      1  0.4999600000000  0.4361070000000  0.4969600000000 1.0
C      1  0.5727970000000  0.5128030000000  0.4616580000000 1.0
C      1  0.4814660000000  0.5552240000000  0.5574870000000 1.0
C      1  0.4182120000000  0.4682470000000  0.4693060000000 1.0
C      1  0.4762970000000  0.5418400000000  0.4928830000000 1.0
C      1  0.4690940000000  0.5318920000000  0.4636330000000 1.0
C      1  0.4835350000000  0.4581510000000  0.4100550000000 1.0
END
