TITL C-2778428-5639-170 -0.000270195091240597 125000 -475.945857711762 0 0 84 (C1) n - 1
REM
REM in /home/nfs/bkarasulu/CARBON/AIRSS/Generating-Clusters/REBO/Only-C1/SD-CG/HFTN-CG
REM
REM
REM
REM
REM
REM ./C.cell (11c1c37f851c82e70ff6c80c92926a4b)
REM
REM compiler GCC version 9.2.1 20190827 (Red Hat 9.2.1-1)
REM options -cpp -mtune=generic -march=x86-64 -g -O0 -fpre-include=/usr/include/finclude/math-vector-fortran.h
REM seed 1685759085 33604174 -385053100 1562600654 -1296575063 1235501677 228017172 434901515 -2124870054 -750582459 849359956 -1899189927 -500478816 551498551 2126671773 1199486950 275784449 -366879431 1289780270 -1274109114 1784576955 1306352264 1164231157 -625503115 296830784 1457910755 646132604 -101418806 944860724 -1960921317 -1984963488 700606809 -1047477555
REM
CELL 1.54180   50.00000   50.00000   50.00000   90.00000   90.00000   90.00000
LATT -1
SFAC C  
C      1  0.4403670000000  0.4738650000000  0.5109420000000 1.0
C      1  0.4846480000000  0.5053380000000  0.4481480000000 1.0
C      1  0.5221900000000  0.4520220000000  0.5367140000000 1.0
C      1  0.4763410000000  0.4886570000000  0.5192630000000 1.0
C      1  0.4631820000000  0.4811760000000  0.4887100000000 1.0
C      1  0.4835320000000  0.4407400000000  0.5131350000000 1.0
C      1  0.4685170000000  0.4274590000000  0.4774650000000 1.0
C      1  0.5832840000000  0.5456950000000  0.5046460000000 1.0
C      1  0.5970060000000  0.5290960000000  0.5226150000000 1.0
C      1  0.5547470000000  0.5337660000000  0.4593510000000 1.0
C      1  0.5486740000000  0.4945900000000  0.5083940000000 1.0
C      1  0.4603090000000  0.4771420000000  0.5454580000000 1.0
C      1  0.4890090000000  0.4288150000000  0.4503730000000 1.0
C      1  0.5117540000000  0.4472050000000  0.4674040000000 1.0
C      1  0.4999310000000  0.4233590000000  0.4882240000000 1.0
C      1  0.5614510000000  0.5565520000000  0.5754660000000 1.0
C      1  0.5157570000000  0.5423550000000  0.4584490000000 1.0
C      1  0.5877500000000  0.4718390000000  0.4761780000000 1.0
C      1  0.5543890000000  0.5031850000000  0.4474860000000 1.0
C      1  0.5840310000000  0.5213790000000  0.5471430000000 1.0
C      1  0.5283410000000  0.5035230000000  0.4305010000000 1.0
C      1  0.4163900000000  0.4833910000000  0.4616180000000 1.0
C      1  0.4692290000000  0.4480320000000  0.5504150000000 1.0
C      1  0.5731070000000  0.4930930000000  0.5506300000000 1.0
C      1  0.5329950000000  0.5122030000000  0.5285780000000 1.0
C      1  0.5215330000000  0.5201600000000  0.5659960000000 1.0
C      1  0.4505370000000  0.5029210000000  0.4681560000000 1.0
C      1  0.5709100000000  0.4748190000000  0.5228790000000 1.0
C      1  0.5369740000000  0.4175050000000  0.5020550000000 1.0
C      1  0.5392300000000  0.5532770000000  0.4810230000000 1.0
C      1  0.5424830000000  0.5008170000000  0.4784010000000 1.0
C      1  0.4767680000000  0.4952880000000  0.5836860000000 1.0
C      1  0.4405880000000  0.4933510000000  0.5574170000000 1.0
C      1  0.4503470000000  0.4235760000000  0.4988990000000 1.0
C      1  0.4903670000000  0.5414240000000  0.5291120000000 1.0
C      1  0.4554270000000  0.5624090000000  0.5575970000000 1.0
C      1  0.4889810000000  0.5298160000000  0.4170360000000 1.0
C      1  0.4981150000000  0.4432150000000  0.5606770000000 1.0
C      1  0.5017530000000  0.5110970000000  0.5233200000000 1.0
C      1  0.5407510000000  0.4973960000000  0.5569910000000 1.0
C      1  0.4934090000000  0.5388010000000  0.4963050000000 1.0
C      1  0.5774070000000  0.4584060000000  0.4984650000000 1.0
C      1  0.5444940000000  0.5405220000000  0.5307370000000 1.0
C      1  0.4214550000000  0.5109440000000  0.4792200000000 1.0
C      1  0.4230700000000  0.5014950000000  0.5102030000000 1.0
C      1  0.4835510000000  0.6169460000000  0.4909540000000 1.0
C      1  0.4907420000000  0.4744320000000  0.5712230000000 1.0
C      1  0.5686570000000  0.4752560000000  0.4545190000000 1.0
C      1  0.4342890000000  0.5411180000000  0.4762820000000 1.0
C      1  0.4825880000000  0.5872470000000  0.4900280000000 1.0
C      1  0.5631730000000  0.5411630000000  0.5533330000000 1.0
C      1  0.5489490000000  0.4512640000000  0.4598240000000 1.0
C      1  0.4753470000000  0.5222310000000  0.5750150000000 1.0
C      1  0.5167880000000  0.5193320000000  0.4834290000000 1.0
C      1  0.4662390000000  0.5336510000000  0.4390800000000 1.0
C      1  0.4550630000000  0.5419260000000  0.5760100000000 1.0
C      1  0.5505110000000  0.4431460000000  0.4904470000000 1.0
C      1  0.4541000000000  0.4963270000000  0.4354070000000 1.0
C      1  0.5147530000000  0.5297440000000  0.4304570000000 1.0
C      1  0.5128100000000  0.4241900000000  0.5195750000000 1.0
C      1  0.5049490000000  0.4841350000000  0.4413900000000 1.0
C      1  0.4695150000000  0.5056690000000  0.4111850000000 1.0
C      1  0.4562690000000  0.5473400000000  0.4603110000000 1.0
C      1  0.4700140000000  0.5634200000000  0.5334870000000 1.0
C      1  0.4998030000000  0.4772840000000  0.5411230000000 1.0
C      1  0.4963840000000  0.4626200000000  0.4919660000000 1.0
C      1  0.4344330000000  0.4664220000000  0.4579670000000 1.0
C      1  0.4975330000000  0.5295750000000  0.5584790000000 1.0
C      1  0.5330370000000  0.4652480000000  0.5071580000000 1.0
C      1  0.4241800000000  0.5105280000000  0.5424090000000 1.0
C      1  0.5549850000000  0.5508940000000  0.5064740000000 1.0
C      1  0.4305860000000  0.5330630000000  0.5214480000000 1.0
C      1  0.5096860000000  0.5700930000000  0.4776320000000 1.0
C      1  0.5103700000000  0.4895270000000  0.4987740000000 1.0
C      1  0.4859840000000  0.4356600000000  0.4187850000000 1.0
C      1  0.4862530000000  0.4610200000000  0.4394160000000 1.0
C      1  0.5283600000000  0.4763440000000  0.4614300000000 1.0
C      1  0.4588540000000  0.5712460000000  0.5085250000000 1.0
C      1  0.4774700000000  0.5183770000000  0.4779090000000 1.0
C      1  0.5503180000000  0.4667290000000  0.5489100000000 1.0
C      1  0.4370180000000  0.5527330000000  0.5023640000000 1.0
C      1  0.4650100000000  0.4574310000000  0.4643990000000 1.0
C      1  0.4779260000000  0.5585770000000  0.4758550000000 1.0
C      1  0.4519740000000  0.4463760000000  0.5215400000000 1.0
END
