TITL C-2778428-5639-54 -0.00501521485242696 125000 -421.661772304159 0 0 74 (C1) n - 1
REM
REM in /home/nfs/bkarasulu/CARBON/AIRSS/Generating-Clusters/REBO/Only-C1/SD-CG/HFTN-CG
REM
REM
REM
REM
REM
REM ./C.cell (11c1c37f851c82e70ff6c80c92926a4b)
REM
REM compiler GCC version 9.2.1 20190827 (Red Hat 9.2.1-1)
REM options -cpp -mtune=generic -march=x86-64 -g -O0 -fpre-include=/usr/include/finclude/math-vector-fortran.h
REM seed -671694201 1782467041 1057131500 1144702064 -2063174565 -944112278 -475511812 -105865050 456252399 -508877681 134905818 794192999 -1148958877 -1463237999 2091878512 -569386106 1726878888 389428927 -1562015171 372621354 1416164191 -272623893 1651163895 1576894542 1956360083 1640620888 618425772 552549224 -1091070430 -855409887 531958051 -803089990 -822219096
REM
CELL 1.54180   50.00000   50.00000   50.00000   90.00000   90.00000   90.00000
LATT -1
SFAC C  
C      1  0.5047850000000  0.5199790000000  0.4948410000000 1.0
C      1  0.4364690000000  0.5133280000000  0.5317540000000 1.0
C      1  0.5073640000000  0.4807380000000  0.5452980000000 1.0
C      1  0.4317600000000  0.4749110000000  0.4726620000000 1.0
C      1  0.5913150000000  0.4409480000000  0.4762880000000 1.0
C      1  0.5510660000000  0.5744830000000  0.5395680000000 1.0
C      1  0.5622010000000  0.5368580000000  0.4581670000000 1.0
C      1  0.4944830000000  0.5602760000000  0.5329650000000 1.0
C      1  0.5125930000000  0.4809730000000  0.4973730000000 1.0
C      1  0.5452470000000  0.4390020000000  0.4917560000000 1.0
C      1  0.4586220000000  0.4372260000000  0.4541310000000 1.0
C      1  0.5011260000000  0.5013640000000  0.4298500000000 1.0
C      1  0.5282520000000  0.5258460000000  0.5535520000000 1.0
C      1  0.4660580000000  0.5520220000000  0.4781210000000 1.0
C      1  0.5611420000000  0.4794520000000  0.4742350000000 1.0
C      1  0.5658600000000  0.5132830000000  0.5286310000000 1.0
C      1  0.4845850000000  0.4733800000000  0.4699570000000 1.0
C      1  0.4913700000000  0.4200610000000  0.4902410000000 1.0
C      1  0.4749960000000  0.4350270000000  0.5398250000000 1.0
C      1  0.5463130000000  0.5837850000000  0.4847570000000 1.0
C      1  0.4731180000000  0.4120540000000  0.5146330000000 1.0
C      1  0.4635620000000  0.5532210000000  0.5311720000000 1.0
C      1  0.4473040000000  0.4865080000000  0.4379430000000 1.0
C      1  0.4332980000000  0.5607150000000  0.4773640000000 1.0
C      1  0.4801510000000  0.4576570000000  0.4974330000000 1.0
C      1  0.5265650000000  0.5910590000000  0.5026400000000 1.0
C      1  0.4862290000000  0.4821870000000  0.5689010000000 1.0
C      1  0.4942780000000  0.5640780000000  0.4794100000000 1.0
C      1  0.5285010000000  0.5425200000000  0.4982060000000 1.0
C      1  0.5063730000000  0.5274840000000  0.4456100000000 1.0
C      1  0.4159650000000  0.5783160000000  0.4667470000000 1.0
C      1  0.4986900000000  0.4496370000000  0.5679210000000 1.0
C      1  0.4429740000000  0.4838390000000  0.5384920000000 1.0
C      1  0.5539110000000  0.5410340000000  0.5445040000000 1.0
C      1  0.5534360000000  0.5172060000000  0.4411590000000 1.0
C      1  0.4411040000000  0.5136040000000  0.4549640000000 1.0
C      1  0.5631400000000  0.4560610000000  0.5584170000000 1.0
C      1  0.4599910000000  0.4889190000000  0.4839880000000 1.0
C      1  0.5754260000000  0.5276980000000  0.4817480000000 1.0
C      1  0.4723670000000  0.4962800000000  0.5341070000000 1.0
C      1  0.4844520000000  0.4328910000000  0.4656460000000 1.0
C      1  0.5302190000000  0.4995740000000  0.5398110000000 1.0
C      1  0.5163380000000  0.4309940000000  0.5078040000000 1.0
C      1  0.5088110000000  0.4395190000000  0.5369180000000 1.0
C      1  0.4338900000000  0.5283450000000  0.4773570000000 1.0
C      1  0.4411160000000  0.5185280000000  0.5025520000000 1.0
C      1  0.5582740000000  0.4848230000000  0.5453570000000 1.0
C      1  0.4566580000000  0.4376000000000  0.5046750000000 1.0
C      1  0.4415750000000  0.4669640000000  0.5023890000000 1.0
C      1  0.4798930000000  0.5143590000000  0.5595580000000 1.0
C      1  0.5185010000000  0.4767290000000  0.4342410000000 1.0
C      1  0.5328860000000  0.4606870000000  0.5484960000000 1.0
C      1  0.4831380000000  0.5268930000000  0.4701080000000 1.0
C      1  0.5669540000000  0.4521190000000  0.4805220000000 1.0
C      1  0.5173510000000  0.4539430000000  0.4834240000000 1.0
C      1  0.5023860000000  0.5760410000000  0.5039810000000 1.0
C      1  0.4408800000000  0.4589110000000  0.4485520000000 1.0
C      1  0.4504570000000  0.5571980000000  0.5066880000000 1.0
C      1  0.4658060000000  0.4551300000000  0.5658820000000 1.0
C      1  0.5115860000000  0.4940130000000  0.4677330000000 1.0
C      1  0.5016570000000  0.5357200000000  0.5545160000000 1.0
C      1  0.5317600000000  0.5037690000000  0.5088010000000 1.0
C      1  0.4551760000000  0.5304860000000  0.5461390000000 1.0
C      1  0.5125300000000  0.5524670000000  0.4612900000000 1.0
C      1  0.4729330000000  0.5061290000000  0.4455120000000 1.0
C      1  0.5626130000000  0.5000450000000  0.4968880000000 1.0
C      1  0.4463110000000  0.4528600000000  0.5331580000000 1.0
C      1  0.5419030000000  0.5561640000000  0.4697970000000 1.0
C      1  0.4739040000000  0.5094560000000  0.5046620000000 1.0
C      1  0.5276400000000  0.5555760000000  0.5269950000000 1.0
C      1  0.5418740000000  0.4906480000000  0.4526300000000 1.0
C      1  0.5062540000000  0.4545220000000  0.4527300000000 1.0
C      1  0.5603710000000  0.5383010000000  0.5062350000000 1.0
C      1  0.4919130000000  0.4755830000000  0.5196250000000 1.0
END
