TITL C-2778426-5645-914 0.00693482424749037 125000 -819.44129654354 0 0 140 (C1) n - 1
REM
REM in /home/nfs/bkarasulu/CARBON/AIRSS/Generating-Clusters/REBO/Only-C1/SD-CG/HFTN-CG
REM
REM
REM
REM
REM
REM ./C.cell (11c1c37f851c82e70ff6c80c92926a4b)
REM
REM compiler GCC version 9.2.1 20190827 (Red Hat 9.2.1-1)
REM options -cpp -mtune=generic -march=x86-64 -g -O0 -fpre-include=/usr/include/finclude/math-vector-fortran.h
REM seed 128356608 -1370637455 1976645287 1828709942 1649319969 -1909717712 47902634 -2147148596 1283317961 1386505528 1680484652 -437544821 -451227036 1771359061 758594652 1173315932 2015815648 -1922264763 1421921616 779631229 1681790636 1368620112 1004618465 -733935130 241271954 1887164346 -1858946936 1394573507 2058350893 1654398901 131473672 529424414 1681957249
REM
CELL 1.54180   50.00000   50.00000   50.00000   90.00000   90.00000   90.00000
LATT -1
SFAC C  
C      1  0.4220120000000  0.4373360000000  0.4725350000000 1.0
C      1  0.5226140000000  0.4754370000000  0.4501350000000 1.0
C      1  0.5573280000000  0.5561240000000  0.5622290000000 1.0
C      1  0.4829330000000  0.4073590000000  0.5283320000000 1.0
C      1  0.5492120000000  0.5645640000000  0.4446080000000 1.0
C      1  0.5528550000000  0.5278050000000  0.5084910000000 1.0
C      1  0.5512210000000  0.4383900000000  0.5542050000000 1.0
C      1  0.4004840000000  0.5080890000000  0.5450380000000 1.0
C      1  0.4953710000000  0.4673100000000  0.5018320000000 1.0
C      1  0.4681740000000  0.5211790000000  0.4426000000000 1.0
C      1  0.4293360000000  0.4904690000000  0.4293770000000 1.0
C      1  0.5114070000000  0.5616370000000  0.5084280000000 1.0
C      1  0.4533630000000  0.4773650000000  0.4580660000000 1.0
C      1  0.5191380000000  0.4772310000000  0.4839840000000 1.0
C      1  0.4205830000000  0.4667000000000  0.5182530000000 1.0
C      1  0.5196490000000  0.4470140000000  0.5100460000000 1.0
C      1  0.5182130000000  0.4511760000000  0.5744380000000 1.0
C      1  0.5517210000000  0.4066260000000  0.4253940000000 1.0
C      1  0.4843200000000  0.5981750000000  0.4885800000000 1.0
C      1  0.4507600000000  0.5620430000000  0.4713050000000 1.0
C      1  0.5310680000000  0.5949910000000  0.5587060000000 1.0
C      1  0.5470680000000  0.4169440000000  0.4938060000000 1.0
C      1  0.4237190000000  0.4619790000000  0.5518890000000 1.0
C      1  0.4187720000000  0.5228010000000  0.4674810000000 1.0
C      1  0.4482080000000  0.4827170000000  0.5781430000000 1.0
C      1  0.5241390000000  0.4172250000000  0.5552740000000 1.0
C      1  0.5704090000000  0.5155250000000  0.5601020000000 1.0
C      1  0.5200590000000  0.3970890000000  0.4912920000000 1.0
C      1  0.5475180000000  0.5319000000000  0.5406030000000 1.0
C      1  0.4552020000000  0.4581480000000  0.4231760000000 1.0
C      1  0.5082370000000  0.5253360000000  0.5427130000000 1.0
C      1  0.4591140000000  0.5373670000000  0.5202850000000 1.0
C      1  0.4366890000000  0.5467550000000  0.5517780000000 1.0
C      1  0.5270620000000  0.4482740000000  0.4340900000000 1.0
C      1  0.5104650000000  0.4818730000000  0.4211790000000 1.0
C      1  0.4923940000000  0.3886100000000  0.5025190000000 1.0
C      1  0.5926380000000  0.4887080000000  0.4768830000000 1.0
C      1  0.4754050000000  0.5472510000000  0.4558790000000 1.0
C      1  0.4499900000000  0.4496040000000  0.5698010000000 1.0
C      1  0.5214950000000  0.5040340000000  0.4085450000000 1.0
C      1  0.4902070000000  0.4167400000000  0.5541090000000 1.0
C      1  0.5140240000000  0.4462000000000  0.5412590000000 1.0
C      1  0.5088680000000  0.4273190000000  0.4843930000000 1.0
C      1  0.5646870000000  0.4910800000000  0.4375670000000 1.0
C      1  0.4469870000000  0.4868000000000  0.5119300000000 1.0
C      1  0.5854370000000  0.5463430000000  0.4827340000000 1.0
C      1  0.4743770000000  0.4341120000000  0.5739330000000 1.0
C      1  0.5388370000000  0.4934500000000  0.5708440000000 1.0
C      1  0.4844330000000  0.4181910000000  0.4621480000000 1.0
C      1  0.4282930000000  0.5522890000000  0.5195830000000 1.0
C      1  0.4927130000000  0.4534010000000  0.5860680000000 1.0
C      1  0.5532390000000  0.5465430000000  0.4733040000000 1.0
C      1  0.4814280000000  0.4266030000000  0.5009150000000 1.0
C      1  0.5864200000000  0.4991180000000  0.5077460000000 1.0
C      1  0.5343500000000  0.5047260000000  0.4597720000000 1.0
C      1  0.4367310000000  0.4353730000000  0.5359510000000 1.0
C      1  0.5884260000000  0.5353260000000  0.5427390000000 1.0
C      1  0.5765450000000  0.4847730000000  0.5609180000000 1.0
C      1  0.4857020000000  0.4582100000000  0.5444240000000 1.0
C      1  0.4905450000000  0.4196450000000  0.4289060000000 1.0
C      1  0.5608930000000  0.4646310000000  0.4510200000000 1.0
C      1  0.5511040000000  0.4736660000000  0.4783460000000 1.0
C      1  0.5740720000000  0.4380020000000  0.4944870000000 1.0
C      1  0.4592870000000  0.5142290000000  0.5859410000000 1.0
C      1  0.4971180000000  0.5807770000000  0.4619680000000 1.0
C      1  0.4114520000000  0.4667950000000  0.4852770000000 1.0
C      1  0.4820850000000  0.6256940000000  0.4818050000000 1.0
C      1  0.5726720000000  0.5536810000000  0.5196210000000 1.0
C      1  0.4082900000000  0.5379380000000  0.4961090000000 1.0
C      1  0.4340260000000  0.5463370000000  0.4475370000000 1.0
C      1  0.5848880000000  0.4662060000000  0.5005290000000 1.0
C      1  0.5048590000000  0.5132090000000  0.4613910000000 1.0
C      1  0.5421600000000  0.4924130000000  0.5420590000000 1.0
C      1  0.5018720000000  0.5259420000000  0.4029930000000 1.0
C      1  0.4723760000000  0.5222150000000  0.4095190000000 1.0
C      1  0.4538700000000  0.5497550000000  0.4194180000000 1.0
C      1  0.4173970000000  0.4897630000000  0.5651170000000 1.0
C      1  0.4623510000000  0.5606750000000  0.5585240000000 1.0
C      1  0.5858940000000  0.5030320000000  0.4539540000000 1.0
C      1  0.4846260000000  0.4675240000000  0.4127950000000 1.0
C      1  0.5515620000000  0.4503680000000  0.5152870000000 1.0
C      1  0.5284260000000  0.5339250000000  0.4859740000000 1.0
C      1  0.4991280000000  0.5428270000000  0.4753610000000 1.0
C      1  0.4850040000000  0.5446870000000  0.5054910000000 1.0
C      1  0.4389900000000  0.4480480000000  0.4507090000000 1.0
C      1  0.4585300000000  0.5141820000000  0.5439610000000 1.0
C      1  0.4639400000000  0.4446110000000  0.5317000000000 1.0
C      1  0.5696160000000  0.5763190000000  0.4873830000000 1.0
C      1  0.4782260000000  0.4879120000000  0.5520060000000 1.0
C      1  0.5203660000000  0.5820850000000  0.4824850000000 1.0
C      1  0.5214570000000  0.5405110000000  0.4237150000000 1.0
C      1  0.4455150000000  0.5325420000000  0.4831270000000 1.0
C      1  0.4362560000000  0.4102430000000  0.4869650000000 1.0
C      1  0.5484120000000  0.5311110000000  0.5803120000000 1.0
C      1  0.5552370000000  0.5047900000000  0.4835340000000 1.0
C      1  0.5470340000000  0.5849010000000  0.4672630000000 1.0
C      1  0.5558330000000  0.5822410000000  0.5516340000000 1.0
C      1  0.4371040000000  0.5145100000000  0.5102140000000 1.0
C      1  0.4819560000000  0.4820020000000  0.5839120000000 1.0
C      1  0.4598220000000  0.4907910000000  0.4138770000000 1.0
C      1  0.5466640000000  0.5165590000000  0.4238790000000 1.0
C      1  0.5844680000000  0.5313460000000  0.4537610000000 1.0
C      1  0.4774440000000  0.5705030000000  0.4324880000000 1.0
C      1  0.4341540000000  0.5174140000000  0.5644590000000 1.0
C      1  0.4443070000000  0.4675150000000  0.4862260000000 1.0
C      1  0.4215070000000  0.4901870000000  0.4624770000000 1.0
C      1  0.5099010000000  0.5810960000000  0.5473090000000 1.0
C      1  0.5593020000000  0.5828040000000  0.5191510000000 1.0
C      1  0.5589350000000  0.4342870000000  0.4667290000000 1.0
C      1  0.4657000000000  0.4022110000000  0.4856380000000 1.0
C      1  0.4492420000000  0.5764260000000  0.5166460000000 1.0
C      1  0.4890160000000  0.5119110000000  0.5061920000000 1.0
C      1  0.5926480000000  0.5277390000000  0.5101060000000 1.0
C      1  0.4694880000000  0.5784260000000  0.5370530000000 1.0
C      1  0.4775390000000  0.5427540000000  0.5825590000000 1.0
C      1  0.5044620000000  0.4423740000000  0.4186560000000 1.0
C      1  0.5208690000000  0.5527060000000  0.5378060000000 1.0
C      1  0.5210150000000  0.5044820000000  0.5289380000000 1.0
C      1  0.5278750000000  0.5908260000000  0.5132310000000 1.0
C      1  0.4707700000000  0.5156400000000  0.4820290000000 1.0
C      1  0.5380060000000  0.4683840000000  0.5835890000000 1.0
C      1  0.5431050000000  0.4195610000000  0.5271060000000 1.0
C      1  0.5085270000000  0.5603820000000  0.4378180000000 1.0
C      1  0.4372640000000  0.5206500000000  0.4275810000000 1.0
C      1  0.5671750000000  0.4594060000000  0.5578050000000 1.0
C      1  0.4227870000000  0.4346480000000  0.5065000000000 1.0
C      1  0.5181620000000  0.5054100000000  0.4982310000000 1.0
C      1  0.5235480000000  0.5157280000000  0.5854750000000 1.0
C      1  0.4572620000000  0.5827200000000  0.4906410000000 1.0
C      1  0.4934290000000  0.5133110000000  0.5908520000000 1.0
C      1  0.4074320000000  0.5183470000000  0.5214220000000 1.0
C      1  0.5458230000000  0.4293320000000  0.4398560000000 1.0
C      1  0.4944770000000  0.5951390000000  0.5210370000000 1.0
C      1  0.4615060000000  0.4286450000000  0.4391210000000 1.0
C      1  0.4839800000000  0.5273220000000  0.5548650000000 1.0
C      1  0.4758660000000  0.4956630000000  0.4578840000000 1.0
C      1  0.4760630000000  0.4878070000000  0.5196630000000 1.0
C      1  0.4665170000000  0.4534940000000  0.5014950000000 1.0
C      1  0.5644680000000  0.5405890000000  0.4355070000000 1.0
C      1  0.5629990000000  0.4797650000000  0.5236360000000 1.0
END
