TITL C-2778426-5645-261 0.00125879175219274 125000 -1004.21463023353 0 0 173 (C1) n - 1
REM
REM in /home/nfs/bkarasulu/CARBON/AIRSS/Generating-Clusters/REBO/Only-C1/SD-CG/HFTN-CG
REM
REM
REM
REM
REM
REM ./C.cell (11c1c37f851c82e70ff6c80c92926a4b)
REM
REM compiler GCC version 9.2.1 20190827 (Red Hat 9.2.1-1)
REM options -cpp -mtune=generic -march=x86-64 -g -O0 -fpre-include=/usr/include/finclude/math-vector-fortran.h
REM seed 1607391005 206200815 1333516176 560164941 -1726767134 2079859064 -1110330223 1026460528 -1555930387 -316805896 -1037392907 -1949461922 95616552 312560636 -23126101 1678068073 -555974260 -1575883714 745500432 2137064684 -1748771135 1226532956 12776020 1209619854 -1056380740 838107198 -576352089 -1842179127 847762896 369389329 -214797699 1819621964 2003129521
REM
CELL 1.54180   50.00000   50.00000   50.00000   90.00000   90.00000   90.00000
LATT -1
SFAC C  
C      1  0.4531630000000  0.4154740000000  0.4590100000000 1.0
C      1  0.6133970000000  0.4884300000000  0.5225520000000 1.0
C      1  0.4834130000000  0.5895910000000  0.5765040000000 1.0
C      1  0.5017630000000  0.5510440000000  0.4877280000000 1.0
C      1  0.4814420000000  0.5196420000000  0.4445020000000 1.0
C      1  0.4700320000000  0.5474550000000  0.6035310000000 1.0
C      1  0.5906370000000  0.5403150000000  0.4675240000000 1.0
C      1  0.5993690000000  0.4931710000000  0.4661610000000 1.0
C      1  0.4008470000000  0.4658760000000  0.4752140000000 1.0
C      1  0.5672090000000  0.4818050000000  0.4870040000000 1.0
C      1  0.5599870000000  0.5099760000000  0.5762890000000 1.0
C      1  0.5078600000000  0.4233920000000  0.6139140000000 1.0
C      1  0.4714210000000  0.4369860000000  0.5115650000000 1.0
C      1  0.5974730000000  0.4768430000000  0.5022660000000 1.0
C      1  0.4931420000000  0.4940090000000  0.4120190000000 1.0
C      1  0.5367950000000  0.4951950000000  0.5475490000000 1.0
C      1  0.4714510000000  0.5930260000000  0.4883340000000 1.0
C      1  0.5966950000000  0.4629610000000  0.5622650000000 1.0
C      1  0.4704040000000  0.4731010000000  0.3866320000000 1.0
C      1  0.5634760000000  0.4757450000000  0.5374260000000 1.0
C      1  0.4729120000000  0.5200980000000  0.5919660000000 1.0
C      1  0.3937960000000  0.5070250000000  0.5034000000000 1.0
C      1  0.4322970000000  0.4294370000000  0.4417590000000 1.0
C      1  0.4266390000000  0.5015370000000  0.5099620000000 1.0
C      1  0.4976360000000  0.3979190000000  0.4791310000000 1.0
C      1  0.4120370000000  0.4362690000000  0.5112720000000 1.0
C      1  0.5542780000000  0.5851970000000  0.4437940000000 1.0
C      1  0.5244840000000  0.5309870000000  0.5032630000000 1.0
C      1  0.4073590000000  0.5448590000000  0.5296020000000 1.0
C      1  0.5510880000000  0.5458540000000  0.5100460000000 1.0
C      1  0.4939710000000  0.4183820000000  0.4334790000000 1.0
C      1  0.4584260000000  0.4511230000000  0.4417930000000 1.0
C      1  0.4517620000000  0.5220650000000  0.3969640000000 1.0
C      1  0.4765320000000  0.4742300000000  0.6152200000000 1.0
C      1  0.5422380000000  0.6006450000000  0.5150730000000 1.0
C      1  0.5866260000000  0.5154930000000  0.4782400000000 1.0
C      1  0.5147070000000  0.6034600000000  0.4700910000000 1.0
C      1  0.4647950000000  0.5432810000000  0.4279130000000 1.0
C      1  0.5754100000000  0.5052910000000  0.5490340000000 1.0
C      1  0.4622520000000  0.5880560000000  0.4608440000000 1.0
C      1  0.4940280000000  0.4620310000000  0.4052270000000 1.0
C      1  0.5077120000000  0.5249820000000  0.6118700000000 1.0
C      1  0.4436180000000  0.4240340000000  0.5392360000000 1.0
C      1  0.4998390000000  0.5701470000000  0.5871750000000 1.0
C      1  0.5061170000000  0.5166970000000  0.5237800000000 1.0
C      1  0.4906610000000  0.4755290000000  0.5855540000000 1.0
C      1  0.5806590000000  0.5864740000000  0.4894580000000 1.0
C      1  0.4927990000000  0.5472980000000  0.4561580000000 1.0
C      1  0.5504500000000  0.4574300000000  0.5796280000000 1.0
C      1  0.5026160000000  0.4306340000000  0.4876500000000 1.0
C      1  0.5138580000000  0.5938130000000  0.5124390000000 1.0
C      1  0.5416310000000  0.4551290000000  0.5241970000000 1.0
C      1  0.5134660000000  0.4918440000000  0.4353870000000 1.0
C      1  0.4454270000000  0.4541990000000  0.5232410000000 1.0
C      1  0.5466650000000  0.4157840000000  0.5004220000000 1.0
C      1  0.5549190000000  0.5822010000000  0.5343360000000 1.0
C      1  0.4255270000000  0.4109170000000  0.4959830000000 1.0
C      1  0.5032790000000  0.4658070000000  0.4505690000000 1.0
C      1  0.4332290000000  0.4868700000000  0.4848760000000 1.0
C      1  0.6052780000000  0.5669620000000  0.4789770000000 1.0
C      1  0.5309230000000  0.5662090000000  0.4278140000000 1.0
C      1  0.4881550000000  0.4141020000000  0.5475550000000 1.0
C      1  0.4300870000000  0.4955380000000  0.5755930000000 1.0
C      1  0.4786600000000  0.3871200000000  0.5035260000000 1.0
C      1  0.5700510000000  0.5672270000000  0.4202240000000 1.0
C      1  0.4890390000000  0.5424950000000  0.5602890000000 1.0
C      1  0.5341170000000  0.5046450000000  0.4567300000000 1.0
C      1  0.5725640000000  0.4477800000000  0.5645390000000 1.0
C      1  0.5015050000000  0.4893070000000  0.6219450000000 1.0
C      1  0.5235640000000  0.4893790000000  0.6033820000000 1.0
C      1  0.5367010000000  0.4932630000000  0.5135360000000 1.0
C      1  0.5548610000000  0.4857980000000  0.4130140000000 1.0
C      1  0.5800560000000  0.4562040000000  0.5146430000000 1.0
C      1  0.5089120000000  0.5655810000000  0.5154790000000 1.0
C      1  0.3885860000000  0.5273970000000  0.4848930000000 1.0
C      1  0.5526760000000  0.4387220000000  0.4530260000000 1.0
C      1  0.5704200000000  0.4358460000000  0.4961690000000 1.0
C      1  0.4563120000000  0.5331570000000  0.5400410000000 1.0
C      1  0.4805280000000  0.4041290000000  0.4534660000000 1.0
C      1  0.5771350000000  0.4426530000000  0.4688940000000 1.0
C      1  0.5435870000000  0.6065580000000  0.4650310000000 1.0
C      1  0.4992810000000  0.5600520000000  0.4169760000000 1.0
C      1  0.5266680000000  0.5076520000000  0.3953760000000 1.0
C      1  0.4505950000000  0.5168690000000  0.5700120000000 1.0
C      1  0.4886830000000  0.6072660000000  0.5069780000000 1.0
C      1  0.4967560000000  0.5174770000000  0.3902150000000 1.0
C      1  0.5145930000000  0.4911220000000  0.5708060000000 1.0
C      1  0.4563980000000  0.4932110000000  0.3840640000000 1.0
C      1  0.5027280000000  0.5106350000000  0.4686690000000 1.0
C      1  0.4537110000000  0.5025670000000  0.4672540000000 1.0
C      1  0.3961220000000  0.4773510000000  0.5013160000000 1.0
C      1  0.5530980000000  0.5677230000000  0.4952130000000 1.0
C      1  0.5327640000000  0.5255900000000  0.5634010000000 1.0
C      1  0.4457050000000  0.3937380000000  0.5030370000000 1.0
C      1  0.4649240000000  0.5543030000000  0.5732770000000 1.0
C      1  0.5359890000000  0.5315700000000  0.4722490000000 1.0
C      1  0.4674920000000  0.4667000000000  0.4851490000000 1.0
C      1  0.4193580000000  0.5185470000000  0.5452670000000 1.0
C      1  0.5255070000000  0.4739180000000  0.3998790000000 1.0
C      1  0.4194840000000  0.5692570000000  0.5359550000000 1.0
C      1  0.6010900000000  0.4875150000000  0.5484160000000 1.0
C      1  0.5017640000000  0.4524280000000  0.5117850000000 1.0
C      1  0.5601980000000  0.4900170000000  0.4587830000000 1.0
C      1  0.5592220000000  0.5456500000000  0.4085210000000 1.0
C      1  0.5267430000000  0.5738060000000  0.4803380000000 1.0
C      1  0.4133530000000  0.4657710000000  0.5255040000000 1.0
C      1  0.4761550000000  0.4407420000000  0.5544560000000 1.0
C      1  0.5401860000000  0.4654800000000  0.4939580000000 1.0
C      1  0.5410640000000  0.4156970000000  0.5298760000000 1.0
C      1  0.5353170000000  0.5694100000000  0.5530490000000 1.0
C      1  0.5214760000000  0.4176490000000  0.4270610000000 1.0
C      1  0.5492020000000  0.4840180000000  0.5894840000000 1.0
C      1  0.5168320000000  0.4562860000000  0.5410370000000 1.0
C      1  0.5229240000000  0.4429580000000  0.5709350000000 1.0
C      1  0.5413240000000  0.4632390000000  0.4345930000000 1.0
C      1  0.4476880000000  0.4438380000000  0.5667030000000 1.0
C      1  0.4258480000000  0.5600670000000  0.4832610000000 1.0
C      1  0.4160810000000  0.4864590000000  0.4550040000000 1.0
C      1  0.5718380000000  0.5278090000000  0.5284690000000 1.0
C      1  0.4330240000000  0.4928840000000  0.4260030000000 1.0
C      1  0.4894740000000  0.5096160000000  0.5646800000000 1.0
C      1  0.5383130000000  0.4125310000000  0.4508980000000 1.0
C      1  0.4881440000000  0.4632750000000  0.5476410000000 1.0
C      1  0.4858060000000  0.4475700000000  0.4321440000000 1.0
C      1  0.4624530000000  0.3982640000000  0.5319100000000 1.0
C      1  0.4290850000000  0.4608970000000  0.4295230000000 1.0
C      1  0.5695800000000  0.5409860000000  0.5661140000000 1.0
C      1  0.5254690000000  0.5403470000000  0.4060960000000 1.0
C      1  0.5281910000000  0.4424960000000  0.4133160000000 1.0
C      1  0.4470910000000  0.5649420000000  0.5317080000000 1.0
C      1  0.5573950000000  0.6071020000000  0.4906820000000 1.0
C      1  0.4264560000000  0.5189150000000  0.4551020000000 1.0
C      1  0.5571230000000  0.5163990000000  0.4030900000000 1.0
C      1  0.5306720000000  0.4042740000000  0.4775550000000 1.0
C      1  0.4547140000000  0.5723150000000  0.5020400000000 1.0
C      1  0.5304150000000  0.5692340000000  0.5803490000000 1.0
C      1  0.4778280000000  0.5714970000000  0.4410840000000 1.0
C      1  0.4393660000000  0.4573630000000  0.4694710000000 1.0
C      1  0.4338950000000  0.5442470000000  0.5632310000000 1.0
C      1  0.5773220000000  0.5705600000000  0.4594120000000 1.0
C      1  0.5010570000000  0.4382490000000  0.5928310000000 1.0
C      1  0.5768200000000  0.4809130000000  0.4355510000000 1.0
C      1  0.4691270000000  0.4500130000000  0.5924410000000 1.0
C      1  0.5653110000000  0.5092230000000  0.5038360000000 1.0
C      1  0.4649130000000  0.5021440000000  0.4221070000000 1.0
C      1  0.4764630000000  0.5219960000000  0.5180950000000 1.0
C      1  0.5625940000000  0.4338900000000  0.5418570000000 1.0
C      1  0.4353680000000  0.5808960000000  0.4626100000000 1.0
C      1  0.4757730000000  0.6065910000000  0.5568780000000 1.0
C      1  0.5162810000000  0.5450160000000  0.5404180000000 1.0
C      1  0.4743680000000  0.5194270000000  0.4842340000000 1.0
C      1  0.4700040000000  0.4335610000000  0.4783820000000 1.0
C      1  0.4750430000000  0.4922240000000  0.5447640000000 1.0
C      1  0.5033800000000  0.4853010000000  0.5171230000000 1.0
C      1  0.5917720000000  0.4649970000000  0.4585170000000 1.0
C      1  0.4069660000000  0.4871500000000  0.5513630000000 1.0
C      1  0.5196330000000  0.4172620000000  0.5488830000000 1.0
C      1  0.4253210000000  0.5331690000000  0.5057840000000 1.0
C      1  0.5162610000000  0.5402550000000  0.5894840000000 1.0
C      1  0.4431040000000  0.4946230000000  0.5377670000000 1.0
C      1  0.4347040000000  0.5275640000000  0.4258570000000 1.0
C      1  0.4701320000000  0.4765470000000  0.5146850000000 1.0
C      1  0.4558570000000  0.5410350000000  0.5009000000000 1.0
C      1  0.4165210000000  0.4375690000000  0.4777950000000 1.0
C      1  0.4829870000000  0.4850640000000  0.4657620000000 1.0
C      1  0.4090100000000  0.5379760000000  0.4698480000000 1.0
C      1  0.4792350000000  0.5418700000000  0.3972210000000 1.0
C      1  0.5718870000000  0.5579400000000  0.5419880000000 1.0
C      1  0.4955720000000  0.4131290000000  0.5158530000000 1.0
C      1  0.5241570000000  0.5542080000000  0.4551830000000 1.0
C      1  0.4346520000000  0.4684910000000  0.5588470000000 1.0
C      1  0.4764350000000  0.6161980000000  0.5313650000000 1.0
C      1  0.5298770000000  0.4582730000000  0.4666110000000 1.0
END
