TITL C-2778428-5639-1278 0.000236435357807894 125000 -730.777933591957 0 0 126 (C1) n - 1
REM
REM in /home/nfs/bkarasulu/CARBON/AIRSS/Generating-Clusters/REBO/Only-C1/SD-CG/HFTN-CG
REM
REM
REM
REM
REM
REM ./C.cell (11c1c37f851c82e70ff6c80c92926a4b)
REM
REM compiler GCC version 9.2.1 20190827 (Red Hat 9.2.1-1)
REM options -cpp -mtune=generic -march=x86-64 -g -O0 -fpre-include=/usr/include/finclude/math-vector-fortran.h
REM seed -145182997 -1204470189 174715155 309345847 -1864363775 -2037303576 -1996917279 -1598337159 -253451150 -1322660212 -2012169627 -1291912629 685590898 -2140667627 1737442090 -1072342651 -1820251569 759432722 -1442083145 -2135723563 1079070768 -100121964 -1412262653 469715643 1098086064 -1190888516 1727264652 958063221 -1450109473 520377772 -1952780772 -808427512 2051644859
REM
CELL 1.54180   50.00000   50.00000   50.00000   90.00000   90.00000   90.00000
LATT -1
SFAC C  
C      1  0.4393280000000  0.4510380000000  0.5498620000000 1.0
C      1  0.4269500000000  0.4317200000000  0.4673810000000 1.0
C      1  0.4675460000000  0.4396720000000  0.5651630000000 1.0
C      1  0.5523500000000  0.4568520000000  0.5823800000000 1.0
C      1  0.5419190000000  0.5506910000000  0.5928990000000 1.0
C      1  0.5534310000000  0.5433610000000  0.4499420000000 1.0
C      1  0.5042940000000  0.4720110000000  0.5271370000000 1.0
C      1  0.4942650000000  0.5280320000000  0.5458250000000 1.0
C      1  0.5068780000000  0.4765080000000  0.5748150000000 1.0
C      1  0.5260990000000  0.5292650000000  0.5443560000000 1.0
C      1  0.5063420000000  0.4817660000000  0.4171500000000 1.0
C      1  0.4590040000000  0.5647910000000  0.4634780000000 1.0
C      1  0.4517140000000  0.5323920000000  0.5179300000000 1.0
C      1  0.4283070000000  0.4274490000000  0.5011850000000 1.0
C      1  0.4561810000000  0.5107030000000  0.5651920000000 1.0
C      1  0.5317150000000  0.5930060000000  0.5073570000000 1.0
C      1  0.5742800000000  0.4639190000000  0.5680350000000 1.0
C      1  0.5947010000000  0.4908250000000  0.4548130000000 1.0
C      1  0.4936220000000  0.4617180000000  0.4974440000000 1.0
C      1  0.5184280000000  0.5795520000000  0.5323020000000 1.0
C      1  0.5528020000000  0.4632480000000  0.4938550000000 1.0
C      1  0.5248070000000  0.5740570000000  0.4829500000000 1.0
C      1  0.5045620000000  0.4961600000000  0.5495830000000 1.0
C      1  0.4755010000000  0.5897400000000  0.5054020000000 1.0
C      1  0.4133250000000  0.5235610000000  0.5239270000000 1.0
C      1  0.4762160000000  0.4158050000000  0.4534680000000 1.0
C      1  0.5146170000000  0.4868810000000  0.4720290000000 1.0
C      1  0.4732250000000  0.5279860000000  0.4698320000000 1.0
C      1  0.4291700000000  0.5308310000000  0.4427680000000 1.0
C      1  0.4918930000000  0.4466360000000  0.5445310000000 1.0
C      1  0.5338760000000  0.4970170000000  0.4304970000000 1.0
C      1  0.5252150000000  0.4706720000000  0.5001840000000 1.0
C      1  0.4523720000000  0.4320040000000  0.4448040000000 1.0
C      1  0.5518790000000  0.5492310000000  0.4985240000000 1.0
C      1  0.5442440000000  0.5009010000000  0.4827870000000 1.0
C      1  0.4561470000000  0.4801980000000  0.5173750000000 1.0
C      1  0.4460100000000  0.4873320000000  0.4646470000000 1.0
C      1  0.5443100000000  0.4093380000000  0.4795110000000 1.0
C      1  0.5719190000000  0.4885230000000  0.4915640000000 1.0
C      1  0.4532700000000  0.5408550000000  0.5659410000000 1.0
C      1  0.5075830000000  0.4437370000000  0.4767100000000 1.0
C      1  0.5511940000000  0.5962480000000  0.5775440000000 1.0
C      1  0.5343980000000  0.4964290000000  0.5367170000000 1.0
C      1  0.4827760000000  0.5366500000000  0.5171850000000 1.0
C      1  0.4097290000000  0.5479960000000  0.4742520000000 1.0
C      1  0.4464350000000  0.5824810000000  0.5037870000000 1.0
C      1  0.5860240000000  0.4902530000000  0.5225720000000 1.0
C      1  0.5474780000000  0.4169760000000  0.5070010000000 1.0
C      1  0.5234950000000  0.4409430000000  0.5432210000000 1.0
C      1  0.4636870000000  0.4821470000000  0.4414650000000 1.0
C      1  0.5750900000000  0.5184770000000  0.4584620000000 1.0
C      1  0.4035920000000  0.5174970000000  0.4702890000000 1.0
C      1  0.5114340000000  0.5581770000000  0.3917850000000 1.0
C      1  0.5299490000000  0.4440470000000  0.4527330000000 1.0
C      1  0.4536000000000  0.5022970000000  0.4086790000000 1.0
C      1  0.5080790000000  0.5178950000000  0.5829330000000 1.0
C      1  0.4826010000000  0.4087570000000  0.5011830000000 1.0
C      1  0.5359600000000  0.5245060000000  0.5832000000000 1.0
C      1  0.4374080000000  0.4820850000000  0.5638220000000 1.0
C      1  0.4189360000000  0.4448910000000  0.5232350000000 1.0
C      1  0.4796900000000  0.4873670000000  0.3962030000000 1.0
C      1  0.5075940000000  0.5740810000000  0.4477690000000 1.0
C      1  0.4225780000000  0.4643500000000  0.4663620000000 1.0
C      1  0.4787820000000  0.5576280000000  0.5508430000000 1.0
C      1  0.4156780000000  0.4987630000000  0.5435680000000 1.0
C      1  0.4612400000000  0.4297960000000  0.5042010000000 1.0
C      1  0.5572290000000  0.5135110000000  0.5686520000000 1.0
C      1  0.5261240000000  0.4559730000000  0.5719140000000 1.0
C      1  0.4820280000000  0.4587520000000  0.4091200000000 1.0
C      1  0.4597510000000  0.5699620000000  0.5763350000000 1.0
C      1  0.4518600000000  0.4509940000000  0.4799410000000 1.0
C      1  0.5600310000000  0.5820140000000  0.4996930000000 1.0
C      1  0.5029670000000  0.6085980000000  0.5096450000000 1.0
C      1  0.5520900000000  0.5334620000000  0.5244470000000 1.0
C      1  0.5319350000000  0.5126140000000  0.5085250000000 1.0
C      1  0.4281590000000  0.5769440000000  0.5258420000000 1.0
C      1  0.4294280000000  0.5068950000000  0.4244310000000 1.0
C      1  0.4607670000000  0.4555180000000  0.4292600000000 1.0
C      1  0.4817390000000  0.4783270000000  0.5912340000000 1.0
C      1  0.5430420000000  0.5707830000000  0.5730870000000 1.0
C      1  0.4776350000000  0.5532410000000  0.4896110000000 1.0
C      1  0.5274180000000  0.5401920000000  0.4800960000000 1.0
C      1  0.5934010000000  0.4600020000000  0.5091110000000 1.0
C      1  0.5772410000000  0.4914260000000  0.5535170000000 1.0
C      1  0.4913290000000  0.4408630000000  0.4501210000000 1.0
C      1  0.5273620000000  0.5135750000000  0.4038170000000 1.0
C      1  0.5547740000000  0.4303240000000  0.4606990000000 1.0
C      1  0.4903540000000  0.5316410000000  0.4270290000000 1.0
C      1  0.4370350000000  0.5524810000000  0.4944610000000 1.0
C      1  0.4155030000000  0.4949330000000  0.4531780000000 1.0
C      1  0.5326240000000  0.5613990000000  0.5485310000000 1.0
C      1  0.5756360000000  0.4547800000000  0.5376420000000 1.0
C      1  0.5855010000000  0.5325760000000  0.4848100000000 1.0
C      1  0.4243630000000  0.4752310000000  0.5221640000000 1.0
C      1  0.5099530000000  0.4694260000000  0.4465000000000 1.0
C      1  0.6000440000000  0.4749430000000  0.4795330000000 1.0
C      1  0.4477860000000  0.5056190000000  0.5333120000000 1.0
C      1  0.4891770000000  0.5032020000000  0.4789780000000 1.0
C      1  0.5805390000000  0.5621110000000  0.4853270000000 1.0
C      1  0.5382120000000  0.5670090000000  0.4524710000000 1.0
C      1  0.4901890000000  0.5779450000000  0.5319330000000 1.0
C      1  0.4259510000000  0.5496120000000  0.5326520000000 1.0
C      1  0.4905880000000  0.4016380000000  0.4747700000000 1.0
C      1  0.5635680000000  0.4620020000000  0.4628420000000 1.0
C      1  0.5619980000000  0.4896560000000  0.4456330000000 1.0
C      1  0.4425590000000  0.5257850000000  0.4736440000000 1.0
C      1  0.5040360000000  0.5243290000000  0.4974490000000 1.0
C      1  0.5352530000000  0.5171700000000  0.4561210000000 1.0
C      1  0.4328210000000  0.5598320000000  0.4553270000000 1.0
C      1  0.4192580000000  0.5169430000000  0.4973230000000 1.0
C      1  0.5190740000000  0.3970930000000  0.4721560000000 1.0
C      1  0.4819690000000  0.5067390000000  0.5822510000000 1.0
C      1  0.4931840000000  0.5794530000000  0.4782310000000 1.0
C      1  0.4685380000000  0.4794750000000  0.4882330000000 1.0
C      1  0.5759670000000  0.5234650000000  0.5419280000000 1.0
C      1  0.4779680000000  0.5068570000000  0.4304680000000 1.0
C      1  0.4854450000000  0.5519240000000  0.4488100000000 1.0
C      1  0.5090220000000  0.5351980000000  0.4060390000000 1.0
C      1  0.5010360000000  0.4020510000000  0.5225260000000 1.0
C      1  0.5870330000000  0.5206170000000  0.5098380000000 1.0
C      1  0.4647310000000  0.4503290000000  0.5272300000000 1.0
C      1  0.4592190000000  0.4637990000000  0.5818170000000 1.0
C      1  0.5260180000000  0.4167010000000  0.5250600000000 1.0
C      1  0.5446500000000  0.4668160000000  0.5382220000000 1.0
C      1  0.5655840000000  0.4401130000000  0.5099530000000 1.0
C      1  0.4935800000000  0.3844160000000  0.5419690000000 1.0
END
