TITL C-2778435-5768-144 -0.000244289811247041 125000 -1065.89256269615 0 0 183 (C1) n - 1
REM
REM in /home/nfs/bkarasulu/CARBON/AIRSS/Generating-Clusters/REBO/Only-C1/SD-CG/HFTN-CG
REM
REM
REM
REM
REM
REM ./C.cell (11c1c37f851c82e70ff6c80c92926a4b)
REM
REM compiler GCC version 9.2.1 20190827 (Red Hat 9.2.1-1)
REM options -cpp -mtune=generic -march=x86-64 -g -O0 -fpre-include=/usr/include/finclude/math-vector-fortran.h
REM seed 726216187 -1742651368 -2115640624 1804870507 325974029 870042795 -199637757 -112370062 -1213049149 -1942100124 -85563261 -695506156 -931214490 744878427 -745114700 1267794537 -680009192 -1570974076 -430361331 -835929395 336364790 -2054111343 1188852393 -474990601 -2143756399 -842328684 981951152 -1445286 37665571 1623214938 -1503193962 1746128580 -1975658846
REM
CELL 1.54180   50.00000   50.00000   50.00000   90.00000   90.00000   90.00000
LATT -1
SFAC C  
C      1  0.5207590000000  0.5574310000000  0.5257660000000 1.0
C      1  0.5164020000000  0.5472080000000  0.4360510000000 1.0
C      1  0.4377830000000  0.5694290000000  0.5892360000000 1.0
C      1  0.5548220000000  0.4541780000000  0.5387760000000 1.0
C      1  0.4638580000000  0.5039830000000  0.5443480000000 1.0
C      1  0.4316700000000  0.5020330000000  0.4124420000000 1.0
C      1  0.4491620000000  0.4475620000000  0.4812060000000 1.0
C      1  0.5756380000000  0.5085430000000  0.4169880000000 1.0
C      1  0.4544630000000  0.4897270000000  0.4941690000000 1.0
C      1  0.5593490000000  0.3961000000000  0.5104310000000 1.0
C      1  0.5471060000000  0.5632390000000  0.4947390000000 1.0
C      1  0.4864640000000  0.6059110000000  0.4630510000000 1.0
C      1  0.4625070000000  0.5718800000000  0.4185400000000 1.0
C      1  0.5566800000000  0.5057170000000  0.4413200000000 1.0
C      1  0.5490330000000  0.5716400000000  0.5259120000000 1.0
C      1  0.4575320000000  0.4451880000000  0.4172010000000 1.0
C      1  0.5671540000000  0.5619600000000  0.5495950000000 1.0
C      1  0.4327220000000  0.4872650000000  0.5204640000000 1.0
C      1  0.3990250000000  0.4672920000000  0.5124660000000 1.0
C      1  0.4772450000000  0.4423310000000  0.3896550000000 1.0
C      1  0.6064690000000  0.4607050000000  0.5116840000000 1.0
C      1  0.5440260000000  0.5364830000000  0.3978090000000 1.0
C      1  0.5311130000000  0.4690650000000  0.4020070000000 1.0
C      1  0.5160600000000  0.4241000000000  0.4172740000000 1.0
C      1  0.5188570000000  0.4386350000000  0.5074880000000 1.0
C      1  0.4186480000000  0.4645630000000  0.5796860000000 1.0
C      1  0.4842680000000  0.5424680000000  0.5732010000000 1.0
C      1  0.5748690000000  0.4207600000000  0.5019180000000 1.0
C      1  0.5338910000000  0.4740990000000  0.4969260000000 1.0
C      1  0.4613790000000  0.5657250000000  0.5796630000000 1.0
C      1  0.4198950000000  0.5175090000000  0.5629660000000 1.0
C      1  0.5680030000000  0.4266880000000  0.4688960000000 1.0
C      1  0.4050790000000  0.5761590000000  0.4735940000000 1.0
C      1  0.5646940000000  0.5294000000000  0.5507990000000 1.0
C      1  0.5919230000000  0.5126080000000  0.4588470000000 1.0
C      1  0.4579690000000  0.5285060000000  0.5647200000000 1.0
C      1  0.4342170000000  0.5462320000000  0.5514230000000 1.0
C      1  0.4007000000000  0.4680080000000  0.4584940000000 1.0
C      1  0.4909670000000  0.4715520000000  0.5344000000000 1.0
C      1  0.5653690000000  0.4926120000000  0.5356670000000 1.0
C      1  0.4962620000000  0.4892080000000  0.5815470000000 1.0
C      1  0.4839830000000  0.6002670000000  0.5109100000000 1.0
C      1  0.5340250000000  0.5922790000000  0.4639600000000 1.0
C      1  0.4443100000000  0.4506080000000  0.5300790000000 1.0
C      1  0.6153330000000  0.5104850000000  0.5300790000000 1.0
C      1  0.5168050000000  0.5296820000000  0.5084330000000 1.0
C      1  0.5779350000000  0.5231320000000  0.4880640000000 1.0
C      1  0.5215150000000  0.4950090000000  0.4197000000000 1.0
C      1  0.4053430000000  0.4404800000000  0.4560980000000 1.0
C      1  0.5922440000000  0.4868060000000  0.5646370000000 1.0
C      1  0.4828300000000  0.4392790000000  0.5814290000000 1.0
C      1  0.4408050000000  0.5727650000000  0.5447740000000 1.0
C      1  0.4593210000000  0.5986830000000  0.5571130000000 1.0
C      1  0.4936800000000  0.5195610000000  0.5498090000000 1.0
C      1  0.4781760000000  0.5668530000000  0.4574080000000 1.0
C      1  0.4390860000000  0.4712850000000  0.4190840000000 1.0
C      1  0.5449970000000  0.5340980000000  0.4501790000000 1.0
C      1  0.5105960000000  0.4179500000000  0.5229530000000 1.0
C      1  0.5238620000000  0.4966640000000  0.5693330000000 1.0
C      1  0.5655850000000  0.4928570000000  0.3942830000000 1.0
C      1  0.5767000000000  0.5776670000000  0.4939310000000 1.0
C      1  0.4583370000000  0.5380080000000  0.5035010000000 1.0
C      1  0.4666160000000  0.4625520000000  0.6006400000000 1.0
C      1  0.4545700000000  0.5172070000000  0.4808710000000 1.0
C      1  0.5098530000000  0.5510190000000  0.5887830000000 1.0
C      1  0.4450390000000  0.5906220000000  0.5006940000000 1.0
C      1  0.5367620000000  0.5224200000000  0.5348680000000 1.0
C      1  0.5617920000000  0.5837500000000  0.4637810000000 1.0
C      1  0.4370730000000  0.6035430000000  0.5311900000000 1.0
C      1  0.4148320000000  0.5113230000000  0.4835050000000 1.0
C      1  0.5495700000000  0.4503820000000  0.5102600000000 1.0
C      1  0.5314170000000  0.4600240000000  0.6028400000000 1.0
C      1  0.6154600000000  0.4848860000000  0.5203240000000 1.0
C      1  0.5044590000000  0.5349910000000  0.4634520000000 1.0
C      1  0.5250920000000  0.4997750000000  0.4517670000000 1.0
C      1  0.4294370000000  0.4594880000000  0.5011170000000 1.0
C      1  0.5891510000000  0.4362960000000  0.5289910000000 1.0
C      1  0.4858020000000  0.4613550000000  0.4232100000000 1.0
C      1  0.4592740000000  0.4192570000000  0.4393180000000 1.0
C      1  0.4331270000000  0.4202930000000  0.5282630000000 1.0
C      1  0.5048250000000  0.4987650000000  0.5307110000000 1.0
C      1  0.5935150000000  0.5363050000000  0.5340370000000 1.0
C      1  0.5507520000000  0.5367610000000  0.4811060000000 1.0
C      1  0.4772530000000  0.5175550000000  0.4601340000000 1.0
C      1  0.4652660000000  0.3999480000000  0.4906800000000 1.0
C      1  0.4693780000000  0.6024890000000  0.4855700000000 1.0
C      1  0.5474830000000  0.5537350000000  0.4238660000000 1.0
C      1  0.4822940000000  0.4669980000000  0.5642700000000 1.0
C      1  0.5781440000000  0.5135210000000  0.5166340000000 1.0
C      1  0.4978130000000  0.5604430000000  0.4820120000000 1.0
C      1  0.5388550000000  0.4745550000000  0.5593530000000 1.0
C      1  0.5304740000000  0.5964600000000  0.5318600000000 1.0
C      1  0.5946290000000  0.5525930000000  0.4848290000000 1.0
C      1  0.4040230000000  0.4373610000000  0.5223010000000 1.0
C      1  0.5883440000000  0.5441330000000  0.4558060000000 1.0
C      1  0.5067900000000  0.4805510000000  0.4686090000000 1.0
C      1  0.5933690000000  0.4866930000000  0.4503930000000 1.0
C      1  0.4738190000000  0.5123610000000  0.6049630000000 1.0
C      1  0.5109610000000  0.4314610000000  0.4496790000000 1.0
C      1  0.5224290000000  0.4022490000000  0.4770090000000 1.0
C      1  0.4550310000000  0.4754400000000  0.5507290000000 1.0
C      1  0.5008610000000  0.4622480000000  0.5992690000000 1.0
C      1  0.5705370000000  0.4330480000000  0.4147690000000 1.0
C      1  0.3899550000000  0.5203850000000  0.4299300000000 1.0
C      1  0.4369830000000  0.4303500000000  0.4589110000000 1.0
C      1  0.4747200000000  0.4912390000000  0.4472820000000 1.0
C      1  0.5426830000000  0.4351830000000  0.6016380000000 1.0
C      1  0.5669030000000  0.5022850000000  0.5692190000000 1.0
C      1  0.4010630000000  0.5950650000000  0.4921930000000 1.0
C      1  0.5474020000000  0.5448540000000  0.5811280000000 1.0
C      1  0.4685460000000  0.4654110000000  0.5123370000000 1.0
C      1  0.4933220000000  0.4562940000000  0.4526740000000 1.0
C      1  0.4432320000000  0.5230990000000  0.5282270000000 1.0
C      1  0.4330550000000  0.5018530000000  0.5809500000000 1.0
C      1  0.5781870000000  0.4702230000000  0.4269240000000 1.0
C      1  0.5049280000000  0.5182060000000  0.5971440000000 1.0
C      1  0.5321990000000  0.3916750000000  0.5019720000000 1.0
C      1  0.4172740000000  0.5162930000000  0.4333090000000 1.0
C      1  0.5036920000000  0.4889460000000  0.5001880000000 1.0
C      1  0.5120920000000  0.5978560000000  0.5105620000000 1.0
C      1  0.4610630000000  0.4285790000000  0.5012360000000 1.0
C      1  0.5205740000000  0.5789680000000  0.4882960000000 1.0
C      1  0.4298060000000  0.5271040000000  0.4593830000000 1.0
C      1  0.3976740000000  0.5008240000000  0.5069290000000 1.0
C      1  0.4705470000000  0.3977850000000  0.4639470000000 1.0
C      1  0.4292940000000  0.5585990000000  0.4624420000000 1.0
C      1  0.5083400000000  0.4488260000000  0.4011620000000 1.0
C      1  0.5704000000000  0.5641890000000  0.4442000000000 1.0
C      1  0.4835240000000  0.4152160000000  0.5680030000000 1.0
C      1  0.4802340000000  0.5115880000000  0.3995450000000 1.0
C      1  0.5084940000000  0.5920570000000  0.4216460000000 1.0
C      1  0.4204000000000  0.4883240000000  0.4617250000000 1.0
C      1  0.5885880000000  0.5675420000000  0.5236420000000 1.0
C      1  0.5710300000000  0.3790510000000  0.5289550000000 1.0
C      1  0.4497510000000  0.5740600000000  0.4459820000000 1.0
C      1  0.4720440000000  0.5436990000000  0.4034230000000 1.0
C      1  0.4705880000000  0.5822800000000  0.5302690000000 1.0
C      1  0.5165470000000  0.5814040000000  0.5815250000000 1.0
C      1  0.4033040000000  0.5209560000000  0.5341040000000 1.0
C      1  0.4907080000000  0.4923120000000  0.4189200000000 1.0
C      1  0.5556820000000  0.4741170000000  0.4517630000000 1.0
C      1  0.5814400000000  0.4580230000000  0.4643790000000 1.0
C      1  0.5721570000000  0.4321750000000  0.5583980000000 1.0
C      1  0.5339040000000  0.4618560000000  0.4674850000000 1.0
C      1  0.5746070000000  0.4235440000000  0.4372610000000 1.0
C      1  0.4349160000000  0.4592990000000  0.5977180000000 1.0
C      1  0.5361130000000  0.4917610000000  0.5233490000000 1.0
C      1  0.5405690000000  0.5091670000000  0.3979250000000 1.0
C      1  0.4189650000000  0.5345080000000  0.5071270000000 1.0
C      1  0.5625570000000  0.4593850000000  0.5768130000000 1.0
C      1  0.4432500000000  0.4843480000000  0.4462050000000 1.0
C      1  0.4498570000000  0.5182530000000  0.3982800000000 1.0
C      1  0.5585790000000  0.4205340000000  0.5850870000000 1.0
C      1  0.4928940000000  0.5623280000000  0.5384400000000 1.0
C      1  0.4983020000000  0.4559600000000  0.4988310000000 1.0
C      1  0.4720410000000  0.5416730000000  0.4415750000000 1.0
C      1  0.4229020000000  0.4765660000000  0.5516210000000 1.0
C      1  0.5215050000000  0.5339630000000  0.5614840000000 1.0
C      1  0.4877020000000  0.5815140000000  0.5661200000000 1.0
C      1  0.5519630000000  0.4860610000000  0.5952560000000 1.0
C      1  0.5326500000000  0.6010180000000  0.5600580000000 1.0
C      1  0.4690310000000  0.4683860000000  0.4719580000000 1.0
C      1  0.5010520000000  0.3942500000000  0.4603850000000 1.0
C      1  0.4956820000000  0.5633450000000  0.4181610000000 1.0
C      1  0.5500660000000  0.5763930000000  0.5748430000000 1.0
C      1  0.4912210000000  0.4096010000000  0.4326360000000 1.0
C      1  0.4859020000000  0.4025000000000  0.5397950000000 1.0
C      1  0.5381460000000  0.5164030000000  0.5930610000000 1.0
C      1  0.5797360000000  0.4539980000000  0.4949810000000 1.0
C      1  0.4867370000000  0.5463310000000  0.5087730000000 1.0
C      1  0.5245570000000  0.5182070000000  0.4804260000000 1.0
C      1  0.5620570000000  0.4611680000000  0.4003110000000 1.0
C      1  0.4358100000000  0.5614070000000  0.4945220000000 1.0
C      1  0.5111790000000  0.6016690000000  0.4483830000000 1.0
C      1  0.5364720000000  0.4295660000000  0.4682550000000 1.0
C      1  0.3971310000000  0.4883140000000  0.5382820000000 1.0
C      1  0.5117460000000  0.3861550000000  0.5245680000000 1.0
C      1  0.5856020000000  0.4666310000000  0.5444810000000 1.0
C      1  0.4556650000000  0.4934400000000  0.5965420000000 1.0
C      1  0.4602090000000  0.4033150000000  0.5239240000000 1.0
C      1  0.4116410000000  0.4154760000000  0.4751440000000 1.0
C      1  0.4117300000000  0.4136710000000  0.5025440000000 1.0
C      1  0.4112610000000  0.6081630000000  0.5133460000000 1.0
END
