TITL C-2778435-5768-243 -0.00185576845079475 125000 -1074.73555852959 0 0 182 (C1) n - 1
REM
REM in /home/nfs/bkarasulu/CARBON/AIRSS/Generating-Clusters/REBO/Only-C1/SD-CG/HFTN-CG
REM
REM
REM
REM
REM
REM ./C.cell (11c1c37f851c82e70ff6c80c92926a4b)
REM
REM compiler GCC version 9.2.1 20190827 (Red Hat 9.2.1-1)
REM options -cpp -mtune=generic -march=x86-64 -g -O0 -fpre-include=/usr/include/finclude/math-vector-fortran.h
REM seed -1326531656 2039067602 -966258094 -1232986856 1798018280 929179016 -1226300343 891753569 -435819590 735301707 -1803267636 -474251575 550936073 -1407609180 -798662267 568416220 500291 538015739 -2043743982 1871593506 1987153255 159235388 -1788489395 -1806591083 1583672118 -197328900 968651762 -590115007 721911270 2100507592 -481124245 1345672044 2042265423
REM
CELL 1.54180   50.00000   50.00000   50.00000   90.00000   90.00000   90.00000
LATT -1
SFAC C  
C      1  0.4584290000000  0.4355140000000  0.5669060000000 1.0
C      1  0.5374770000000  0.4316910000000  0.4251580000000 1.0
C      1  0.4313020000000  0.4749220000000  0.5506970000000 1.0
C      1  0.4766380000000  0.5093430000000  0.4043820000000 1.0
C      1  0.5140110000000  0.4789660000000  0.4832960000000 1.0
C      1  0.3840500000000  0.4574920000000  0.5150050000000 1.0
C      1  0.5803400000000  0.4353340000000  0.5581980000000 1.0
C      1  0.4175010000000  0.4752290000000  0.4413400000000 1.0
C      1  0.5720550000000  0.5705860000000  0.5254650000000 1.0
C      1  0.5658400000000  0.5172900000000  0.5223650000000 1.0
C      1  0.4531700000000  0.4692770000000  0.5271940000000 1.0
C      1  0.5102920000000  0.5312270000000  0.3824350000000 1.0
C      1  0.5543390000000  0.4100290000000  0.5088760000000 1.0
C      1  0.5426770000000  0.4456440000000  0.4706870000000 1.0
C      1  0.4383730000000  0.5397750000000  0.4407330000000 1.0
C      1  0.4809650000000  0.5857940000000  0.4346920000000 1.0
C      1  0.5200400000000  0.5315980000000  0.5053090000000 1.0
C      1  0.4754880000000  0.4993380000000  0.5974200000000 1.0
C      1  0.4054050000000  0.4524540000000  0.4964670000000 1.0
C      1  0.6012880000000  0.4790810000000  0.4685410000000 1.0
C      1  0.4268860000000  0.4446290000000  0.4532400000000 1.0
C      1  0.6017090000000  0.5109640000000  0.5468660000000 1.0
C      1  0.5055780000000  0.6008590000000  0.4976480000000 1.0
C      1  0.5471860000000  0.5724820000000  0.4541500000000 1.0
C      1  0.5952590000000  0.5102990000000  0.4553320000000 1.0
C      1  0.5332210000000  0.4728200000000  0.5531840000000 1.0
C      1  0.5321880000000  0.4071100000000  0.5308470000000 1.0
C      1  0.5867090000000  0.5317170000000  0.4915490000000 1.0
C      1  0.4770230000000  0.4378980000000  0.4170640000000 1.0
C      1  0.4060570000000  0.5236030000000  0.5502540000000 1.0
C      1  0.5641010000000  0.4232390000000  0.4726960000000 1.0
C      1  0.4714700000000  0.5303030000000  0.5466250000000 1.0
C      1  0.4766590000000  0.4925160000000  0.5349440000000 1.0
C      1  0.5170070000000  0.4577470000000  0.6021360000000 1.0
C      1  0.4586850000000  0.5708070000000  0.4258310000000 1.0
C      1  0.5115230000000  0.4708390000000  0.4065390000000 1.0
C      1  0.5697360000000  0.4849590000000  0.5129180000000 1.0
C      1  0.5904950000000  0.5605780000000  0.4766590000000 1.0
C      1  0.4341510000000  0.5719010000000  0.4434030000000 1.0
C      1  0.4912890000000  0.5457110000000  0.3979740000000 1.0
C      1  0.5804160000000  0.5284860000000  0.5669630000000 1.0
C      1  0.5510330000000  0.4933190000000  0.4866570000000 1.0
C      1  0.4873550000000  0.5230040000000  0.5674470000000 1.0
C      1  0.5093810000000  0.5620670000000  0.5568330000000 1.0
C      1  0.4316720000000  0.4278390000000  0.4233320000000 1.0
C      1  0.5604620000000  0.5489500000000  0.4672800000000 1.0
C      1  0.5037590000000  0.4812180000000  0.5492570000000 1.0
C      1  0.5783020000000  0.4505390000000  0.4533350000000 1.0
C      1  0.6064560000000  0.5052290000000  0.4870510000000 1.0
C      1  0.4973500000000  0.6323790000000  0.4485600000000 1.0
C      1  0.4212980000000  0.4258260000000  0.5341750000000 1.0
C      1  0.5320730000000  0.4899160000000  0.4072970000000 1.0
C      1  0.4935530000000  0.4417130000000  0.4526700000000 1.0
C      1  0.5165150000000  0.5479260000000  0.4477500000000 1.0
C      1  0.6118490000000  0.4623630000000  0.5349100000000 1.0
C      1  0.4914920000000  0.5713180000000  0.5017230000000 1.0
C      1  0.5139470000000  0.4344710000000  0.5354920000000 1.0
C      1  0.5122920000000  0.5764890000000  0.4297660000000 1.0
C      1  0.5017480000000  0.4012460000000  0.5180660000000 1.0
C      1  0.4628680000000  0.5561230000000  0.5032440000000 1.0
C      1  0.5436470000000  0.5181050000000  0.6083350000000 1.0
C      1  0.4493840000000  0.4133920000000  0.4426440000000 1.0
C      1  0.5950290000000  0.4618080000000  0.5575800000000 1.0
C      1  0.4617920000000  0.4667420000000  0.4928780000000 1.0
C      1  0.5530780000000  0.4325030000000  0.5732350000000 1.0
C      1  0.4353750000000  0.4974660000000  0.4598400000000 1.0
C      1  0.4424370000000  0.5560480000000  0.5559110000000 1.0
C      1  0.5397210000000  0.4587890000000  0.5798900000000 1.0
C      1  0.4314970000000  0.4887810000000  0.5756050000000 1.0
C      1  0.5220830000000  0.5972240000000  0.5434540000000 1.0
C      1  0.5067180000000  0.5500120000000  0.4793850000000 1.0
C      1  0.4197290000000  0.5166980000000  0.4285000000000 1.0
C      1  0.4552050000000  0.5863750000000  0.4943980000000 1.0
C      1  0.5018560000000  0.5518480000000  0.5258470000000 1.0
C      1  0.4246360000000  0.4341120000000  0.5056040000000 1.0
C      1  0.4230390000000  0.5156880000000  0.5727010000000 1.0
C      1  0.4771220000000  0.5372420000000  0.4711470000000 1.0
C      1  0.4163550000000  0.4777720000000  0.4887350000000 1.0
C      1  0.5562570000000  0.5497140000000  0.5666880000000 1.0
C      1  0.5131350000000  0.4395310000000  0.4782190000000 1.0
C      1  0.4433200000000  0.4231110000000  0.4721870000000 1.0
C      1  0.5099980000000  0.4442680000000  0.4229330000000 1.0
C      1  0.4333610000000  0.4900880000000  0.5082630000000 1.0
C      1  0.5047790000000  0.4240620000000  0.5635980000000 1.0
C      1  0.4728820000000  0.4960270000000  0.5020730000000 1.0
C      1  0.4946180000000  0.4899800000000  0.4574870000000 1.0
C      1  0.4639130000000  0.4975080000000  0.4448350000000 1.0
C      1  0.4473590000000  0.4081370000000  0.5252350000000 1.0
C      1  0.4909440000000  0.4951130000000  0.5732800000000 1.0
C      1  0.5045090000000  0.4489300000000  0.5077810000000 1.0
C      1  0.4665500000000  0.5298820000000  0.4433660000000 1.0
C      1  0.5102370000000  0.3867550000000  0.4909490000000 1.0
C      1  0.5841460000000  0.4236870000000  0.4991870000000 1.0
C      1  0.5375610000000  0.5390870000000  0.5402220000000 1.0
C      1  0.5564750000000  0.5969730000000  0.5103000000000 1.0
C      1  0.4421230000000  0.5436940000000  0.5238880000000 1.0
C      1  0.4992930000000  0.5041060000000  0.4283720000000 1.0
C      1  0.4725820000000  0.5624960000000  0.5414280000000 1.0
C      1  0.5016480000000  0.4798590000000  0.6202450000000 1.0
C      1  0.5435520000000  0.5335690000000  0.4178740000000 1.0
C      1  0.5030320000000  0.5429470000000  0.5781590000000 1.0
C      1  0.5159010000000  0.6121430000000  0.4688670000000 1.0
C      1  0.5259150000000  0.5092140000000  0.4730030000000 1.0
C      1  0.5973970000000  0.4722770000000  0.5076330000000 1.0
C      1  0.4358520000000  0.4903450000000  0.4172470000000 1.0
C      1  0.5500880000000  0.4800210000000  0.6004090000000 1.0
C      1  0.3966800000000  0.5119610000000  0.4481420000000 1.0
C      1  0.5598460000000  0.4343140000000  0.4347500000000 1.0
C      1  0.4172920000000  0.5762290000000  0.4682360000000 1.0
C      1  0.4624610000000  0.5491850000000  0.4072200000000 1.0
C      1  0.5101070000000  0.4084780000000  0.4665310000000 1.0
C      1  0.5425540000000  0.5659030000000  0.4233350000000 1.0
C      1  0.5352230000000  0.5200570000000  0.4461290000000 1.0
C      1  0.5897890000000  0.4168060000000  0.5312600000000 1.0
C      1  0.5101950000000  0.4813840000000  0.5166180000000 1.0
C      1  0.5353360000000  0.5877500000000  0.4744330000000 1.0
C      1  0.4779690000000  0.4115930000000  0.4559760000000 1.0
C      1  0.5824540000000  0.4891900000000  0.5618180000000 1.0
C      1  0.6037220000000  0.5294110000000  0.5184590000000 1.0
C      1  0.4692890000000  0.4717970000000  0.6116570000000 1.0
C      1  0.4753110000000  0.6018520000000  0.4821320000000 1.0
C      1  0.4260250000000  0.5826380000000  0.4943990000000 1.0
C      1  0.3973390000000  0.4958710000000  0.4719520000000 1.0
C      1  0.5490800000000  0.4917970000000  0.4331230000000 1.0
C      1  0.4192870000000  0.4534420000000  0.4152510000000 1.0
C      1  0.4643360000000  0.4542150000000  0.4431550000000 1.0
C      1  0.4428940000000  0.5352150000000  0.5796650000000 1.0
C      1  0.4938780000000  0.5364010000000  0.4282520000000 1.0
C      1  0.4136830000000  0.5445640000000  0.4637870000000 1.0
C      1  0.4123000000000  0.4493720000000  0.5532900000000 1.0
C      1  0.4488010000000  0.5119160000000  0.5293310000000 1.0
C      1  0.4101020000000  0.5529390000000  0.5447920000000 1.0
C      1  0.4460580000000  0.5210010000000  0.4065550000000 1.0
C      1  0.5932330000000  0.4504640000000  0.4840940000000 1.0
C      1  0.4592470000000  0.3945520000000  0.5039600000000 1.0
C      1  0.4860890000000  0.4799880000000  0.3994290000000 1.0
C      1  0.4785330000000  0.6075130000000  0.4540590000000 1.0
C      1  0.5816700000000  0.5438490000000  0.5366000000000 1.0
C      1  0.3831030000000  0.5377440000000  0.4530760000000 1.0
C      1  0.5273360000000  0.5084600000000  0.5285550000000 1.0
C      1  0.4628270000000  0.4751250000000  0.4193570000000 1.0
C      1  0.5491950000000  0.4617090000000  0.5270540000000 1.0
C      1  0.5608320000000  0.4349270000000  0.5312250000000 1.0
C      1  0.4916570000000  0.5894450000000  0.5470450000000 1.0
C      1  0.4887830000000  0.4478530000000  0.6010460000000 1.0
C      1  0.5308790000000  0.5694900000000  0.4966030000000 1.0
C      1  0.4617520000000  0.5244260000000  0.5981180000000 1.0
C      1  0.4565460000000  0.5243840000000  0.4923250000000 1.0
C      1  0.5801690000000  0.4827550000000  0.4420730000000 1.0
C      1  0.4272740000000  0.5203310000000  0.4812320000000 1.0
C      1  0.4778770000000  0.3938480000000  0.4842760000000 1.0
C      1  0.5674090000000  0.5048280000000  0.5876680000000 1.0
C      1  0.5398060000000  0.4008880000000  0.4811530000000 1.0
C      1  0.5872050000000  0.5382240000000  0.4507250000000 1.0
C      1  0.5841490000000  0.5830160000000  0.4965260000000 1.0
C      1  0.5144630000000  0.6072250000000  0.4359540000000 1.0
C      1  0.5537720000000  0.4972780000000  0.5471180000000 1.0
C      1  0.4933040000000  0.5125000000000  0.4825460000000 1.0
C      1  0.4351060000000  0.4466100000000  0.5784450000000 1.0
C      1  0.3939740000000  0.4736700000000  0.5374820000000 1.0
C      1  0.5196300000000  0.5402090000000  0.5999360000000 1.0
C      1  0.4010060000000  0.5121010000000  0.5016830000000 1.0
C      1  0.4829710000000  0.4320640000000  0.5791160000000 1.0
C      1  0.4594420000000  0.4374570000000  0.5369740000000 1.0
C      1  0.5388020000000  0.5749500000000  0.5577000000000 1.0
C      1  0.5721430000000  0.5487590000000  0.4248660000000 1.0
C      1  0.5342600000000  0.4138640000000  0.5627170000000 1.0
C      1  0.4478360000000  0.4677900000000  0.4661680000000 1.0
C      1  0.4814630000000  0.4260060000000  0.5146040000000 1.0
C      1  0.6155710000000  0.4982960000000  0.5183940000000 1.0
C      1  0.5401000000000  0.4635250000000  0.4975170000000 1.0
C      1  0.5288210000000  0.4916810000000  0.6196710000000 1.0
C      1  0.4169740000000  0.5653190000000  0.5160830000000 1.0
C      1  0.4559460000000  0.4355820000000  0.4973370000000 1.0
C      1  0.5298010000000  0.6038550000000  0.5169060000000 1.0
C      1  0.5304980000000  0.5167230000000  0.3965640000000 1.0
C      1  0.3988300000000  0.5032130000000  0.5301260000000 1.0
C      1  0.5460550000000  0.4747910000000  0.4599040000000 1.0
C      1  0.5526420000000  0.5317830000000  0.4955670000000 1.0
C      1  0.5419780000000  0.5611670000000  0.5204470000000 1.0
C      1  0.5496400000000  0.5486500000000  0.5965830000000 1.0
C      1  0.4408330000000  0.4697180000000  0.5968920000000 1.0
END
