TITL C-2778429-3646-1097 0.000702511277422272 125000 -355.95013342426 0 0 62 (C1) n - 1
REM
REM in /home/nfs/bkarasulu/CARBON/AIRSS/Generating-Clusters/REBO/Only-C1/SD-CG/HFTN-CG
REM
REM
REM
REM
REM
REM ./C.cell (11c1c37f851c82e70ff6c80c92926a4b)
REM
REM compiler GCC version 9.2.1 20190827 (Red Hat 9.2.1-1)
REM options -cpp -mtune=generic -march=x86-64 -g -O0 -fpre-include=/usr/include/finclude/math-vector-fortran.h
REM seed -813148138 -1845153213 849537131 1753654205 639730134 -2025912243 -1438261497 920957156 -1549474127 -1765729900 1764855996 714934154 867298055 -2019047345 -1230542927 -1934277756 690732799 -1654212589 -473629747 1341070418 -826510248 -741941326 870740514 210649774 -1626098300 -2070290691 1627732346 981314647 1616972769 -1809798162 -78630855 854429480 -2145903424
REM
CELL 1.54180   50.00000   50.00000   50.00000   90.00000   90.00000   90.00000
LATT -1
SFAC C  
C      1  0.4812110000000  0.4423250000000  0.4735120000000 1.0
C      1  0.5804230000000  0.4568770000000  0.5075210000000 1.0
C      1  0.5519570000000  0.5451580000000  0.5085340000000 1.0
C      1  0.5345760000000  0.5025040000000  0.5446020000000 1.0
C      1  0.4753850000000  0.5479220000000  0.4769080000000 1.0
C      1  0.4557290000000  0.5177530000000  0.4334040000000 1.0
C      1  0.5586380000000  0.5136260000000  0.5149630000000 1.0
C      1  0.4673010000000  0.5399880000000  0.5705230000000 1.0
C      1  0.4183810000000  0.5644980000000  0.5157780000000 1.0
C      1  0.4811320000000  0.5232080000000  0.4666430000000 1.0
C      1  0.5078130000000  0.5208770000000  0.4475840000000 1.0
C      1  0.4701100000000  0.4973720000000  0.4791740000000 1.0
C      1  0.4331070000000  0.5341900000000  0.5132790000000 1.0
C      1  0.4349330000000  0.4442760000000  0.5116670000000 1.0
C      1  0.4639090000000  0.4528530000000  0.5184380000000 1.0
C      1  0.5331700000000  0.4550140000000  0.5453660000000 1.0
C      1  0.4961040000000  0.5014410000000  0.5787610000000 1.0
C      1  0.4441630000000  0.5095580000000  0.4603470000000 1.0
C      1  0.5496900000000  0.5480100000000  0.4785330000000 1.0
C      1  0.5541660000000  0.4888440000000  0.4522380000000 1.0
C      1  0.4638450000000  0.5520900000000  0.5946910000000 1.0
C      1  0.5155730000000  0.4911920000000  0.4623000000000 1.0
C      1  0.4819580000000  0.5112040000000  0.4285690000000 1.0
C      1  0.4832890000000  0.5108290000000  0.5209490000000 1.0
C      1  0.5240860000000  0.5676730000000  0.4910910000000 1.0
C      1  0.4341590000000  0.4806790000000  0.4739280000000 1.0
C      1  0.5512120000000  0.4535700000000  0.5182430000000 1.0
C      1  0.5148940000000  0.5153430000000  0.4864300000000 1.0
C      1  0.5307650000000  0.5391600000000  0.4511210000000 1.0
C      1  0.5253680000000  0.5593830000000  0.5244750000000 1.0
C      1  0.5200380000000  0.4977240000000  0.5665800000000 1.0
C      1  0.5426440000000  0.4839270000000  0.5194810000000 1.0
C      1  0.4690190000000  0.5558460000000  0.5460300000000 1.0
C      1  0.4921650000000  0.4850470000000  0.4403940000000 1.0
C      1  0.5874580000000  0.4762140000000  0.4928320000000 1.0
C      1  0.4516380000000  0.5088290000000  0.5214230000000 1.0
C      1  0.4594600000000  0.4948080000000  0.5487760000000 1.0
C      1  0.4745030000000  0.4660160000000  0.5434210000000 1.0
C      1  0.4931120000000  0.5600720000000  0.5328920000000 1.0
C      1  0.5337070000000  0.4391280000000  0.4979110000000 1.0
C      1  0.5746900000000  0.4457410000000  0.4473620000000 1.0
C      1  0.4840950000000  0.4372080000000  0.5007600000000 1.0
C      1  0.5057290000000  0.4449570000000  0.4594270000000 1.0
C      1  0.4706510000000  0.4761440000000  0.4950910000000 1.0
C      1  0.5415440000000  0.5326110000000  0.5378270000000 1.0
C      1  0.5697070000000  0.5006340000000  0.4870020000000 1.0
C      1  0.4957240000000  0.4897540000000  0.5330330000000 1.0
C      1  0.5320900000000  0.4474920000000  0.4705820000000 1.0
C      1  0.5536470000000  0.4608440000000  0.4561090000000 1.0
C      1  0.5565800000000  0.5198140000000  0.4621420000000 1.0
C      1  0.4968570000000  0.5272750000000  0.5035100000000 1.0
C      1  0.4452620000000  0.5596160000000  0.5316390000000 1.0
C      1  0.5214030000000  0.5679060000000  0.4595990000000 1.0
C      1  0.5374370000000  0.4926340000000  0.4883560000000 1.0
C      1  0.4536320000000  0.4551390000000  0.4637480000000 1.0
C      1  0.4939890000000  0.5592320000000  0.5002020000000 1.0
C      1  0.5096270000000  0.4284880000000  0.5086570000000 1.0
C      1  0.4743560000000  0.4647340000000  0.4412720000000 1.0
C      1  0.4281050000000  0.4505410000000  0.4853890000000 1.0
C      1  0.4714840000000  0.5112730000000  0.5685850000000 1.0
C      1  0.5083170000000  0.4646280000000  0.5474610000000 1.0
C      1  0.4342800000000  0.5083100000000  0.4929360000000 1.0
END
