TITL C-2778435-5768-289 -0.00130441885106487 125000 -473.854544257707 0 0 81 (C1) n - 1
REM
REM in /home/nfs/bkarasulu/CARBON/AIRSS/Generating-Clusters/REBO/Only-C1/SD-CG/HFTN-CG
REM
REM
REM
REM
REM
REM ./C.cell (11c1c37f851c82e70ff6c80c92926a4b)
REM
REM compiler GCC version 9.2.1 20190827 (Red Hat 9.2.1-1)
REM options -cpp -mtune=generic -march=x86-64 -g -O0 -fpre-include=/usr/include/finclude/math-vector-fortran.h
REM seed -317697109 -749642552 -1070769550 -1823087246 263044210 -581088315 -1661853913 715964652 615693876 202501922 -1544235803 -302203747 999318104 1713550777 -1105492531 2001839102 -437710032 -286870484 -1073613626 147982634 -1520673465 1042969167 -1047289858 -748464982 -1911408839 -1985975396 200552937 1607088082 1443289513 -456153368 -1428879621 1192007750 360419407
REM
CELL 1.54180   50.00000   50.00000   50.00000   90.00000   90.00000   90.00000
LATT -1
SFAC C  
C      1  0.5699180000000  0.5107330000000  0.5336030000000 1.0
C      1  0.5581760000000  0.4450260000000  0.5398210000000 1.0
C      1  0.5045970000000  0.5074690000000  0.5170910000000 1.0
C      1  0.5415610000000  0.4978580000000  0.4487340000000 1.0
C      1  0.4733980000000  0.5098150000000  0.5043020000000 1.0
C      1  0.5209880000000  0.5071510000000  0.5662830000000 1.0
C      1  0.5154020000000  0.4321100000000  0.4808070000000 1.0
C      1  0.5361180000000  0.4539100000000  0.4302990000000 1.0
C      1  0.4398640000000  0.5603490000000  0.5188650000000 1.0
C      1  0.4718640000000  0.5395670000000  0.4527920000000 1.0
C      1  0.5174550000000  0.4862270000000  0.5865000000000 1.0
C      1  0.4704500000000  0.5144660000000  0.4734090000000 1.0
C      1  0.4955210000000  0.4765610000000  0.5053200000000 1.0
C      1  0.5607890000000  0.4809370000000  0.4700270000000 1.0
C      1  0.5364310000000  0.5539400000000  0.5404340000000 1.0
C      1  0.5004880000000  0.5126170000000  0.5477790000000 1.0
C      1  0.4409880000000  0.4823000000000  0.5419860000000 1.0
C      1  0.5330420000000  0.5124200000000  0.4990400000000 1.0
C      1  0.5666020000000  0.5182070000000  0.4569470000000 1.0
C      1  0.5691850000000  0.5479490000000  0.5045150000000 1.0
C      1  0.4996310000000  0.5210680000000  0.4201500000000 1.0
C      1  0.4647750000000  0.4691190000000  0.4956420000000 1.0
C      1  0.4698560000000  0.4981290000000  0.5821740000000 1.0
C      1  0.5654750000000  0.4660320000000  0.5207850000000 1.0
C      1  0.5525230000000  0.5336240000000  0.4807650000000 1.0
C      1  0.4275660000000  0.4583200000000  0.4860410000000 1.0
C      1  0.5327520000000  0.5752700000000  0.4943670000000 1.0
C      1  0.5106340000000  0.5317410000000  0.4820750000000 1.0
C      1  0.4862830000000  0.4170700000000  0.5316170000000 1.0
C      1  0.4287080000000  0.5341830000000  0.5369180000000 1.0
C      1  0.5359090000000  0.4673250000000  0.5476070000000 1.0
C      1  0.5145350000000  0.5044960000000  0.4644870000000 1.0
C      1  0.4549190000000  0.4430650000000  0.5106350000000 1.0
C      1  0.5550090000000  0.4603780000000  0.4455870000000 1.0
C      1  0.5258230000000  0.4644300000000  0.5158570000000 1.0
C      1  0.4716380000000  0.4904280000000  0.5315740000000 1.0
C      1  0.5038220000000  0.5632310000000  0.4886440000000 1.0
C      1  0.4197310000000  0.5393930000000  0.5001550000000 1.0
C      1  0.4920860000000  0.5638940000000  0.4588950000000 1.0
C      1  0.4397370000000  0.5296980000000  0.4740890000000 1.0
C      1  0.4590660000000  0.5679690000000  0.4631950000000 1.0
C      1  0.4720380000000  0.5278900000000  0.4255100000000 1.0
C      1  0.4514990000000  0.5089190000000  0.4244470000000 1.0
C      1  0.5482590000000  0.5295430000000  0.5477350000000 1.0
C      1  0.5798360000000  0.5047080000000  0.4847860000000 1.0
C      1  0.4798780000000  0.4522030000000  0.4594560000000 1.0
C      1  0.4745760000000  0.5255580000000  0.5534710000000 1.0
C      1  0.4836730000000  0.5756930000000  0.5077090000000 1.0
C      1  0.4416110000000  0.5157690000000  0.5113540000000 1.0
C      1  0.4737610000000  0.4365680000000  0.5505970000000 1.0
C      1  0.5789480000000  0.5198320000000  0.5086660000000 1.0
C      1  0.5190840000000  0.4556550000000  0.4662610000000 1.0
C      1  0.5474810000000  0.5233200000000  0.4292040000000 1.0
C      1  0.5162310000000  0.4610180000000  0.5713040000000 1.0
C      1  0.4500060000000  0.4496060000000  0.5383290000000 1.0
C      1  0.5459110000000  0.4200670000000  0.5314900000000 1.0
C      1  0.5097610000000  0.5593350000000  0.5492070000000 1.0
C      1  0.5483610000000  0.4842770000000  0.4998030000000 1.0
C      1  0.5138510000000  0.4792520000000  0.4807370000000 1.0
C      1  0.5228470000000  0.5383290000000  0.4266130000000 1.0
C      1  0.4341280000000  0.4769590000000  0.5105270000000 1.0
C      1  0.5198310000000  0.5577650000000  0.4477850000000 1.0
C      1  0.4798090000000  0.4864700000000  0.4563880000000 1.0
C      1  0.4762450000000  0.4826220000000  0.5608000000000 1.0
C      1  0.5272590000000  0.4343000000000  0.5077630000000 1.0
C      1  0.4891270000000  0.4564090000000  0.5640510000000 1.0
C      1  0.5488650000000  0.5655560000000  0.5166020000000 1.0
C      1  0.4674210000000  0.5674720000000  0.5276530000000 1.0
C      1  0.4813500000000  0.5539290000000  0.5483420000000 1.0
C      1  0.5471160000000  0.4957500000000  0.5518550000000 1.0
C      1  0.5029050000000  0.4944290000000  0.4346410000000 1.0
C      1  0.5045850000000  0.4614160000000  0.4375260000000 1.0
C      1  0.4735410000000  0.4219830000000  0.5049660000000 1.0
C      1  0.4473250000000  0.5146090000000  0.5510090000000 1.0
C      1  0.4357760000000  0.4972270000000  0.4830310000000 1.0
C      1  0.4870270000000  0.4268910000000  0.4797970000000 1.0
C      1  0.4463840000000  0.4918630000000  0.4510620000000 1.0
C      1  0.4384580000000  0.5622950000000  0.4847880000000 1.0
C      1  0.4492730000000  0.4629310000000  0.4655580000000 1.0
C      1  0.5142720000000  0.4142010000000  0.5302570000000 1.0
C      1  0.5383810000000  0.5589060000000  0.4691060000000 1.0
END
