TITL C-2778432-5617-846 0.00179867006018187 125000 -505.646141951713 0 0 89 (C1) n - 1
REM
REM in /home/nfs/bkarasulu/CARBON/AIRSS/Generating-Clusters/REBO/Only-C1/SD-CG/HFTN-CG
REM
REM
REM
REM
REM
REM ./C.cell (11c1c37f851c82e70ff6c80c92926a4b)
REM
REM compiler GCC version 9.2.1 20190827 (Red Hat 9.2.1-1)
REM options -cpp -mtune=generic -march=x86-64 -g -O0 -fpre-include=/usr/include/finclude/math-vector-fortran.h
REM seed 1186688845 934198686 729997856 -1776059647 1435972753 -1300715882 -1594455590 -1403623442 748483952 1046915850 2091944367 1640831351 -2000994631 950723960 447167929 -560844737 -1490781532 -167227736 -800686297 975410295 -569268129 -1163402539 397074656 -1658904059 -100026149 490291172 1525729762 -2111241018 -1322481671 -2063272458 -455937200 1010503129 689799270
REM
CELL 1.54180   50.00000   50.00000   50.00000   90.00000   90.00000   90.00000
LATT -1
SFAC C  
C      1  0.4886610000000  0.4364720000000  0.5584010000000 1.0
C      1  0.4529230000000  0.5113620000000  0.4769130000000 1.0
C      1  0.5254820000000  0.4731430000000  0.5816790000000 1.0
C      1  0.4343970000000  0.4875430000000  0.5260850000000 1.0
C      1  0.5155670000000  0.4193390000000  0.4885730000000 1.0
C      1  0.4625570000000  0.5855550000000  0.4514930000000 1.0
C      1  0.4856290000000  0.4143030000000  0.4880310000000 1.0
C      1  0.5032230000000  0.5692910000000  0.5517140000000 1.0
C      1  0.5197310000000  0.4484690000000  0.4745930000000 1.0
C      1  0.4713360000000  0.4180990000000  0.5115470000000 1.0
C      1  0.4098790000000  0.4744940000000  0.5137670000000 1.0
C      1  0.4999260000000  0.5772800000000  0.5189470000000 1.0
C      1  0.4970160000000  0.5453500000000  0.5157940000000 1.0
C      1  0.4784740000000  0.5788690000000  0.4308680000000 1.0
C      1  0.4486940000000  0.5152700000000  0.4303950000000 1.0
C      1  0.4991800000000  0.5642180000000  0.4185620000000 1.0
C      1  0.5124500000000  0.4492100000000  0.4454390000000 1.0
C      1  0.4922790000000  0.5531180000000  0.5697450000000 1.0
C      1  0.5700910000000  0.4994140000000  0.4435740000000 1.0
C      1  0.4235860000000  0.5211150000000  0.5067030000000 1.0
C      1  0.5625490000000  0.4522040000000  0.5591140000000 1.0
C      1  0.4913190000000  0.4637400000000  0.5292690000000 1.0
C      1  0.5242270000000  0.5323410000000  0.5207510000000 1.0
C      1  0.4318010000000  0.4627620000000  0.4949930000000 1.0
C      1  0.5732120000000  0.5339100000000  0.5125940000000 1.0
C      1  0.4585550000000  0.5742320000000  0.4795890000000 1.0
C      1  0.4779180000000  0.5890550000000  0.5034110000000 1.0
C      1  0.5434780000000  0.5350310000000  0.4717270000000 1.0
C      1  0.4703480000000  0.4922170000000  0.4547600000000 1.0
C      1  0.4291790000000  0.5050930000000  0.4454210000000 1.0
C      1  0.5824650000000  0.5322430000000  0.4796040000000 1.0
C      1  0.4688770000000  0.5389230000000  0.5284370000000 1.0
C      1  0.4524650000000  0.4718310000000  0.4716620000000 1.0
C      1  0.4915350000000  0.5389190000000  0.4858540000000 1.0
C      1  0.5011970000000  0.4701540000000  0.4910990000000 1.0
C      1  0.5406950000000  0.5253730000000  0.5674090000000 1.0
C      1  0.5802760000000  0.5272200000000  0.4492810000000 1.0
C      1  0.5416340000000  0.5420530000000  0.5463520000000 1.0
C      1  0.5170920000000  0.5107380000000  0.5710640000000 1.0
C      1  0.4186840000000  0.5111080000000  0.4772960000000 1.0
C      1  0.5121100000000  0.4211690000000  0.5485650000000 1.0
C      1  0.5501430000000  0.4774370000000  0.5676120000000 1.0
C      1  0.5515410000000  0.4944290000000  0.5442560000000 1.0
C      1  0.4613960000000  0.4616620000000  0.5121200000000 1.0
C      1  0.4459960000000  0.5436850000000  0.5031640000000 1.0
C      1  0.4771140000000  0.4292600000000  0.4657890000000 1.0
C      1  0.5249960000000  0.4213360000000  0.5186210000000 1.0
C      1  0.5475360000000  0.4298240000000  0.4960750000000 1.0
C      1  0.5678370000000  0.4534160000000  0.5069290000000 1.0
C      1  0.5714750000000  0.5042480000000  0.4958420000000 1.0
C      1  0.5118610000000  0.5258730000000  0.4722470000000 1.0
C      1  0.4910220000000  0.5254160000000  0.5757980000000 1.0
C      1  0.4467950000000  0.5827640000000  0.5104750000000 1.0
C      1  0.4568970000000  0.4949820000000  0.5039730000000 1.0
C      1  0.4765960000000  0.4679670000000  0.5592750000000 1.0
C      1  0.4742370000000  0.5230730000000  0.4250610000000 1.0
C      1  0.5257590000000  0.4819730000000  0.5084690000000 1.0
C      1  0.4461400000000  0.4665720000000  0.5486730000000 1.0
C      1  0.5249460000000  0.5243680000000  0.4292940000000 1.0
C      1  0.4858540000000  0.4770410000000  0.4365880000000 1.0
C      1  0.4998510000000  0.5355920000000  0.4232680000000 1.0
C      1  0.4430620000000  0.5001550000000  0.5552150000000 1.0
C      1  0.4809640000000  0.4432370000000  0.4361720000000 1.0
C      1  0.5166660000000  0.4772560000000  0.4345300000000 1.0
C      1  0.5327200000000  0.5124530000000  0.4947920000000 1.0
C      1  0.5370710000000  0.4968580000000  0.4428350000000 1.0
C      1  0.5606690000000  0.5581630000000  0.4849600000000 1.0
C      1  0.4630370000000  0.5420570000000  0.4776580000000 1.0
C      1  0.4619630000000  0.4383210000000  0.5371830000000 1.0
C      1  0.5018420000000  0.4607830000000  0.5786600000000 1.0
C      1  0.4961170000000  0.4997970000000  0.5456590000000 1.0
C      1  0.4789410000000  0.4579270000000  0.4732480000000 1.0
C      1  0.5803090000000  0.4568630000000  0.5371400000000 1.0
C      1  0.5499140000000  0.4598660000000  0.4798450000000 1.0
C      1  0.4422000000000  0.5598200000000  0.5329510000000 1.0
C      1  0.5553540000000  0.4878890000000  0.4707270000000 1.0
C      1  0.5211250000000  0.4539130000000  0.5276380000000 1.0
C      1  0.4873530000000  0.4918850000000  0.5135420000000 1.0
C      1  0.4217600000000  0.4798610000000  0.4672070000000 1.0
C      1  0.5307660000000  0.5702510000000  0.5316510000000 1.0
C      1  0.5245970000000  0.5030710000000  0.5325760000000 1.0
C      1  0.5193690000000  0.5764410000000  0.4049690000000 1.0
C      1  0.4381660000000  0.5257200000000  0.5373390000000 1.0
C      1  0.4705730000000  0.5050360000000  0.5665700000000 1.0
C      1  0.5395670000000  0.4371830000000  0.5515770000000 1.0
C      1  0.5507990000000  0.5342930000000  0.4411660000000 1.0
C      1  0.4686740000000  0.4316340000000  0.4144670000000 1.0
C      1  0.5562450000000  0.5613980000000  0.5153400000000 1.0
C      1  0.5714900000000  0.4847230000000  0.5197810000000 1.0
END
