TITL C-2778436-5916-142 0.00290469817785858 125000 -798.85270189212 0 0 138 (C1) n - 1
REM
REM in /home/nfs/bkarasulu/CARBON/AIRSS/Generating-Clusters/REBO/Only-C1/SD-CG/HFTN-CG
REM
REM
REM
REM
REM
REM ./C.cell (11c1c37f851c82e70ff6c80c92926a4b)
REM
REM compiler GCC version 9.2.1 20190827 (Red Hat 9.2.1-1)
REM options -cpp -mtune=generic -march=x86-64 -g -O0 -fpre-include=/usr/include/finclude/math-vector-fortran.h
REM seed -1021615806 2037226379 1533504981 160960994 1079477242 -1159884923 570197350 -788652358 -590220697 30873381 -363526745 880348643 -1978288955 -1189277101 -1527637967 1494529222 -112558249 -1476598165 548841315 -1338775000 -766632850 987105585 867844662 1841562608 1129906652 1603234802 -2098901322 -1419971381 1806689948 940015080 1396594064 1134079463 34586930
REM
CELL 1.54180   50.00000   50.00000   50.00000   90.00000   90.00000   90.00000
LATT -1
SFAC C  
C      1  0.4602650000000  0.5877210000000  0.4437860000000 1.0
C      1  0.4581800000000  0.4207130000000  0.4820960000000 1.0
C      1  0.5230320000000  0.5358910000000  0.4097840000000 1.0
C      1  0.4295610000000  0.4723390000000  0.5401300000000 1.0
C      1  0.4924250000000  0.5165860000000  0.4812000000000 1.0
C      1  0.5412890000000  0.5524190000000  0.5095960000000 1.0
C      1  0.5541900000000  0.5764050000000  0.4803180000000 1.0
C      1  0.5084720000000  0.4031880000000  0.4829440000000 1.0
C      1  0.5914040000000  0.5016500000000  0.5206980000000 1.0
C      1  0.5106520000000  0.4436660000000  0.4254660000000 1.0
C      1  0.4698040000000  0.4527010000000  0.4833550000000 1.0
C      1  0.4820610000000  0.5836990000000  0.5245680000000 1.0
C      1  0.4346820000000  0.4898370000000  0.5756250000000 1.0
C      1  0.4741380000000  0.5073290000000  0.4599910000000 1.0
C      1  0.5394460000000  0.5030670000000  0.5375230000000 1.0
C      1  0.5870500000000  0.4524980000000  0.4988990000000 1.0
C      1  0.4704120000000  0.5604540000000  0.4333800000000 1.0
C      1  0.5128480000000  0.4899160000000  0.5285090000000 1.0
C      1  0.5522990000000  0.5252280000000  0.5176870000000 1.0
C      1  0.4582070000000  0.6022960000000  0.4642030000000 1.0
C      1  0.4712280000000  0.5478610000000  0.5106760000000 1.0
C      1  0.5334800000000  0.5993310000000  0.5138470000000 1.0
C      1  0.4276440000000  0.4401070000000  0.5323890000000 1.0
C      1  0.4900780000000  0.5091160000000  0.4305830000000 1.0
C      1  0.4717860000000  0.4733530000000  0.4621790000000 1.0
C      1  0.5377230000000  0.4052800000000  0.4687200000000 1.0
C      1  0.5094660000000  0.4822290000000  0.4699170000000 1.0
C      1  0.5858970000000  0.5388220000000  0.4823740000000 1.0
C      1  0.4716820000000  0.5467850000000  0.5632680000000 1.0
C      1  0.4490020000000  0.5630580000000  0.5000820000000 1.0
C      1  0.4965460000000  0.4145090000000  0.5274430000000 1.0
C      1  0.4477110000000  0.5577650000000  0.4681060000000 1.0
C      1  0.5513310000000  0.4742580000000  0.5113860000000 1.0
C      1  0.4646070000000  0.4867850000000  0.5032600000000 1.0
C      1  0.5263890000000  0.4209940000000  0.5309760000000 1.0
C      1  0.4618730000000  0.4053090000000  0.5106460000000 1.0
C      1  0.4143370000000  0.5295390000000  0.4892520000000 1.0
C      1  0.5019090000000  0.6027980000000  0.5049920000000 1.0
C      1  0.4598190000000  0.4850470000000  0.5851730000000 1.0
C      1  0.5239580000000  0.4491730000000  0.5650940000000 1.0
C      1  0.4963480000000  0.4875160000000  0.4986610000000 1.0
C      1  0.4748500000000  0.4693930000000  0.4054390000000 1.0
C      1  0.4655520000000  0.5091710000000  0.5513700000000 1.0
C      1  0.5054280000000  0.4292130000000  0.5758120000000 1.0
C      1  0.5352770000000  0.5309640000000  0.5534360000000 1.0
C      1  0.4668180000000  0.4173500000000  0.5425730000000 1.0
C      1  0.5744730000000  0.5387300000000  0.4556390000000 1.0
C      1  0.5051040000000  0.4701930000000  0.5512590000000 1.0
C      1  0.4690190000000  0.4428490000000  0.5220530000000 1.0
C      1  0.5895700000000  0.5122490000000  0.4928780000000 1.0
C      1  0.5563330000000  0.5607390000000  0.4510590000000 1.0
C      1  0.5396540000000  0.4691580000000  0.4738690000000 1.0
C      1  0.5195700000000  0.5705660000000  0.5255760000000 1.0
C      1  0.5396400000000  0.4662640000000  0.5883840000000 1.0
C      1  0.5309010000000  0.4537960000000  0.5260380000000 1.0
C      1  0.4859550000000  0.5404490000000  0.5936350000000 1.0
C      1  0.5582590000000  0.4980150000000  0.4182870000000 1.0
C      1  0.5192430000000  0.5681130000000  0.5588120000000 1.0
C      1  0.3933000000000  0.5211800000000  0.4571030000000 1.0
C      1  0.4433110000000  0.4492700000000  0.5053720000000 1.0
C      1  0.5450940000000  0.4361620000000  0.4674680000000 1.0
C      1  0.5506480000000  0.5600360000000  0.5477000000000 1.0
C      1  0.5009310000000  0.5452820000000  0.4743820000000 1.0
C      1  0.5508720000000  0.4382900000000  0.5471110000000 1.0
C      1  0.4897900000000  0.5135880000000  0.5278350000000 1.0
C      1  0.5839180000000  0.4661960000000  0.4700860000000 1.0
C      1  0.4200480000000  0.5429060000000  0.4604720000000 1.0
C      1  0.5059800000000  0.4489910000000  0.4667920000000 1.0
C      1  0.5250490000000  0.5935170000000  0.4817760000000 1.0
C      1  0.5598730000000  0.4800220000000  0.5437820000000 1.0
C      1  0.4312540000000  0.5107850000000  0.5504420000000 1.0
C      1  0.5053230000000  0.4630150000000  0.4051390000000 1.0
C      1  0.4778110000000  0.4622740000000  0.5871680000000 1.0
C      1  0.4481150000000  0.4493220000000  0.5574710000000 1.0
C      1  0.4478440000000  0.5153670000000  0.4205240000000 1.0
C      1  0.5837750000000  0.4939100000000  0.4712800000000 1.0
C      1  0.4830900000000  0.4782720000000  0.4345450000000 1.0
C      1  0.4997460000000  0.5495510000000  0.5139430000000 1.0
C      1  0.5569550000000  0.4428830000000  0.4980240000000 1.0
C      1  0.4391610000000  0.4854850000000  0.4804990000000 1.0
C      1  0.5297030000000  0.4843130000000  0.4056980000000 1.0
C      1  0.5207960000000  0.5107300000000  0.4238930000000 1.0
C      1  0.5641030000000  0.4693440000000  0.5685200000000 1.0
C      1  0.5081110000000  0.5771550000000  0.4626130000000 1.0
C      1  0.5010600000000  0.5555600000000  0.4192420000000 1.0
C      1  0.5332860000000  0.5285800000000  0.4552740000000 1.0
C      1  0.4325960000000  0.4423320000000  0.4738430000000 1.0
C      1  0.5827410000000  0.5187490000000  0.5425790000000 1.0
C      1  0.5414630000000  0.5222520000000  0.5851770000000 1.0
C      1  0.4137760000000  0.4668130000000  0.4888030000000 1.0
C      1  0.4284000000000  0.5614610000000  0.5438270000000 1.0
C      1  0.5577790000000  0.5805750000000  0.5214110000000 1.0
C      1  0.4101770000000  0.4941680000000  0.5294120000000 1.0
C      1  0.5064820000000  0.4741230000000  0.5909050000000 1.0
C      1  0.3899080000000  0.5107590000000  0.4871190000000 1.0
C      1  0.4365200000000  0.5137390000000  0.4964560000000 1.0
C      1  0.4216380000000  0.5159710000000  0.4402070000000 1.0
C      1  0.4759900000000  0.5330100000000  0.4138320000000 1.0
C      1  0.4406250000000  0.4541820000000  0.4462390000000 1.0
C      1  0.4868420000000  0.5710660000000  0.5481880000000 1.0
C      1  0.4584640000000  0.4827470000000  0.5345250000000 1.0
C      1  0.5784760000000  0.5635500000000  0.5003650000000 1.0
C      1  0.5183180000000  0.5473450000000  0.5855380000000 1.0
C      1  0.4493400000000  0.4838210000000  0.4144320000000 1.0
C      1  0.4783830000000  0.5694830000000  0.4743390000000 1.0
C      1  0.4298350000000  0.5717680000000  0.5185080000000 1.0
C      1  0.4781150000000  0.4611840000000  0.5465300000000 1.0
C      1  0.4869690000000  0.4319230000000  0.4366440000000 1.0
C      1  0.4425130000000  0.5412910000000  0.5555130000000 1.0
C      1  0.4886900000000  0.4215280000000  0.4669500000000 1.0
C      1  0.5146990000000  0.5220410000000  0.5053720000000 1.0
C      1  0.4934300000000  0.4384130000000  0.5028790000000 1.0
C      1  0.3980660000000  0.4876200000000  0.5038300000000 1.0
C      1  0.5398720000000  0.4508250000000  0.4386020000000 1.0
C      1  0.5754400000000  0.5462470000000  0.5294850000000 1.0
C      1  0.5307490000000  0.4971060000000  0.5976540000000 1.0
C      1  0.4606490000000  0.4421730000000  0.4318390000000 1.0
C      1  0.5407920000000  0.5012190000000  0.4978850000000 1.0
C      1  0.5230580000000  0.4804070000000  0.4395360000000 1.0
C      1  0.4615230000000  0.5190920000000  0.5130040000000 1.0
C      1  0.5318440000000  0.5506340000000  0.4805750000000 1.0
C      1  0.5681260000000  0.5091210000000  0.4461760000000 1.0
C      1  0.4912090000000  0.3907920000000  0.5054600000000 1.0
C      1  0.5241260000000  0.5587720000000  0.4422780000000 1.0
C      1  0.5697470000000  0.5161880000000  0.5670950000000 1.0
C      1  0.5350270000000  0.4169060000000  0.5006900000000 1.0
C      1  0.5446360000000  0.5009110000000  0.4670570000000 1.0
C      1  0.4568130000000  0.5327940000000  0.4484590000000 1.0
C      1  0.5043730000000  0.4991420000000  0.5676880000000 1.0
C      1  0.4728700000000  0.4317530000000  0.5727960000000 1.0
C      1  0.4375760000000  0.4869040000000  0.4465310000000 1.0
C      1  0.5192170000000  0.4550130000000  0.4973480000000 1.0
C      1  0.5023870000000  0.5319850000000  0.5589640000000 1.0
C      1  0.4771350000000  0.5115630000000  0.5820470000000 1.0
C      1  0.5933510000000  0.4738030000000  0.5230340000000 1.0
C      1  0.4710700000000  0.5959080000000  0.4946510000000 1.0
C      1  0.5725290000000  0.4559760000000  0.4468880000000 1.0
C      1  0.5778240000000  0.4464130000000  0.5317800000000 1.0
END
