TITL C-2778436-5916-815 0.000728129827431187 125000 -812.530441090701 0 0 138 (C1) n - 1
REM
REM in /home/nfs/bkarasulu/CARBON/AIRSS/Generating-Clusters/REBO/Only-C1/SD-CG/HFTN-CG
REM
REM
REM
REM
REM
REM ./C.cell (11c1c37f851c82e70ff6c80c92926a4b)
REM
REM compiler GCC version 9.2.1 20190827 (Red Hat 9.2.1-1)
REM options -cpp -mtune=generic -march=x86-64 -g -O0 -fpre-include=/usr/include/finclude/math-vector-fortran.h
REM seed -638846522 1975834476 1063554231 -1359327496 1506309290 1635748360 391333234 -535603380 -765235733 1512909907 157184910 -1030194050 -282131828 586922830 1947723199 1812172628 826854886 1919904838 70543653 -1213284529 1166564572 -1779053951 -313435640 1404067490 -309424841 819049272 -1703821201 -72556066 -979256128 1862542986 -2026339809 2020082131 36047913
REM
CELL 1.54180   50.00000   50.00000   50.00000   90.00000   90.00000   90.00000
LATT -1
SFAC C  
C      1  0.4102870000000  0.4533750000000  0.4866160000000 1.0
C      1  0.5040330000000  0.5820780000000  0.4682190000000 1.0
C      1  0.4848220000000  0.4718070000000  0.4605400000000 1.0
C      1  0.5784240000000  0.5166460000000  0.4494290000000 1.0
C      1  0.4924910000000  0.5105880000000  0.4652270000000 1.0
C      1  0.5231030000000  0.5691070000000  0.5777690000000 1.0
C      1  0.4441960000000  0.4985740000000  0.5139990000000 1.0
C      1  0.5241490000000  0.5307110000000  0.4254440000000 1.0
C      1  0.5105400000000  0.5925230000000  0.5291630000000 1.0
C      1  0.5476520000000  0.4979130000000  0.4874250000000 1.0
C      1  0.5292590000000  0.5632580000000  0.4347180000000 1.0
C      1  0.4894840000000  0.5787790000000  0.5489130000000 1.0
C      1  0.5066260000000  0.5541140000000  0.5395920000000 1.0
C      1  0.4826270000000  0.3987570000000  0.5090280000000 1.0
C      1  0.4490830000000  0.5358450000000  0.4471240000000 1.0
C      1  0.4116900000000  0.4943190000000  0.5182580000000 1.0
C      1  0.4777200000000  0.5087220000000  0.3920150000000 1.0
C      1  0.5563370000000  0.5841140000000  0.4850090000000 1.0
C      1  0.4532390000000  0.5471610000000  0.5077580000000 1.0
C      1  0.4569150000000  0.4074200000000  0.4997630000000 1.0
C      1  0.5785720000000  0.4882250000000  0.4922930000000 1.0
C      1  0.5560210000000  0.4161390000000  0.5011270000000 1.0
C      1  0.5358320000000  0.5483170000000  0.4646220000000 1.0
C      1  0.5378970000000  0.5193400000000  0.5870530000000 1.0
C      1  0.4988460000000  0.5787200000000  0.4344960000000 1.0
C      1  0.4600090000000  0.4229080000000  0.4725060000000 1.0
C      1  0.5224570000000  0.4748890000000  0.4441910000000 1.0
C      1  0.5386330000000  0.5872490000000  0.5351880000000 1.0
C      1  0.4917750000000  0.4875350000000  0.6017350000000 1.0
C      1  0.4806110000000  0.5379300000000  0.4028480000000 1.0
C      1  0.4765520000000  0.4464690000000  0.5747910000000 1.0
C      1  0.4229640000000  0.4999200000000  0.4241590000000 1.0
C      1  0.4615300000000  0.5743310000000  0.5495290000000 1.0
C      1  0.5129590000000  0.4523240000000  0.5379390000000 1.0
C      1  0.5731330000000  0.4446290000000  0.5040880000000 1.0
C      1  0.5893200000000  0.5023070000000  0.5149810000000 1.0
C      1  0.4741310000000  0.5049060000000  0.4243540000000 1.0
C      1  0.4932000000000  0.4447470000000  0.4753120000000 1.0
C      1  0.5916640000000  0.5302040000000  0.5066890000000 1.0
C      1  0.5173820000000  0.4266720000000  0.4359920000000 1.0
C      1  0.5374640000000  0.5058300000000  0.5371720000000 1.0
C      1  0.5516330000000  0.4682800000000  0.4289050000000 1.0
C      1  0.4476390000000  0.5850350000000  0.4966230000000 1.0
C      1  0.5435750000000  0.5313810000000  0.4934270000000 1.0
C      1  0.5193500000000  0.5058930000000  0.4487100000000 1.0
C      1  0.5610680000000  0.5679250000000  0.4406190000000 1.0
C      1  0.5080910000000  0.4532700000000  0.5691670000000 1.0
C      1  0.4485240000000  0.4692520000000  0.4252930000000 1.0
C      1  0.5195140000000  0.4019200000000  0.5524960000000 1.0
C      1  0.4742200000000  0.5263790000000  0.5537870000000 1.0
C      1  0.4995300000000  0.4882850000000  0.4090320000000 1.0
C      1  0.5442420000000  0.5709560000000  0.5587340000000 1.0
C      1  0.5019960000000  0.5489110000000  0.4601370000000 1.0
C      1  0.5574970000000  0.5487950000000  0.5152450000000 1.0
C      1  0.4484160000000  0.4967060000000  0.4050000000000 1.0
C      1  0.5675930000000  0.4942590000000  0.5607840000000 1.0
C      1  0.4852930000000  0.5315050000000  0.5257000000000 1.0
C      1  0.4592130000000  0.5010680000000  0.4851900000000 1.0
C      1  0.5090840000000  0.4913220000000  0.5442060000000 1.0
C      1  0.4377380000000  0.4201500000000  0.5191890000000 1.0
C      1  0.5076090000000  0.4027580000000  0.4875320000000 1.0
C      1  0.5585230000000  0.4832550000000  0.4586810000000 1.0
C      1  0.5421100000000  0.4073950000000  0.5281130000000 1.0
C      1  0.5180910000000  0.4237040000000  0.5106980000000 1.0
C      1  0.4174710000000  0.5047560000000  0.5498310000000 1.0
C      1  0.4402200000000  0.4471210000000  0.4971130000000 1.0
C      1  0.4456390000000  0.5262770000000  0.5259230000000 1.0
C      1  0.5349760000000  0.4319240000000  0.5487910000000 1.0
C      1  0.5919460000000  0.4894840000000  0.4609620000000 1.0
C      1  0.4894530000000  0.5852170000000  0.5079030000000 1.0
C      1  0.5551400000000  0.5218570000000  0.5618210000000 1.0
C      1  0.4479120000000  0.5826360000000  0.5254270000000 1.0
C      1  0.4922010000000  0.5057200000000  0.5663170000000 1.0
C      1  0.5705180000000  0.4516800000000  0.4510880000000 1.0
C      1  0.5288310000000  0.4763130000000  0.5221090000000 1.0
C      1  0.4756450000000  0.5962490000000  0.4806940000000 1.0
C      1  0.4703470000000  0.4681950000000  0.5975240000000 1.0
C      1  0.5893900000000  0.4598790000000  0.4782840000000 1.0
C      1  0.5742350000000  0.4581740000000  0.5323570000000 1.0
C      1  0.5259640000000  0.5804360000000  0.4885340000000 1.0
C      1  0.5567680000000  0.4507670000000  0.5544840000000 1.0
C      1  0.4235540000000  0.4845010000000  0.5685210000000 1.0
C      1  0.4826340000000  0.5080890000000  0.5090840000000 1.0
C      1  0.4531330000000  0.4777990000000  0.4640920000000 1.0
C      1  0.4783800000000  0.5603920000000  0.5122020000000 1.0
C      1  0.4690600000000  0.5829550000000  0.4504420000000 1.0
C      1  0.5715300000000  0.5658610000000  0.4675270000000 1.0
C      1  0.4735270000000  0.4435990000000  0.4996360000000 1.0
C      1  0.4758260000000  0.5394570000000  0.5912870000000 1.0
C      1  0.5308740000000  0.4901310000000  0.4139870000000 1.0
C      1  0.4086110000000  0.4633930000000  0.5153370000000 1.0
C      1  0.5826720000000  0.5389910000000  0.4750800000000 1.0
C      1  0.5287390000000  0.4519380000000  0.5012410000000 1.0
C      1  0.5383830000000  0.4103750000000  0.4789630000000 1.0
C      1  0.4824620000000  0.4663670000000  0.4277650000000 1.0
C      1  0.5380220000000  0.4190610000000  0.4519590000000 1.0
C      1  0.4331360000000  0.5671810000000  0.4790890000000 1.0
C      1  0.4154250000000  0.4719480000000  0.4329130000000 1.0
C      1  0.4909980000000  0.4142260000000  0.4632470000000 1.0
C      1  0.4893320000000  0.4055280000000  0.5388080000000 1.0
C      1  0.5113770000000  0.5227300000000  0.5839390000000 1.0
C      1  0.4946420000000  0.5457070000000  0.4267420000000 1.0
C      1  0.4899930000000  0.4354400000000  0.5231480000000 1.0
C      1  0.4159140000000  0.5095670000000  0.4881420000000 1.0
C      1  0.4258070000000  0.4457090000000  0.5339440000000 1.0
C      1  0.5493330000000  0.4738370000000  0.5718720000000 1.0
C      1  0.5515820000000  0.4481040000000  0.4777520000000 1.0
C      1  0.5561630000000  0.5792590000000  0.5143020000000 1.0
C      1  0.5030250000000  0.5514990000000  0.5863450000000 1.0
C      1  0.4164320000000  0.5386690000000  0.4700280000000 1.0
C      1  0.4786290000000  0.5139450000000  0.6047850000000 1.0
C      1  0.4559240000000  0.4466880000000  0.4498990000000 1.0
C      1  0.4714210000000  0.5185630000000  0.4489380000000 1.0
C      1  0.4541350000000  0.5485710000000  0.5673140000000 1.0
C      1  0.4480310000000  0.4742950000000  0.5761120000000 1.0
C      1  0.5192450000000  0.5586390000000  0.5093600000000 1.0
C      1  0.4962760000000  0.4213890000000  0.5676460000000 1.0
C      1  0.5333220000000  0.5361840000000  0.5316620000000 1.0
C      1  0.5164190000000  0.5027770000000  0.4884540000000 1.0
C      1  0.5643430000000  0.5496290000000  0.5545660000000 1.0
C      1  0.4767680000000  0.4764330000000  0.5579760000000 1.0
C      1  0.5475950000000  0.5214090000000  0.4557530000000 1.0
C      1  0.4797940000000  0.4775480000000  0.5239800000000 1.0
C      1  0.4432950000000  0.5291530000000  0.4861030000000 1.0
C      1  0.4928950000000  0.4807380000000  0.4923530000000 1.0
C      1  0.5214820000000  0.4585270000000  0.4689030000000 1.0
C      1  0.5824400000000  0.4859560000000  0.5376520000000 1.0
C      1  0.4237150000000  0.4866370000000  0.4690960000000 1.0
C      1  0.4487800000000  0.5632650000000  0.4541220000000 1.0
C      1  0.5853220000000  0.5484900000000  0.5311890000000 1.0
C      1  0.4344650000000  0.5284230000000  0.5517800000000 1.0
C      1  0.4860210000000  0.4355420000000  0.4371820000000 1.0
C      1  0.4489890000000  0.4679530000000  0.5225490000000 1.0
C      1  0.4042450000000  0.4648380000000  0.4597810000000 1.0
C      1  0.5198890000000  0.4768860000000  0.5858420000000 1.0
C      1  0.4224600000000  0.5227030000000  0.4405390000000 1.0
C      1  0.5537270000000  0.5129420000000  0.4251290000000 1.0
C      1  0.5089710000000  0.5350720000000  0.4904350000000 1.0
END
