TITL C-2778430-5657-835 -0.00087447557554224 125000 -174.188129081558 0 0 31 (C1) n - 1
REM
REM in /home/nfs/bkarasulu/CARBON/AIRSS/Generating-Clusters/REBO/Only-C1/SD-CG/HFTN-CG
REM
REM
REM
REM
REM
REM ./C.cell (11c1c37f851c82e70ff6c80c92926a4b)
REM
REM compiler GCC version 9.2.1 20190827 (Red Hat 9.2.1-1)
REM options -cpp -mtune=generic -march=x86-64 -g -O0 -fpre-include=/usr/include/finclude/math-vector-fortran.h
REM seed 740490618 -1876319994 652094657 -1135222661 642174003 574779028 132489987 -273870334 1612626003 1394374503 1838626132 1143755839 -391608939 -80166918 -1348454322 30257405 -479587165 -109425648 -113297116 -1092131890 -1475250721 699076339 1511987580 900009550 -1650914610 -274718931 -1246388478 152708346 -750354707 -1969601751 -1353226822 2018837457 -678832464
REM
CELL 1.54180   50.00000   50.00000   50.00000   90.00000   90.00000   90.00000
LATT -1
SFAC C  
C      1  0.5623800000000  0.4998540000000  0.5162130000000 1.0
C      1  0.4964340000000  0.4427990000000  0.4994590000000 1.0
C      1  0.5479700000000  0.4930240000000  0.4695840000000 1.0
C      1  0.5020300000000  0.4356210000000  0.4727480000000 1.0
C      1  0.4425730000000  0.5222010000000  0.4950920000000 1.0
C      1  0.4857330000000  0.4914370000000  0.5451120000000 1.0
C      1  0.4707130000000  0.4519650000000  0.5065870000000 1.0
C      1  0.5261430000000  0.5324190000000  0.5426500000000 1.0
C      1  0.5477440000000  0.5100490000000  0.5373160000000 1.0
C      1  0.5174450000000  0.4539400000000  0.5153230000000 1.0
C      1  0.5097660000000  0.4711080000000  0.5356200000000 1.0
C      1  0.4392500000000  0.5024840000000  0.5664360000000 1.0
C      1  0.4625080000000  0.5315480000000  0.4708080000000 1.0
C      1  0.4716060000000  0.5379170000000  0.5020160000000 1.0
C      1  0.5550740000000  0.4825670000000  0.4949150000000 1.0
C      1  0.5178500000000  0.5005020000000  0.5488470000000 1.0
C      1  0.5227580000000  0.5489810000000  0.4708600000000 1.0
C      1  0.4905570000000  0.5580500000000  0.5103110000000 1.0
C      1  0.4365680000000  0.5015660000000  0.5134920000000 1.0
C      1  0.5071480000000  0.4483840000000  0.4493530000000 1.0
C      1  0.4913340000000  0.4992870000000  0.4380700000000 1.0
C      1  0.4815840000000  0.5249150000000  0.4517380000000 1.0
C      1  0.5173220000000  0.5532370000000  0.5273540000000 1.0
C      1  0.5255110000000  0.5000130000000  0.4513750000000 1.0
C      1  0.5091680000000  0.4741110000000  0.4397910000000 1.0
C      1  0.4612540000000  0.4783340000000  0.5158540000000 1.0
C      1  0.5120950000000  0.5278400000000  0.4560430000000 1.0
C      1  0.5187920000000  0.5610170000000  0.4956390000000 1.0
C      1  0.5426630000000  0.4582870000000  0.5030800000000 1.0
C      1  0.4527290000000  0.4970160000000  0.5432340000000 1.0
C      1  0.4752980000000  0.5095260000000  0.5150770000000 1.0
END
