TITL C-2778428-5639-564 -0.182309637106394 125000 -504.082844070876 0 0 89 (C1) n - 1
REM
REM in /home/nfs/bkarasulu/CARBON/AIRSS/Generating-Clusters/REBO/Only-C1/SD-CG/HFTN-CG
REM
REM
REM
REM
REM
REM ./C.cell (11c1c37f851c82e70ff6c80c92926a4b)
REM
REM compiler GCC version 9.2.1 20190827 (Red Hat 9.2.1-1)
REM options -cpp -mtune=generic -march=x86-64 -g -O0 -fpre-include=/usr/include/finclude/math-vector-fortran.h
REM seed 830041715 895802105 -971782884 1126160260 1280289666 -1703079950 1023596104 -1211182945 -1737335393 191270996 643677587 98470331 -1139910256 -1762618569 -1245557368 -45014531 1158298218 -1805693312 -646666773 -1950402607 -1189595732 -832499475 -1755038580 -181070985 1342974742 1507303405 1326146744 -1266511884 818695255 -777034490 -186983985 -519457298 737522647
REM
CELL 1.54180   50.00000   50.00000   50.00000   90.00000   90.00000   90.00000
LATT -1
SFAC C  
C      1  0.4267550000000  0.5377220000000  0.5166270000000 1.0
C      1  0.5467210000000  0.5123890000000  0.5665110000000 1.0
C      1  0.5707980000000  0.4972130000000  0.4622870000000 1.0
C      1  0.4589270000000  0.5000310000000  0.4829000000000 1.0
C      1  0.5512450000000  0.5516690000000  0.4751590000000 1.0
C      1  0.4291490000000  0.4445030000000  0.5092480000000 1.0
C      1  0.5519910000000  0.4824070000000  0.5528910000000 1.0
C      1  0.4277690000000  0.5002750000000  0.5735060000000 1.0
C      1  0.4694880000000  0.5225820000000  0.4310070000000 1.0
C      1  0.5119520000000  0.5228710000000  0.5095330000000 1.0
C      1  0.4634070000000  0.4927820000000  0.4247710000000 1.0
C      1  0.5236980000000  0.5339170000000  0.5773470000000 1.0
C      1  0.4965640000000  0.5391330000000  0.4311940000000 1.0
C      1  0.5171870000000  0.5005870000000  0.5563010000000 1.0
C      1  0.4423440000000  0.5457140000000  0.4959640000000 1.0
C      1  0.4814400000000  0.4487090000000  0.4341940000000 1.0
C      1  0.4670540000000  0.4558320000000  0.5048560000000 1.0
C      1  0.4969820000000  0.5728260000000  0.4263310000000 1.0
C      1  0.5069620000000  0.4795780000000  0.5732820000000 1.0
C      1  0.5623030000000  0.5045800000000  0.5213750000000 1.0
C      1  0.4448500000000  0.5345470000000  0.4483350000000 1.0
C      1  0.4674700000000  0.5074750000000  0.5403480000000 1.0
C      1  0.5157410000000  0.5318350000000  0.4573120000000 1.0
C      1  0.4780180000000  0.5731820000000  0.5264660000000 1.0
C      1  0.4837550000000  0.4551190000000  0.5410600000000 1.0
C      1  0.4315370000000  0.5204240000000  0.5520510000000 1.0
C      1  0.5137210000000  0.4866930000000  0.4344790000000 1.0
C      1  0.5252700000000  0.5577120000000  0.4286570000000 1.0
C      1  0.4855650000000  0.4573780000000  0.5808790000000 1.0
C      1  0.5201880000000  0.5408300000000  0.6024100000000 1.0
C      1  0.5516350000000  0.4321430000000  0.5214200000000 1.0
C      1  0.5044010000000  0.4523890000000  0.4916260000000 1.0
C      1  0.4691170000000  0.5584140000000  0.4983590000000 1.0
C      1  0.5087040000000  0.5812050000000  0.5196140000000 1.0
C      1  0.5751910000000  0.4808170000000  0.4919060000000 1.0
C      1  0.4806720000000  0.6149180000000  0.4479540000000 1.0
C      1  0.5564970000000  0.4657740000000  0.4621990000000 1.0
C      1  0.5460310000000  0.5202870000000  0.4660210000000 1.0
C      1  0.5513050000000  0.5402050000000  0.5492580000000 1.0
C      1  0.5322580000000  0.4417780000000  0.5475130000000 1.0
C      1  0.5336820000000  0.4888150000000  0.4733100000000 1.0
C      1  0.4975140000000  0.4022920000000  0.4744080000000 1.0
C      1  0.5162020000000  0.4492710000000  0.5735700000000 1.0
C      1  0.4786620000000  0.5180810000000  0.4618720000000 1.0
C      1  0.4478130000000  0.4840370000000  0.5526880000000 1.0
C      1  0.5264840000000  0.4562340000000  0.4310700000000 1.0
C      1  0.4846030000000  0.4274280000000  0.5127160000000 1.0
C      1  0.4782320000000  0.5548720000000  0.5489200000000 1.0
C      1  0.5115350000000  0.5101500000000  0.4831700000000 1.0
C      1  0.5301740000000  0.5579360000000  0.5322490000000 1.0
C      1  0.5782820000000  0.5363550000000  0.4831940000000 1.0
C      1  0.4576650000000  0.5360980000000  0.5516920000000 1.0
C      1  0.5761300000000  0.4548010000000  0.5143850000000 1.0
C      1  0.4224410000000  0.4652370000000  0.4920990000000 1.0
C      1  0.4595300000000  0.4574330000000  0.5636600000000 1.0
C      1  0.5398590000000  0.5652850000000  0.5011390000000 1.0
C      1  0.5232090000000  0.5897850000000  0.4913700000000 1.0
C      1  0.5462020000000  0.4658190000000  0.5010410000000 1.0
C      1  0.4776160000000  0.4938560000000  0.5107320000000 1.0
C      1  0.5025110000000  0.5515400000000  0.5041370000000 1.0
C      1  0.5311470000000  0.4700880000000  0.5288840000000 1.0
C      1  0.5382500000000  0.4348310000000  0.4898830000000 1.0
C      1  0.5382340000000  0.5683710000000  0.4521330000000 1.0
C      1  0.4813470000000  0.4675950000000  0.4769460000000 1.0
C      1  0.5004950000000  0.4718950000000  0.5192150000000 1.0
C      1  0.5758440000000  0.4802410000000  0.5339570000000 1.0
C      1  0.5188980000000  0.4234630000000  0.5148430000000 1.0
C      1  0.4855210000000  0.4756220000000  0.4227680000000 1.0
C      1  0.4971880000000  0.5162570000000  0.5374680000000 1.0
C      1  0.5779160000000  0.5139940000000  0.4977640000000 1.0
C      1  0.5082580000000  0.5433910000000  0.5527070000000 1.0
C      1  0.4425970000000  0.4747050000000  0.4711350000000 1.0
C      1  0.4521290000000  0.4439730000000  0.5332820000000 1.0
C      1  0.5015250000000  0.4290080000000  0.5424980000000 1.0
C      1  0.4420650000000  0.4820170000000  0.4388810000000 1.0
C      1  0.4255130000000  0.5061410000000  0.5240830000000 1.0
C      1  0.4898800000000  0.5448110000000  0.4750290000000 1.0
C      1  0.4096700000000  0.4863600000000  0.5044740000000 1.0
C      1  0.4421690000000  0.5273210000000  0.4747180000000 1.0
C      1  0.5213080000000  0.5897320000000  0.4632060000000 1.0
C      1  0.4477330000000  0.4807690000000  0.5187290000000 1.0
C      1  0.4982800000000  0.5945080000000  0.4456850000000 1.0
C      1  0.5453290000000  0.4897630000000  0.4404310000000 1.0
C      1  0.5352530000000  0.5098120000000  0.5285340000000 1.0
C      1  0.5080160000000  0.4379640000000  0.4407740000000 1.0
C      1  0.4952810000000  0.4905400000000  0.4624210000000 1.0
C      1  0.4628090000000  0.4517030000000  0.4562170000000 1.0
C      1  0.4811940000000  0.4028640000000  0.4937740000000 1.0
C      1  0.5131390000000  0.4284840000000  0.4689920000000 1.0
END
