TITL C-2778426-5645-545 0.0019913341432833 125000 -658.320925511375 0 0 113 (C1) n - 1
REM
REM in /home/nfs/bkarasulu/CARBON/AIRSS/Generating-Clusters/REBO/Only-C1/SD-CG/HFTN-CG
REM
REM
REM
REM
REM
REM ./C.cell (11c1c37f851c82e70ff6c80c92926a4b)
REM
REM compiler GCC version 9.2.1 20190827 (Red Hat 9.2.1-1)
REM options -cpp -mtune=generic -march=x86-64 -g -O0 -fpre-include=/usr/include/finclude/math-vector-fortran.h
REM seed 803348084 -1906961985 -367792506 -813578487 -1857325525 323449849 -811822306 53919546 -1790376408 -269187721 1125742081 -2141703532 -682741899 -56515615 1097725458 1074013084 -1020142361 -1691729954 -1680814092 -263285466 2147088983 708067379 868352905 1651981902 -719342106 717847269 -1610670633 1730064710 -1272342470 998924531 1090010879 434400592 84154517
REM
CELL 1.54180   50.00000   50.00000   50.00000   90.00000   90.00000   90.00000
LATT -1
SFAC C  
C      1  0.4551270000000  0.4039030000000  0.5222810000000 1.0
C      1  0.5143850000000  0.5213380000000  0.4659640000000 1.0
C      1  0.4235700000000  0.5461400000000  0.5003500000000 1.0
C      1  0.5817530000000  0.4703940000000  0.4674750000000 1.0
C      1  0.4625510000000  0.4740870000000  0.4207020000000 1.0
C      1  0.5405740000000  0.4721850000000  0.4681970000000 1.0
C      1  0.4790230000000  0.5000900000000  0.4173520000000 1.0
C      1  0.5086540000000  0.6083290000000  0.4962720000000 1.0
C      1  0.4397900000000  0.4765680000000  0.5293360000000 1.0
C      1  0.4401050000000  0.4844380000000  0.5857230000000 1.0
C      1  0.5689870000000  0.4650980000000  0.5697170000000 1.0
C      1  0.4094270000000  0.5672420000000  0.5123110000000 1.0
C      1  0.5877460000000  0.5419220000000  0.4700350000000 1.0
C      1  0.3975570000000  0.4510420000000  0.5336610000000 1.0
C      1  0.5499020000000  0.4858480000000  0.5456630000000 1.0
C      1  0.4627790000000  0.4442230000000  0.4736490000000 1.0
C      1  0.4862360000000  0.4569670000000  0.5159410000000 1.0
C      1  0.5646880000000  0.5358640000000  0.5340220000000 1.0
C      1  0.5154120000000  0.4780090000000  0.4984530000000 1.0
C      1  0.5193150000000  0.4485000000000  0.5144430000000 1.0
C      1  0.4551580000000  0.5496850000000  0.5613860000000 1.0
C      1  0.4198450000000  0.5870200000000  0.5294550000000 1.0
C      1  0.5640500000000  0.5662500000000  0.5200100000000 1.0
C      1  0.4831800000000  0.4080110000000  0.5222730000000 1.0
C      1  0.5540850000000  0.5222300000000  0.5615890000000 1.0
C      1  0.5435530000000  0.5822750000000  0.5298980000000 1.0
C      1  0.4466020000000  0.5334540000000  0.6050480000000 1.0
C      1  0.5631240000000  0.4959000000000  0.4266690000000 1.0
C      1  0.4708970000000  0.4794740000000  0.5295360000000 1.0
C      1  0.4971640000000  0.4369950000000  0.4400070000000 1.0
C      1  0.5265080000000  0.5182560000000  0.5685890000000 1.0
C      1  0.5427070000000  0.4525680000000  0.4230410000000 1.0
C      1  0.5573690000000  0.5440690000000  0.4956510000000 1.0
C      1  0.4488980000000  0.5651230000000  0.4464880000000 1.0
C      1  0.5603900000000  0.4690680000000  0.4426350000000 1.0
C      1  0.4854390000000  0.4777360000000  0.5577650000000 1.0
C      1  0.5946610000000  0.5105220000000  0.4938150000000 1.0
C      1  0.4727260000000  0.4269370000000  0.4495680000000 1.0
C      1  0.5314480000000  0.5043030000000  0.4269840000000 1.0
C      1  0.4807580000000  0.5103460000000  0.5207540000000 1.0
C      1  0.4923910000000  0.4424440000000  0.4857330000000 1.0
C      1  0.4913570000000  0.4317620000000  0.5371730000000 1.0
C      1  0.5270830000000  0.4249650000000  0.4949030000000 1.0
C      1  0.4507970000000  0.5499030000000  0.4923010000000 1.0
C      1  0.4163620000000  0.4551040000000  0.4849740000000 1.0
C      1  0.4550140000000  0.5716430000000  0.4733850000000 1.0
C      1  0.5866250000000  0.5104710000000  0.4453800000000 1.0
C      1  0.4283930000000  0.4906840000000  0.5570030000000 1.0
C      1  0.4343890000000  0.5248750000000  0.5560880000000 1.0
C      1  0.5168070000000  0.4499560000000  0.4653560000000 1.0
C      1  0.4499900000000  0.4994120000000  0.4859090000000 1.0
C      1  0.4484200000000  0.5383090000000  0.4381130000000 1.0
C      1  0.4341780000000  0.5141040000000  0.5884490000000 1.0
C      1  0.4352700000000  0.4687880000000  0.4365460000000 1.0
C      1  0.4313590000000  0.5192300000000  0.4498690000000 1.0
C      1  0.4252360000000  0.5073120000000  0.5282570000000 1.0
C      1  0.4377620000000  0.4239660000000  0.5142910000000 1.0
C      1  0.4669340000000  0.5695310000000  0.5447640000000 1.0
C      1  0.5058320000000  0.4968410000000  0.4068850000000 1.0
C      1  0.5044080000000  0.5106850000000  0.5455020000000 1.0
C      1  0.4753660000000  0.5243220000000  0.4368140000000 1.0
C      1  0.5560350000000  0.4933120000000  0.5186700000000 1.0
C      1  0.4166710000000  0.5187670000000  0.5027850000000 1.0
C      1  0.5458840000000  0.4269670000000  0.5529050000000 1.0
C      1  0.4948570000000  0.5779780000000  0.5381440000000 1.0
C      1  0.5204740000000  0.4333330000000  0.5440810000000 1.0
C      1  0.5903600000000  0.5560660000000  0.4936600000000 1.0
C      1  0.5118590000000  0.5034270000000  0.5142740000000 1.0
C      1  0.4490890000000  0.4920790000000  0.4534340000000 1.0
C      1  0.5291990000000  0.4301470000000  0.4398940000000 1.0
C      1  0.5422430000000  0.4191680000000  0.4658310000000 1.0
C      1  0.5692510000000  0.4496120000000  0.5172510000000 1.0
C      1  0.4974420000000  0.4114440000000  0.4971770000000 1.0
C      1  0.4383160000000  0.4360310000000  0.4873580000000 1.0
C      1  0.4951220000000  0.4882480000000  0.5889570000000 1.0
C      1  0.4653140000000  0.5969790000000  0.4819540000000 1.0
C      1  0.5781400000000  0.5152680000000  0.5145980000000 1.0
C      1  0.4176720000000  0.5027750000000  0.4753720000000 1.0
C      1  0.5928020000000  0.4969310000000  0.4688900000000 1.0
C      1  0.5304630000000  0.5394780000000  0.5346140000000 1.0
C      1  0.5490260000000  0.4703550000000  0.4994540000000 1.0
C      1  0.5662740000000  0.4448350000000  0.5470660000000 1.0
C      1  0.4664080000000  0.4763040000000  0.5859630000000 1.0
C      1  0.4671140000000  0.5235360000000  0.4955650000000 1.0
C      1  0.4930200000000  0.6012290000000  0.5199080000000 1.0
C      1  0.5214230000000  0.4986330000000  0.5908700000000 1.0
C      1  0.5221310000000  0.4685200000000  0.4091950000000 1.0
C      1  0.4046540000000  0.6046790000000  0.5433870000000 1.0
C      1  0.4214420000000  0.4536060000000  0.5188440000000 1.0
C      1  0.4691260000000  0.4753220000000  0.4734270000000 1.0
C      1  0.5856730000000  0.4484430000000  0.4874140000000 1.0
C      1  0.4931950000000  0.4635660000000  0.4249140000000 1.0
C      1  0.4991780000000  0.4849620000000  0.4726830000000 1.0
C      1  0.5110690000000  0.4841220000000  0.4441220000000 1.0
C      1  0.4919000000000  0.6061920000000  0.4733510000000 1.0
C      1  0.5207170000000  0.5661600000000  0.5380360000000 1.0
C      1  0.5206120000000  0.5386240000000  0.4443280000000 1.0
C      1  0.5389640000000  0.5198310000000  0.5079500000000 1.0
C      1  0.4596370000000  0.5526520000000  0.5898100000000 1.0
C      1  0.5708960000000  0.4981410000000  0.5687250000000 1.0
C      1  0.5384410000000  0.5046710000000  0.4769200000000 1.0
C      1  0.4833350000000  0.5148720000000  0.4685610000000 1.0
C      1  0.5400840000000  0.4751570000000  0.5820950000000 1.0
C      1  0.4156890000000  0.4732380000000  0.4640030000000 1.0
C      1  0.5781840000000  0.5255970000000  0.4178440000000 1.0
C      1  0.4486280000000  0.5870850000000  0.5303480000000 1.0
C      1  0.5192040000000  0.4813210000000  0.5551650000000 1.0
C      1  0.4982580000000  0.5446620000000  0.4301060000000 1.0
C      1  0.6132020000000  0.4358900000000  0.4879100000000 1.0
C      1  0.4643390000000  0.6017890000000  0.5111400000000 1.0
C      1  0.5597580000000  0.4287970000000  0.4921340000000 1.0
C      1  0.5495640000000  0.5324980000000  0.4339390000000 1.0
C      1  0.5575430000000  0.5299850000000  0.4645750000000 1.0
END
