TITL C-2778423-5760-754 -0.000516271055186928 125000 -390.107388808309 0 0 69 (C1) n - 1
REM
REM in /home/nfs/bkarasulu/CARBON/AIRSS/Generating-Clusters/REBO/Only-C1/SD-CG/HFTN-CG
REM
REM
REM
REM
REM
REM ./C.cell (11c1c37f851c82e70ff6c80c92926a4b)
REM
REM compiler GCC version 9.2.1 20190827 (Red Hat 9.2.1-1)
REM options -cpp -mtune=generic -march=x86-64 -g -O0 -fpre-include=/usr/include/finclude/math-vector-fortran.h
REM seed -1057619617 -1463732500 853702267 -1488533261 -1707159552 253613544 1186074648 145758895 1729782610 -1026472548 1604482126 921701684 -1512881793 -1622181081 288686111 677940710 206001435 -1786688731 860867026 -1067831942 -1571139170 1591876452 531490042 406398528 -1049020259 -1548987419 -224132091 -861143455 398960559 -1217373868 1648140107 -1276157156 738666281
REM
CELL 1.54180   50.00000   50.00000   50.00000   90.00000   90.00000   90.00000
LATT -1
SFAC C  
C      1  0.5005440000000  0.5196280000000  0.5157030000000 1.0
C      1  0.4997260000000  0.5288210000000  0.4414400000000 1.0
C      1  0.5284350000000  0.5010820000000  0.5370880000000 1.0
C      1  0.5547610000000  0.5305990000000  0.5409820000000 1.0
C      1  0.4739740000000  0.3931050000000  0.5361740000000 1.0
C      1  0.4389560000000  0.4814350000000  0.4549630000000 1.0
C      1  0.5134210000000  0.5615140000000  0.4585960000000 1.0
C      1  0.5059460000000  0.4459940000000  0.4724250000000 1.0
C      1  0.4813900000000  0.5554660000000  0.4487040000000 1.0
C      1  0.4695020000000  0.4950690000000  0.5102750000000 1.0
C      1  0.5290850000000  0.5493450000000  0.5449090000000 1.0
C      1  0.4891010000000  0.4730160000000  0.4963460000000 1.0
C      1  0.5331750000000  0.4956170000000  0.4293720000000 1.0
C      1  0.4500140000000  0.5461950000000  0.5053380000000 1.0
C      1  0.4685050000000  0.5786690000000  0.4691290000000 1.0
C      1  0.4892470000000  0.5431780000000  0.4982490000000 1.0
C      1  0.5274600000000  0.5124100000000  0.4987520000000 1.0
C      1  0.4566930000000  0.4993350000000  0.4416630000000 1.0
C      1  0.4733030000000  0.5164240000000  0.4860400000000 1.0
C      1  0.5480920000000  0.5611120000000  0.5007730000000 1.0
C      1  0.5630550000000  0.4662130000000  0.4681090000000 1.0
C      1  0.5405930000000  0.4633000000000  0.5365500000000 1.0
C      1  0.4929260000000  0.5746990000000  0.5225150000000 1.0
C      1  0.4699950000000  0.4638270000000  0.5609190000000 1.0
C      1  0.4819160000000  0.5559830000000  0.5414910000000 1.0
C      1  0.5580530000000  0.4753130000000  0.5160450000000 1.0
C      1  0.5125040000000  0.5240780000000  0.4720970000000 1.0
C      1  0.5357570000000  0.5396630000000  0.4545260000000 1.0
C      1  0.4794950000000  0.5758000000000  0.4964520000000 1.0
C      1  0.4764200000000  0.4180420000000  0.5248390000000 1.0
C      1  0.5630010000000  0.4301870000000  0.4994770000000 1.0
C      1  0.5141680000000  0.5153890000000  0.4227930000000 1.0
C      1  0.5550900000000  0.5202450000000  0.4518300000000 1.0
C      1  0.5398640000000  0.4833580000000  0.5608720000000 1.0
C      1  0.5480270000000  0.4525170000000  0.4460910000000 1.0
C      1  0.5566930000000  0.5087600000000  0.5642510000000 1.0
C      1  0.4539400000000  0.4472120000000  0.5399660000000 1.0
C      1  0.4412400000000  0.5150690000000  0.4763350000000 1.0
C      1  0.4584690000000  0.5303800000000  0.4516890000000 1.0
C      1  0.4790990000000  0.5090290000000  0.5368920000000 1.0
C      1  0.4535340000000  0.5524700000000  0.4771490000000 1.0
C      1  0.4628590000000  0.4899980000000  0.5678620000000 1.0
C      1  0.4879420000000  0.4427680000000  0.5408610000000 1.0
C      1  0.4476690000000  0.4613230000000  0.4713350000000 1.0
C      1  0.5040890000000  0.5447250000000  0.5564920000000 1.0
C      1  0.4574430000000  0.5423810000000  0.5334090000000 1.0
C      1  0.4691370000000  0.4518110000000  0.4867390000000 1.0
C      1  0.5529340000000  0.5077030000000  0.5158050000000 1.0
C      1  0.5443410000000  0.4905610000000  0.4616660000000 1.0
C      1  0.4779350000000  0.4855890000000  0.4305960000000 1.0
C      1  0.4911620000000  0.4984500000000  0.4657700000000 1.0
C      1  0.5150320000000  0.4384840000000  0.4972840000000 1.0
C      1  0.5371460000000  0.4204420000000  0.4985210000000 1.0
C      1  0.5261170000000  0.4671650000000  0.4349990000000 1.0
C      1  0.5245210000000  0.5705430000000  0.5214290000000 1.0
C      1  0.4991340000000  0.4688360000000  0.4505510000000 1.0
C      1  0.4508840000000  0.5177520000000  0.5522660000000 1.0
C      1  0.5070360000000  0.4860040000000  0.5205410000000 1.0
C      1  0.5667540000000  0.4581880000000  0.4949430000000 1.0
C      1  0.5159410000000  0.5612920000000  0.4895940000000 1.0
C      1  0.5109960000000  0.4539050000000  0.5244860000000 1.0
C      1  0.5175010000000  0.4857570000000  0.4817430000000 1.0
C      1  0.4403590000000  0.4844680000000  0.5105480000000 1.0
C      1  0.5666990000000  0.5450070000000  0.5137000000000 1.0
C      1  0.4863850000000  0.5112600000000  0.5693100000000 1.0
C      1  0.5033920000000  0.5205270000000  0.5881890000000 1.0
C      1  0.4257910000000  0.4989020000000  0.4912230000000 1.0
C      1  0.4357960000000  0.4602480000000  0.5236190000000 1.0
C      1  0.4698310000000  0.4263630000000  0.4987090000000 1.0
END
