TITL C-2778429-3646-1285 0.00651567418152135 125000 -1068.65276019102 0 0 183 (C1) n - 1
REM
REM in /home/nfs/bkarasulu/CARBON/AIRSS/Generating-Clusters/REBO/Only-C1/SD-CG/HFTN-CG
REM
REM
REM
REM
REM
REM ./C.cell (11c1c37f851c82e70ff6c80c92926a4b)
REM
REM compiler GCC version 9.2.1 20190827 (Red Hat 9.2.1-1)
REM options -cpp -mtune=generic -march=x86-64 -g -O0 -fpre-include=/usr/include/finclude/math-vector-fortran.h
REM seed -973878844 -805461223 -1841898139 -1183361507 -1531604507 -760123889 104377092 -368515177 -796754952 767539492 827469229 977596787 1694002080 1850860483 1514053707 1433909113 -1172163776 549601691 -22882697 -189394812 1277775938 1138189304 -2141141126 -495588531 1505380897 -171213434 -1455205473 830261390 1042613826 -950821414 -544214753 -727614516 70139729
REM
CELL 1.54180   50.00000   50.00000   50.00000   90.00000   90.00000   90.00000
LATT -1
SFAC C  
C      1  0.6002280000000  0.4696980000000  0.4771220000000 1.0
C      1  0.5556910000000  0.5787000000000  0.5707450000000 1.0
C      1  0.5470820000000  0.4632740000000  0.4717560000000 1.0
C      1  0.4725730000000  0.4771300000000  0.6119900000000 1.0
C      1  0.4461550000000  0.4288860000000  0.4262030000000 1.0
C      1  0.4631060000000  0.5514450000000  0.5801060000000 1.0
C      1  0.4976820000000  0.4655490000000  0.5728460000000 1.0
C      1  0.4933810000000  0.4552410000000  0.4192260000000 1.0
C      1  0.5155710000000  0.5589340000000  0.4733450000000 1.0
C      1  0.5367530000000  0.4734670000000  0.3926320000000 1.0
C      1  0.5906860000000  0.4449370000000  0.4584070000000 1.0
C      1  0.5106180000000  0.4759700000000  0.6007280000000 1.0
C      1  0.3911460000000  0.4947510000000  0.5127910000000 1.0
C      1  0.4914790000000  0.4499150000000  0.6090400000000 1.0
C      1  0.4200610000000  0.4722090000000  0.4973770000000 1.0
C      1  0.5324230000000  0.4331690000000  0.5004220000000 1.0
C      1  0.5085520000000  0.5519500000000  0.5949780000000 1.0
C      1  0.6106430000000  0.4551240000000  0.5032700000000 1.0
C      1  0.4414940000000  0.5372380000000  0.4606800000000 1.0
C      1  0.5735030000000  0.4805810000000  0.4590660000000 1.0
C      1  0.5475970000000  0.4008190000000  0.5266400000000 1.0
C      1  0.5154200000000  0.4742590000000  0.4689010000000 1.0
C      1  0.4767220000000  0.5791670000000  0.4508580000000 1.0
C      1  0.4774240000000  0.4061710000000  0.4685060000000 1.0
C      1  0.4037440000000  0.5345910000000  0.4443380000000 1.0
C      1  0.5550810000000  0.5125200000000  0.4211450000000 1.0
C      1  0.4446300000000  0.4783850000000  0.5191230000000 1.0
C      1  0.5896800000000  0.4351040000000  0.5151880000000 1.0
C      1  0.5471010000000  0.5249190000000  0.4973450000000 1.0
C      1  0.5227030000000  0.3972740000000  0.5418100000000 1.0
C      1  0.4352860000000  0.4457190000000  0.5262710000000 1.0
C      1  0.5815930000000  0.5684520000000  0.4884820000000 1.0
C      1  0.5080440000000  0.4685520000000  0.3916110000000 1.0
C      1  0.5427020000000  0.5638390000000  0.4163670000000 1.0
C      1  0.4617370000000  0.6013010000000  0.4963830000000 1.0
C      1  0.5664800000000  0.5585480000000  0.4610950000000 1.0
C      1  0.5812110000000  0.4236940000000  0.4781530000000 1.0
C      1  0.5166010000000  0.5134030000000  0.5650060000000 1.0
C      1  0.4772110000000  0.5453900000000  0.4446800000000 1.0
C      1  0.5538540000000  0.4323380000000  0.4668040000000 1.0
C      1  0.4012200000000  0.4664450000000  0.5254930000000 1.0
C      1  0.5350940000000  0.4574300000000  0.5352300000000 1.0
C      1  0.4318660000000  0.5244540000000  0.5159160000000 1.0
C      1  0.4593020000000  0.4546330000000  0.4543800000000 1.0
C      1  0.4761640000000  0.4805410000000  0.3937700000000 1.0
C      1  0.4865270000000  0.5153180000000  0.4970720000000 1.0
C      1  0.4128920000000  0.5114080000000  0.5309430000000 1.0
C      1  0.5642600000000  0.4548570000000  0.5229650000000 1.0
C      1  0.5130550000000  0.5945010000000  0.5340810000000 1.0
C      1  0.4025280000000  0.4627350000000  0.4552860000000 1.0
C      1  0.4092500000000  0.4209160000000  0.4907500000000 1.0
C      1  0.4289980000000  0.5627700000000  0.5262730000000 1.0
C      1  0.4455420000000  0.4748240000000  0.5937920000000 1.0
C      1  0.5293550000000  0.5972620000000  0.5057590000000 1.0
C      1  0.5436480000000  0.4882210000000  0.5243560000000 1.0
C      1  0.4616090000000  0.5787690000000  0.5424940000000 1.0
C      1  0.5994630000000  0.5218020000000  0.4458400000000 1.0
C      1  0.6083880000000  0.4678230000000  0.5493850000000 1.0
C      1  0.4280340000000  0.4920140000000  0.4189320000000 1.0
C      1  0.5508420000000  0.5221390000000  0.4658270000000 1.0
C      1  0.4975800000000  0.5069280000000  0.3904170000000 1.0
C      1  0.5044930000000  0.5919220000000  0.4535940000000 1.0
C      1  0.4391400000000  0.5592490000000  0.5585680000000 1.0
C      1  0.5318810000000  0.5172630000000  0.6095550000000 1.0
C      1  0.5984260000000  0.4875250000000  0.5681310000000 1.0
C      1  0.5203410000000  0.5866980000000  0.4270580000000 1.0
C      1  0.5602420000000  0.5399310000000  0.5207410000000 1.0
C      1  0.4788390000000  0.4367370000000  0.5343330000000 1.0
C      1  0.4577930000000  0.5049060000000  0.4088190000000 1.0
C      1  0.5441230000000  0.5014120000000  0.3910550000000 1.0
C      1  0.5445180000000  0.5553100000000  0.4869390000000 1.0
C      1  0.4534880000000  0.4212600000000  0.4575120000000 1.0
C      1  0.4182190000000  0.5004850000000  0.5572410000000 1.0
C      1  0.4907550000000  0.5694620000000  0.5273840000000 1.0
C      1  0.5078380000000  0.4298680000000  0.4782960000000 1.0
C      1  0.4477800000000  0.4453550000000  0.5833400000000 1.0
C      1  0.6458480000000  0.5736590000000  0.4731760000000 1.0
C      1  0.5106700000000  0.4343880000000  0.5336300000000 1.0
C      1  0.4558670000000  0.5415210000000  0.5270330000000 1.0
C      1  0.5473220000000  0.4148280000000  0.4456280000000 1.0
C      1  0.4770280000000  0.4925420000000  0.4345780000000 1.0
C      1  0.4075760000000  0.4371140000000  0.5116900000000 1.0
C      1  0.4727400000000  0.4282160000000  0.5925220000000 1.0
C      1  0.5436850000000  0.4610660000000  0.4215330000000 1.0
C      1  0.4738340000000  0.5419530000000  0.5030720000000 1.0
C      1  0.5864400000000  0.4453260000000  0.5467520000000 1.0
C      1  0.4430020000000  0.4677060000000  0.4283500000000 1.0
C      1  0.6203490000000  0.5379280000000  0.4506980000000 1.0
C      1  0.5202040000000  0.4460370000000  0.5620850000000 1.0
C      1  0.4491370000000  0.3944600000000  0.5343100000000 1.0
C      1  0.5300680000000  0.4918340000000  0.4271150000000 1.0
C      1  0.6186210000000  0.4744130000000  0.5236360000000 1.0
C      1  0.5113240000000  0.4089070000000  0.5119260000000 1.0
C      1  0.4824370000000  0.4871050000000  0.5516240000000 1.0
C      1  0.4636370000000  0.4523480000000  0.4086270000000 1.0
C      1  0.6118580000000  0.5003890000000  0.5149340000000 1.0
C      1  0.5049060000000  0.5343140000000  0.4316880000000 1.0
C      1  0.4605230000000  0.5243310000000  0.5938690000000 1.0
C      1  0.4321560000000  0.5752460000000  0.4683280000000 1.0
C      1  0.4556910000000  0.5947760000000  0.4690330000000 1.0
C      1  0.4853210000000  0.5187360000000  0.4635400000000 1.0
C      1  0.6051670000000  0.5529140000000  0.4926400000000 1.0
C      1  0.5363720000000  0.5655080000000  0.5900820000000 1.0
C      1  0.5681260000000  0.4558650000000  0.4378640000000 1.0
C      1  0.4589130000000  0.5563550000000  0.4784130000000 1.0
C      1  0.4897300000000  0.5921340000000  0.5020510000000 1.0
C      1  0.3961920000000  0.5223720000000  0.4962930000000 1.0
C      1  0.5871720000000  0.4970300000000  0.4926770000000 1.0
C      1  0.4039210000000  0.5706810000000  0.4843550000000 1.0
C      1  0.5433220000000  0.5805360000000  0.5390910000000 1.0
C      1  0.5599700000000  0.5376960000000  0.5739300000000 1.0
C      1  0.5143130000000  0.4623060000000  0.5001030000000 1.0
C      1  0.4795190000000  0.4026500000000  0.5742590000000 1.0
C      1  0.4838280000000  0.4028360000000  0.4968970000000 1.0
C      1  0.4685500000000  0.4894060000000  0.5055250000000 1.0
C      1  0.4967300000000  0.5310160000000  0.5744650000000 1.0
C      1  0.5394330000000  0.5202510000000  0.5821900000000 1.0
C      1  0.5866630000000  0.5604570000000  0.5272290000000 1.0
C      1  0.4445770000000  0.5916620000000  0.5174050000000 1.0
C      1  0.4476220000000  0.4653570000000  0.4814770000000 1.0
C      1  0.4628200000000  0.4145280000000  0.5158150000000 1.0
C      1  0.4899090000000  0.4664820000000  0.4497640000000 1.0
C      1  0.6013530000000  0.5266720000000  0.5015630000000 1.0
C      1  0.5065540000000  0.4291150000000  0.5865450000000 1.0
C      1  0.4744330000000  0.5415480000000  0.5508900000000 1.0
C      1  0.4810520000000  0.5594180000000  0.4023420000000 1.0
C      1  0.5220200000000  0.4171780000000  0.4340970000000 1.0
C      1  0.5202690000000  0.4404480000000  0.4188500000000 1.0
C      1  0.4054990000000  0.5532490000000  0.5073010000000 1.0
C      1  0.5224290000000  0.5328080000000  0.4556890000000 1.0
C      1  0.5715600000000  0.4471880000000  0.5745410000000 1.0
C      1  0.4273120000000  0.4143010000000  0.4721590000000 1.0
C      1  0.5501620000000  0.5090040000000  0.5438270000000 1.0
C      1  0.5720140000000  0.5083610000000  0.4486560000000 1.0
C      1  0.4499830000000  0.4761430000000  0.5507630000000 1.0
C      1  0.4877740000000  0.5963020000000  0.5554490000000 1.0
C      1  0.5374130000000  0.5694820000000  0.4503560000000 1.0
C      1  0.5090000000000  0.5010120000000  0.6136630000000 1.0
C      1  0.5352000000000  0.5395950000000  0.5415410000000 1.0
C      1  0.5684850000000  0.5001500000000  0.5635110000000 1.0
C      1  0.4641690000000  0.4933530000000  0.4724400000000 1.0
C      1  0.5113370000000  0.5084460000000  0.5345060000000 1.0
C      1  0.4220790000000  0.4468220000000  0.4423680000000 1.0
C      1  0.5194820000000  0.5119630000000  0.5033640000000 1.0
C      1  0.4612660000000  0.5352570000000  0.4158710000000 1.0
C      1  0.5124730000000  0.5981580000000  0.4801620000000 1.0
C      1  0.4274470000000  0.5276750000000  0.4863490000000 1.0
C      1  0.5214730000000  0.5146200000000  0.3788200000000 1.0
C      1  0.5556490000000  0.5776830000000  0.5084590000000 1.0
C      1  0.4403750000000  0.5560320000000  0.4337040000000 1.0
C      1  0.4269410000000  0.5360110000000  0.5731730000000 1.0
C      1  0.4628080000000  0.5746080000000  0.4218070000000 1.0
C      1  0.4064100000000  0.5600280000000  0.4544080000000 1.0
C      1  0.5020810000000  0.5060780000000  0.4214410000000 1.0
C      1  0.5614490000000  0.4197780000000  0.5044330000000 1.0
C      1  0.4312540000000  0.4417210000000  0.5579340000000 1.0
C      1  0.6256550000000  0.5556310000000  0.4721540000000 1.0
C      1  0.4905760000000  0.5645830000000  0.4864550000000 1.0
C      1  0.5620020000000  0.4781660000000  0.4984260000000 1.0
C      1  0.5083950000000  0.4029180000000  0.5647950000000 1.0
C      1  0.4240700000000  0.5216760000000  0.4286220000000 1.0
C      1  0.4591050000000  0.3904560000000  0.5593570000000 1.0
C      1  0.5731300000000  0.4747310000000  0.5841270000000 1.0
C      1  0.4025630000000  0.4906530000000  0.4414880000000 1.0
C      1  0.5205120000000  0.5645810000000  0.5593720000000 1.0
C      1  0.4804640000000  0.5097740000000  0.6170910000000 1.0
C      1  0.4565080000000  0.4444460000000  0.5020810000000 1.0
C      1  0.5152820000000  0.5048240000000  0.4717460000000 1.0
C      1  0.5603900000000  0.5427620000000  0.4319770000000 1.0
C      1  0.4702920000000  0.4503020000000  0.5592980000000 1.0
C      1  0.4160960000000  0.4699210000000  0.5514400000000 1.0
C      1  0.5022370000000  0.5403600000000  0.5338310000000 1.0
C      1  0.4965220000000  0.4826000000000  0.5208760000000 1.0
C      1  0.3959920000000  0.4852660000000  0.4802050000000 1.0
C      1  0.4334550000000  0.5053700000000  0.5848550000000 1.0
C      1  0.5023100000000  0.4133710000000  0.4541050000000 1.0
C      1  0.5731690000000  0.5465610000000  0.5517460000000 1.0
C      1  0.4713110000000  0.4941820000000  0.5818790000000 1.0
C      1  0.5103170000000  0.5581510000000  0.4111720000000 1.0
C      1  0.4899860000000  0.5701690000000  0.5740750000000 1.0
C      1  0.4501450000000  0.5092180000000  0.4474760000000 1.0
C      1  0.3920130000000  0.5139300000000  0.4636190000000 1.0
C      1  0.4880660000000  0.4422220000000  0.5018890000000 1.0
END
