TITL C-2778431-5191-127 -0.000656644905115817 125000 -1119.39367976124 0 0 187 (C1) n - 1
REM
REM in /home/nfs/bkarasulu/CARBON/AIRSS/Generating-Clusters/REBO/Only-C1/SD-CG/HFTN-CG
REM
REM
REM
REM
REM
REM ./C.cell (11c1c37f851c82e70ff6c80c92926a4b)
REM
REM compiler GCC version 9.2.1 20190827 (Red Hat 9.2.1-1)
REM options -cpp -mtune=generic -march=x86-64 -g -O0 -fpre-include=/usr/include/finclude/math-vector-fortran.h
REM seed 1454261530 1862179077 1995701166 109817718 -890707285 111932860 -787624690 -1094448139 -364885771 -55659335 1335063550 -1243724874 -949100943 447762884 -469903956 452747366 1180435022 698004509 -1210763844 -661046647 -1497325494 -1466567197 1783318890 -1051200189 -1790279119 -1848350495 -1999426437 853587324 59899475 1851666120 1669634560 -1560655992 452761757
REM
CELL 1.54180   50.00000   50.00000   50.00000   90.00000   90.00000   90.00000
LATT -1
SFAC C  
C      1  0.4395520000000  0.5340450000000  0.4162110000000 1.0
C      1  0.4685210000000  0.4636310000000  0.4464540000000 1.0
C      1  0.4882740000000  0.5219610000000  0.5498780000000 1.0
C      1  0.5719490000000  0.4796480000000  0.4351420000000 1.0
C      1  0.5419340000000  0.4849240000000  0.4379390000000 1.0
C      1  0.4983590000000  0.4147640000000  0.5203370000000 1.0
C      1  0.4115150000000  0.5214880000000  0.4569980000000 1.0
C      1  0.5552310000000  0.4594310000000  0.5889540000000 1.0
C      1  0.5624930000000  0.5269380000000  0.5398520000000 1.0
C      1  0.5499150000000  0.5099670000000  0.5849240000000 1.0
C      1  0.5036110000000  0.5612550000000  0.6022370000000 1.0
C      1  0.5502470000000  0.4768440000000  0.6178090000000 1.0
C      1  0.3998160000000  0.5295790000000  0.4857870000000 1.0
C      1  0.4949940000000  0.5514750000000  0.5533300000000 1.0
C      1  0.4732260000000  0.4502670000000  0.4718400000000 1.0
C      1  0.5254820000000  0.5294990000000  0.5054240000000 1.0
C      1  0.5173370000000  0.5751750000000  0.5613650000000 1.0
C      1  0.4463720000000  0.5051250000000  0.4310340000000 1.0
C      1  0.4663150000000  0.4220840000000  0.4671850000000 1.0
C      1  0.4460180000000  0.5374920000000  0.4689200000000 1.0
C      1  0.4477410000000  0.5186440000000  0.3888140000000 1.0
C      1  0.4760880000000  0.4906820000000  0.6064140000000 1.0
C      1  0.4824700000000  0.5828990000000  0.4407070000000 1.0
C      1  0.4891690000000  0.3875010000000  0.4927030000000 1.0
C      1  0.5251870000000  0.5685960000000  0.5341380000000 1.0
C      1  0.5356990000000  0.3756980000000  0.5226360000000 1.0
C      1  0.4881760000000  0.4028560000000  0.4693270000000 1.0
C      1  0.5037150000000  0.4239120000000  0.5834300000000 1.0
C      1  0.4027110000000  0.4445650000000  0.4579950000000 1.0
C      1  0.4624360000000  0.5192060000000  0.5299200000000 1.0
C      1  0.5117220000000  0.4952040000000  0.4260010000000 1.0
C      1  0.4968130000000  0.4554970000000  0.3971760000000 1.0
C      1  0.5010730000000  0.4242430000000  0.4076510000000 1.0
C      1  0.4429130000000  0.5336170000000  0.4984730000000 1.0
C      1  0.5645040000000  0.4086860000000  0.5051560000000 1.0
C      1  0.5114300000000  0.6032190000000  0.4734560000000 1.0
C      1  0.5067130000000  0.4735130000000  0.4517280000000 1.0
C      1  0.4885360000000  0.4866270000000  0.4028690000000 1.0
C      1  0.4246950000000  0.4838810000000  0.5857580000000 1.0
C      1  0.4708240000000  0.4775310000000  0.5692550000000 1.0
C      1  0.4412720000000  0.4483650000000  0.4952590000000 1.0
C      1  0.5353380000000  0.6125750000000  0.4927500000000 1.0
C      1  0.5966160000000  0.5442770000000  0.5017270000000 1.0
C      1  0.4327870000000  0.4406570000000  0.5616020000000 1.0
C      1  0.5384770000000  0.4082810000000  0.4498080000000 1.0
C      1  0.5721320000000  0.5813670000000  0.4663820000000 1.0
C      1  0.6074410000000  0.4808730000000  0.4977290000000 1.0
C      1  0.4338000000000  0.4669880000000  0.4675400000000 1.0
C      1  0.4892630000000  0.5007020000000  0.4585990000000 1.0
C      1  0.4552660000000  0.4866350000000  0.3927730000000 1.0
C      1  0.4872540000000  0.5718120000000  0.5113590000000 1.0
C      1  0.4770440000000  0.4287440000000  0.5734770000000 1.0
C      1  0.4024090000000  0.4558790000000  0.5107100000000 1.0
C      1  0.5554640000000  0.3953230000000  0.5295390000000 1.0
C      1  0.5284570000000  0.4404300000000  0.5570510000000 1.0
C      1  0.4273800000000  0.4703440000000  0.4345580000000 1.0
C      1  0.4533640000000  0.4420010000000  0.5824950000000 1.0
C      1  0.4975050000000  0.4833350000000  0.5735050000000 1.0
C      1  0.6028200000000  0.5070470000000  0.4548640000000 1.0
C      1  0.5279410000000  0.4453990000000  0.4077990000000 1.0
C      1  0.4329080000000  0.4656370000000  0.5473260000000 1.0
C      1  0.5366220000000  0.5649630000000  0.4746600000000 1.0
C      1  0.4405190000000  0.5698060000000  0.5519940000000 1.0
C      1  0.5900330000000  0.5610990000000  0.4736400000000 1.0
C      1  0.5234190000000  0.4998610000000  0.5000610000000 1.0
C      1  0.4751200000000  0.5209920000000  0.5907600000000 1.0
C      1  0.4675670000000  0.5736870000000  0.4766400000000 1.0
C      1  0.3962320000000  0.4962660000000  0.4887200000000 1.0
C      1  0.4992320000000  0.5127030000000  0.3863650000000 1.0
C      1  0.4519270000000  0.4716540000000  0.5951670000000 1.0
C      1  0.4693730000000  0.3980340000000  0.5142010000000 1.0
C      1  0.4711440000000  0.5394320000000  0.4565590000000 1.0
C      1  0.4372330000000  0.4483970000000  0.4167570000000 1.0
C      1  0.4152220000000  0.4866200000000  0.5135530000000 1.0
C      1  0.5157880000000  0.4441900000000  0.4770370000000 1.0
C      1  0.4748840000000  0.4264060000000  0.5417000000000 1.0
C      1  0.5593570000000  0.5951450000000  0.4877570000000 1.0
C      1  0.4758430000000  0.5312750000000  0.3831010000000 1.0
C      1  0.5902310000000  0.5282410000000  0.5587260000000 1.0
C      1  0.5166440000000  0.4163610000000  0.4955710000000 1.0
C      1  0.5398180000000  0.4756010000000  0.4060790000000 1.0
C      1  0.4016270000000  0.4787790000000  0.4629920000000 1.0
C      1  0.4942040000000  0.4622260000000  0.4917450000000 1.0
C      1  0.5842070000000  0.4655440000000  0.5119440000000 1.0
C      1  0.5455950000000  0.5345240000000  0.5989380000000 1.0
C      1  0.4610770000000  0.4994810000000  0.4768190000000 1.0
C      1  0.5470870000000  0.5823100000000  0.5965700000000 1.0
C      1  0.4786770000000  0.5534640000000  0.5895870000000 1.0
C      1  0.5239000000000  0.5235920000000  0.3953960000000 1.0
C      1  0.5447700000000  0.4303040000000  0.4998590000000 1.0
C      1  0.5462790000000  0.5450620000000  0.4950960000000 1.0
C      1  0.4749850000000  0.4786800000000  0.5226690000000 1.0
C      1  0.4802800000000  0.5217600000000  0.4912360000000 1.0
C      1  0.5922320000000  0.4980750000000  0.5698610000000 1.0
C      1  0.5860430000000  0.5040560000000  0.4313350000000 1.0
C      1  0.5220010000000  0.4509480000000  0.5888680000000 1.0
C      1  0.5085270000000  0.5258540000000  0.4632500000000 1.0
C      1  0.4410980000000  0.5732730000000  0.4943320000000 1.0
C      1  0.5315610000000  0.4849910000000  0.4705230000000 1.0
C      1  0.5475600000000  0.4291370000000  0.4274840000000 1.0
C      1  0.4120710000000  0.5605640000000  0.5356240000000 1.0
C      1  0.4095840000000  0.4417220000000  0.4867800000000 1.0
C      1  0.5567160000000  0.4878890000000  0.5346880000000 1.0
C      1  0.5682050000000  0.5472950000000  0.5144600000000 1.0
C      1  0.5189960000000  0.5381310000000  0.6097270000000 1.0
C      1  0.5614090000000  0.4436440000000  0.5609090000000 1.0
C      1  0.5606460000000  0.5579760000000  0.5898760000000 1.0
C      1  0.4504490000000  0.4201310000000  0.4415330000000 1.0
C      1  0.5457040000000  0.5803440000000  0.5138390000000 1.0
C      1  0.4216200000000  0.4312440000000  0.4394750000000 1.0
C      1  0.6091200000000  0.4939840000000  0.5248700000000 1.0
C      1  0.6055290000000  0.4818580000000  0.4693560000000 1.0
C      1  0.4257630000000  0.4980590000000  0.4059330000000 1.0
C      1  0.3895520000000  0.5167390000000  0.5156540000000 1.0
C      1  0.5695890000000  0.4756800000000  0.4856660000000 1.0
C      1  0.4716330000000  0.5983480000000  0.4981620000000 1.0
C      1  0.5019520000000  0.5126450000000  0.6107790000000 1.0
C      1  0.5055430000000  0.4739450000000  0.6021560000000 1.0
C      1  0.5024280000000  0.4421580000000  0.4458410000000 1.0
C      1  0.5645030000000  0.5673720000000  0.5394000000000 1.0
C      1  0.4461800000000  0.3937110000000  0.5356600000000 1.0
C      1  0.4627090000000  0.4563620000000  0.3993310000000 1.0
C      1  0.5039420000000  0.4648770000000  0.5235080000000 1.0
C      1  0.5484180000000  0.4128600000000  0.5540330000000 1.0
C      1  0.5742350000000  0.4614130000000  0.5416500000000 1.0
C      1  0.5252920000000  0.6164120000000  0.5196370000000 1.0
C      1  0.5256590000000  0.4858040000000  0.5280370000000 1.0
C      1  0.5431980000000  0.5438880000000  0.4552200000000 1.0
C      1  0.4062440000000  0.4966160000000  0.4339750000000 1.0
C      1  0.4647980000000  0.6225310000000  0.5038420000000 1.0
C      1  0.4924370000000  0.5504390000000  0.4778210000000 1.0
C      1  0.4748300000000  0.4376540000000  0.4253530000000 1.0
C      1  0.5197400000000  0.5811470000000  0.5884510000000 1.0
C      1  0.5592110000000  0.5465010000000  0.4294910000000 1.0
C      1  0.4348920000000  0.5815920000000  0.5224980000000 1.0
C      1  0.3955270000000  0.4717030000000  0.5371680000000 1.0
C      1  0.5999210000000  0.5241880000000  0.5264610000000 1.0
C      1  0.5292480000000  0.5747810000000  0.4328660000000 1.0
C      1  0.5458580000000  0.5066860000000  0.4028000000000 1.0
C      1  0.4006330000000  0.4811600000000  0.5650900000000 1.0
C      1  0.5129810000000  0.5423870000000  0.5259570000000 1.0
C      1  0.4169040000000  0.5513200000000  0.5039100000000 1.0
C      1  0.4362600000000  0.5000070000000  0.4596530000000 1.0
C      1  0.4289510000000  0.5082270000000  0.5670340000000 1.0
C      1  0.5061420000000  0.6075380000000  0.5376350000000 1.0
C      1  0.4573110000000  0.5161600000000  0.5628750000000 1.0
C      1  0.5154300000000  0.5783960000000  0.4967150000000 1.0
C      1  0.4522440000000  0.4278550000000  0.5159410000000 1.0
C      1  0.4653950000000  0.5494240000000  0.4272710000000 1.0
C      1  0.4510080000000  0.5725910000000  0.4476530000000 1.0
C      1  0.4689360000000  0.5699830000000  0.5614520000000 1.0
C      1  0.5086460000000  0.5875390000000  0.4471000000000 1.0
C      1  0.3913260000000  0.5395470000000  0.5402420000000 1.0
C      1  0.4932140000000  0.4950330000000  0.4997700000000 1.0
C      1  0.4278700000000  0.5475830000000  0.4436250000000 1.0
C      1  0.5106310000000  0.4117750000000  0.4544120000000 1.0
C      1  0.5672940000000  0.4350270000000  0.4541090000000 1.0
C      1  0.4580160000000  0.4777920000000  0.5457770000000 1.0
C      1  0.5588420000000  0.5774410000000  0.4406420000000 1.0
C      1  0.4345490000000  0.4190790000000  0.5438160000000 1.0
C      1  0.5620960000000  0.4069510000000  0.4727370000000 1.0
C      1  0.4722510000000  0.4907810000000  0.4325710000000 1.0
C      1  0.5212090000000  0.5511860000000  0.4152300000000 1.0
C      1  0.4418100000000  0.5023050000000  0.5117530000000 1.0
C      1  0.5407470000000  0.5097900000000  0.5559960000000 1.0
C      1  0.4573460000000  0.4765080000000  0.4977280000000 1.0
C      1  0.5212520000000  0.4044690000000  0.5727500000000 1.0
C      1  0.5824290000000  0.4620010000000  0.4576030000000 1.0
C      1  0.5915490000000  0.5276280000000  0.4735760000000 1.0
C      1  0.4715630000000  0.5465060000000  0.5117050000000 1.0
C      1  0.5724390000000  0.5075360000000  0.5141560000000 1.0
C      1  0.5989160000000  0.4806710000000  0.5481640000000 1.0
C      1  0.5164360000000  0.3832710000000  0.5036130000000 1.0
C      1  0.5257200000000  0.4898650000000  0.6195400000000 1.0
C      1  0.5075800000000  0.5246480000000  0.4317710000000 1.0
C      1  0.5491150000000  0.4516760000000  0.4770280000000 1.0
C      1  0.5740760000000  0.5561360000000  0.5644090000000 1.0
C      1  0.4887430000000  0.5431000000000  0.4101240000000 1.0
C      1  0.4870940000000  0.5876530000000  0.5387420000000 1.0
C      1  0.5407940000000  0.5161910000000  0.4681500000000 1.0
C      1  0.5055760000000  0.4404770000000  0.5389790000000 1.0
C      1  0.4024220000000  0.5098190000000  0.5466200000000 1.0
C      1  0.5673470000000  0.5213660000000  0.4172590000000 1.0
C      1  0.5702290000000  0.4898530000000  0.5860950000000 1.0
C      1  0.4914550000000  0.6233550000000  0.4740900000000 1.0
C      1  0.5100460000000  0.5018550000000  0.5532400000000 1.0
C      1  0.5671890000000  0.5080190000000  0.4835260000000 1.0
END
