TITL C-2778434-4341-973 -0.000155346831686547 125000 -702.175952626233 0 0 119 (C1) n - 1
REM
REM in /home/nfs/bkarasulu/CARBON/AIRSS/Generating-Clusters/REBO/Only-C1/SD-CG/HFTN-CG
REM
REM
REM
REM
REM
REM ./C.cell (11c1c37f851c82e70ff6c80c92926a4b)
REM
REM compiler GCC version 9.2.1 20190827 (Red Hat 9.2.1-1)
REM options -cpp -mtune=generic -march=x86-64 -g -O0 -fpre-include=/usr/include/finclude/math-vector-fortran.h
REM seed -905398585 2060455595 1651778750 831485861 -328916497 70056768 1078812749 -295200076 -2114260886 -460121793 -2101043539 -1015642586 1282593028 -1439514236 153947229 1663994788 1541171483 726709511 173114069 -1057662914 930006417 -1373491864 -964300207 1994774267 1025202248 294668147 1426495677 -624469705 346194278 1145973724 -2025156975 322565934 -445994413
REM
CELL 1.54180   50.00000   50.00000   50.00000   90.00000   90.00000   90.00000
LATT -1
SFAC C  
C      1  0.4785640000000  0.4894130000000  0.5115290000000 1.0
C      1  0.5290320000000  0.4750160000000  0.4451370000000 1.0
C      1  0.4335850000000  0.5337870000000  0.5337210000000 1.0
C      1  0.5008710000000  0.4117580000000  0.5385370000000 1.0
C      1  0.5339670000000  0.4901890000000  0.5080530000000 1.0
C      1  0.4401070000000  0.4531940000000  0.5596780000000 1.0
C      1  0.4753580000000  0.4381740000000  0.4620860000000 1.0
C      1  0.5017830000000  0.4465080000000  0.5776790000000 1.0
C      1  0.4627950000000  0.4553420000000  0.4888620000000 1.0
C      1  0.4469980000000  0.5527550000000  0.5563280000000 1.0
C      1  0.4919250000000  0.5753600000000  0.5599360000000 1.0
C      1  0.5013120000000  0.4225270000000  0.4684060000000 1.0
C      1  0.4750010000000  0.4697450000000  0.4539750000000 1.0
C      1  0.5048450000000  0.4959550000000  0.5939960000000 1.0
C      1  0.5603420000000  0.4451740000000  0.5034460000000 1.0
C      1  0.5090150000000  0.4729650000000  0.5125170000000 1.0
C      1  0.4567100000000  0.4968430000000  0.4614740000000 1.0
C      1  0.4332230000000  0.5659620000000  0.4624230000000 1.0
C      1  0.5018520000000  0.5274520000000  0.4352690000000 1.0
C      1  0.5145520000000  0.5861110000000  0.4405370000000 1.0
C      1  0.4785040000000  0.5286370000000  0.5542750000000 1.0
C      1  0.4920840000000  0.4767520000000  0.5591090000000 1.0
C      1  0.4948020000000  0.5953450000000  0.5017340000000 1.0
C      1  0.4512230000000  0.4179910000000  0.4530050000000 1.0
C      1  0.4409080000000  0.4703660000000  0.4340210000000 1.0
C      1  0.5017440000000  0.5375160000000  0.5135720000000 1.0
C      1  0.4300680000000  0.4631640000000  0.4862620000000 1.0
C      1  0.5945290000000  0.5236260000000  0.4567160000000 1.0
C      1  0.5425480000000  0.5852980000000  0.4561020000000 1.0
C      1  0.5335470000000  0.5165190000000  0.5598450000000 1.0
C      1  0.4115420000000  0.4843740000000  0.4728300000000 1.0
C      1  0.4664870000000  0.4644030000000  0.5780560000000 1.0
C      1  0.4898790000000  0.5098950000000  0.4122020000000 1.0
C      1  0.4564740000000  0.5018530000000  0.4941030000000 1.0
C      1  0.5746710000000  0.4984890000000  0.4448560000000 1.0
C      1  0.4989240000000  0.5089450000000  0.5261450000000 1.0
C      1  0.4879710000000  0.4256800000000  0.5610780000000 1.0
C      1  0.5225090000000  0.5038150000000  0.4387480000000 1.0
C      1  0.5507580000000  0.4306490000000  0.5254680000000 1.0
C      1  0.4480350000000  0.5442180000000  0.5075010000000 1.0
C      1  0.5620350000000  0.5405740000000  0.5453850000000 1.0
C      1  0.4070460000000  0.5308860000000  0.4916380000000 1.0
C      1  0.4226060000000  0.5611690000000  0.4924780000000 1.0
C      1  0.5406230000000  0.5469670000000  0.4871550000000 1.0
C      1  0.4698010000000  0.5857350000000  0.5147750000000 1.0
C      1  0.4493830000000  0.5820450000000  0.4949720000000 1.0
C      1  0.5144630000000  0.5617260000000  0.4716790000000 1.0
C      1  0.4219740000000  0.4858180000000  0.5283830000000 1.0
C      1  0.4669970000000  0.4748840000000  0.5395540000000 1.0
C      1  0.4886030000000  0.5164710000000  0.5837510000000 1.0
C      1  0.4969500000000  0.4548170000000  0.4910760000000 1.0
C      1  0.4388310000000  0.5272770000000  0.4799310000000 1.0
C      1  0.5027750000000  0.4232860000000  0.5004260000000 1.0
C      1  0.5343130000000  0.4965680000000  0.5848760000000 1.0
C      1  0.5023100000000  0.4827950000000  0.4088140000000 1.0
C      1  0.5141840000000  0.5949560000000  0.4737130000000 1.0
C      1  0.5384410000000  0.5138260000000  0.5279790000000 1.0
C      1  0.5247660000000  0.4198590000000  0.4553190000000 1.0
C      1  0.5511620000000  0.5393810000000  0.5158400000000 1.0
C      1  0.4310560000000  0.5086800000000  0.5139450000000 1.0
C      1  0.5549300000000  0.4966420000000  0.4169380000000 1.0
C      1  0.5127550000000  0.4667700000000  0.4661780000000 1.0
C      1  0.4394750000000  0.4868860000000  0.5546790000000 1.0
C      1  0.5084160000000  0.4993230000000  0.5499340000000 1.0
C      1  0.5609180000000  0.4746010000000  0.5121980000000 1.0
C      1  0.4940880000000  0.4901710000000  0.4726740000000 1.0
C      1  0.5658640000000  0.4962580000000  0.5714760000000 1.0
C      1  0.5537540000000  0.4611390000000  0.4440870000000 1.0
C      1  0.4750280000000  0.4151420000000  0.5175000000000 1.0
C      1  0.5458290000000  0.5095150000000  0.4564030000000 1.0
C      1  0.4209950000000  0.4616370000000  0.5150170000000 1.0
C      1  0.4383360000000  0.4242470000000  0.4829830000000 1.0
C      1  0.6000110000000  0.5141570000000  0.4889690000000 1.0
C      1  0.5899830000000  0.4988630000000  0.5244530000000 1.0
C      1  0.5160880000000  0.4565640000000  0.5344570000000 1.0
C      1  0.4966720000000  0.5168620000000  0.4661460000000 1.0
C      1  0.4727750000000  0.5386570000000  0.5276510000000 1.0
C      1  0.5674820000000  0.4432280000000  0.4765290000000 1.0
C      1  0.6159250000000  0.5178390000000  0.5155410000000 1.0
C      1  0.5834780000000  0.4861470000000  0.4930590000000 1.0
C      1  0.5768050000000  0.5161570000000  0.5499460000000 1.0
C      1  0.5261640000000  0.4182840000000  0.5233120000000 1.0
C      1  0.5689360000000  0.5202430000000  0.4782620000000 1.0
C      1  0.4674700000000  0.5746430000000  0.5438980000000 1.0
C      1  0.5203620000000  0.5836770000000  0.5113730000000 1.0
C      1  0.5315920000000  0.4830960000000  0.4060780000000 1.0
C      1  0.4693780000000  0.4489850000000  0.5193030000000 1.0
C      1  0.4370100000000  0.4481040000000  0.4574750000000 1.0
C      1  0.4727730000000  0.4727460000000  0.4220780000000 1.0
C      1  0.4580430000000  0.5872660000000  0.4649610000000 1.0
C      1  0.6369370000000  0.5289430000000  0.5255040000000 1.0
C      1  0.3969910000000  0.5051440000000  0.4867730000000 1.0
C      1  0.4690150000000  0.5651390000000  0.4455620000000 1.0
C      1  0.5715140000000  0.4772180000000  0.5437880000000 1.0
C      1  0.5545100000000  0.5598600000000  0.4614040000000 1.0
C      1  0.4310120000000  0.4396130000000  0.5295260000000 1.0
C      1  0.4648570000000  0.4363720000000  0.5497180000000 1.0
C      1  0.5170390000000  0.5629090000000  0.5538590000000 1.0
C      1  0.5183770000000  0.5597390000000  0.5254080000000 1.0
C      1  0.4982920000000  0.5577810000000  0.4419900000000 1.0
C      1  0.4431620000000  0.4203990000000  0.5107670000000 1.0
C      1  0.5783480000000  0.4729570000000  0.4645840000000 1.0
C      1  0.5381050000000  0.5136710000000  0.4880960000000 1.0
C      1  0.5020800000000  0.5367330000000  0.4845950000000 1.0
C      1  0.4469730000000  0.5438240000000  0.4446600000000 1.0
C      1  0.5503210000000  0.4314950000000  0.4537110000000 1.0
C      1  0.4920930000000  0.4701670000000  0.5981830000000 1.0
C      1  0.4619730000000  0.5103760000000  0.4143240000000 1.0
C      1  0.5576530000000  0.5267710000000  0.4223260000000 1.0
C      1  0.5688460000000  0.5413440000000  0.4443740000000 1.0
C      1  0.4169050000000  0.5195840000000  0.4550260000000 1.0
C      1  0.5574900000000  0.4469970000000  0.5509880000000 1.0
C      1  0.5262950000000  0.4515840000000  0.5611710000000 1.0
C      1  0.4596200000000  0.5339920000000  0.5819960000000 1.0
C      1  0.4401980000000  0.5175020000000  0.5609440000000 1.0
C      1  0.5494050000000  0.4681790000000  0.5762660000000 1.0
C      1  0.4212130000000  0.4906810000000  0.4442270000000 1.0
C      1  0.4537840000000  0.5163470000000  0.4406380000000 1.0
C      1  0.5382910000000  0.5473410000000  0.5651250000000 1.0
END
