TITL C-2778437-8639-1429 -0.0050776414684013 125000 -775.592676401282 0 0 134 (C1) n - 1
REM
REM in /home/nfs/bkarasulu/CARBON/AIRSS/Generating-Clusters/REBO/Only-C1/SD-CG/HFTN-CG
REM
REM
REM
REM
REM
REM ./C.cell (11c1c37f851c82e70ff6c80c92926a4b)
REM
REM compiler GCC version 9.2.1 20190827 (Red Hat 9.2.1-1)
REM options -cpp -mtune=generic -march=x86-64 -g -O0 -fpre-include=/usr/include/finclude/math-vector-fortran.h
REM seed -2117459578 -1527580406 1856896866 1042187842 -994487765 1191901959 129119521 -357889588 -186803130 1653306430 1516108989 -1783209042 -319440218 1167417201 -1254534983 1228885506 -1487923479 2048600942 1104930791 876015709 -1863090847 1323198030 -135012183 -1325559011 -416173811 724366402 1125991710 -1628939465 2075493258 -647769906 -783745001 602736840 -1859010943
REM
CELL 1.54180   50.00000   50.00000   50.00000   90.00000   90.00000   90.00000
LATT -1
SFAC C  
C      1  0.4217730000000  0.5093350000000  0.5306330000000 1.0
C      1  0.5260040000000  0.5167830000000  0.4352930000000 1.0
C      1  0.5180770000000  0.5644040000000  0.5712860000000 1.0
C      1  0.5983250000000  0.4912270000000  0.4531920000000 1.0
C      1  0.5770240000000  0.4976460000000  0.5488860000000 1.0
C      1  0.5466680000000  0.5254510000000  0.5173950000000 1.0
C      1  0.5329640000000  0.3905160000000  0.4917970000000 1.0
C      1  0.4091930000000  0.5531280000000  0.5039530000000 1.0
C      1  0.5065150000000  0.4276290000000  0.4679830000000 1.0
C      1  0.5372920000000  0.5187750000000  0.5724900000000 1.0
C      1  0.4688220000000  0.4349140000000  0.5646200000000 1.0
C      1  0.4884230000000  0.4089880000000  0.5148600000000 1.0
C      1  0.5007060000000  0.5535900000000  0.4266930000000 1.0
C      1  0.4157710000000  0.5249520000000  0.4318650000000 1.0
C      1  0.4581840000000  0.5610900000000  0.4747810000000 1.0
C      1  0.4980230000000  0.5068880000000  0.5165960000000 1.0
C      1  0.4647000000000  0.5277010000000  0.5323690000000 1.0
C      1  0.5124580000000  0.4069770000000  0.4906060000000 1.0
C      1  0.5728110000000  0.4858380000000  0.4313310000000 1.0
C      1  0.4558720000000  0.4589370000000  0.5356310000000 1.0
C      1  0.4681140000000  0.5735250000000  0.5565310000000 1.0
C      1  0.4191960000000  0.5894280000000  0.4771780000000 1.0
C      1  0.5141200000000  0.4606320000000  0.5985420000000 1.0
C      1  0.4402680000000  0.4985780000000  0.5039340000000 1.0
C      1  0.5547360000000  0.4901380000000  0.5673920000000 1.0
C      1  0.5188200000000  0.4930940000000  0.4569870000000 1.0
C      1  0.5184580000000  0.4559040000000  0.5550470000000 1.0
C      1  0.5240000000000  0.5312110000000  0.4661870000000 1.0
C      1  0.5140310000000  0.5477280000000  0.5117710000000 1.0
C      1  0.5398780000000  0.5502950000000  0.5583700000000 1.0
C      1  0.6008570000000  0.4714780000000  0.4756050000000 1.0
C      1  0.5416650000000  0.5715660000000  0.4502730000000 1.0
C      1  0.5214650000000  0.4710310000000  0.4169690000000 1.0
C      1  0.4259810000000  0.4616360000000  0.5448890000000 1.0
C      1  0.4761570000000  0.5482740000000  0.4577650000000 1.0
C      1  0.4657250000000  0.4265810000000  0.5313860000000 1.0
C      1  0.4414500000000  0.4749920000000  0.4126000000000 1.0
C      1  0.4738140000000  0.4030570000000  0.4853590000000 1.0
C      1  0.5129410000000  0.4883780000000  0.6047950000000 1.0
C      1  0.5068250000000  0.5548590000000  0.4601520000000 1.0
C      1  0.4507710000000  0.4981060000000  0.5418630000000 1.0
C      1  0.4507600000000  0.5075450000000  0.4396550000000 1.0
C      1  0.4723900000000  0.4320990000000  0.4681360000000 1.0
C      1  0.4513890000000  0.5791230000000  0.5110290000000 1.0
C      1  0.4322760000000  0.4443240000000  0.4952980000000 1.0
C      1  0.4950140000000  0.4534920000000  0.5315950000000 1.0
C      1  0.5133310000000  0.5128380000000  0.5923140000000 1.0
C      1  0.5394600000000  0.5634570000000  0.5267870000000 1.0
C      1  0.4838030000000  0.5197460000000  0.5809850000000 1.0
C      1  0.4675370000000  0.4814370000000  0.4422150000000 1.0
C      1  0.4985930000000  0.5949500000000  0.5216860000000 1.0
C      1  0.4200370000000  0.4971410000000  0.4505500000000 1.0
C      1  0.5214120000000  0.5859850000000  0.5085500000000 1.0
C      1  0.5380800000000  0.4340880000000  0.5152090000000 1.0
C      1  0.5463960000000  0.5324710000000  0.4188650000000 1.0
C      1  0.5429580000000  0.4562320000000  0.4823140000000 1.0
C      1  0.4051420000000  0.4729920000000  0.5297940000000 1.0
C      1  0.5389990000000  0.4322080000000  0.5473190000000 1.0
C      1  0.5244780000000  0.4613010000000  0.5060880000000 1.0
C      1  0.5024760000000  0.4569990000000  0.4834310000000 1.0
C      1  0.4035210000000  0.4830740000000  0.5046610000000 1.0
C      1  0.6098310000000  0.4328110000000  0.5325140000000 1.0
C      1  0.5718110000000  0.5165690000000  0.4196070000000 1.0
C      1  0.4996570000000  0.4275460000000  0.5521880000000 1.0
C      1  0.5827240000000  0.4991100000000  0.5079800000000 1.0
C      1  0.5780070000000  0.5400690000000  0.4418820000000 1.0
C      1  0.4341250000000  0.5707090000000  0.4610460000000 1.0
C      1  0.5692820000000  0.5649220000000  0.4522110000000 1.0
C      1  0.5269300000000  0.4893920000000  0.5196060000000 1.0
C      1  0.4710360000000  0.4898130000000  0.5152270000000 1.0
C      1  0.5850210000000  0.4462140000000  0.5302060000000 1.0
C      1  0.4735640000000  0.5901210000000  0.5317400000000 1.0
C      1  0.4677530000000  0.5500340000000  0.5814670000000 1.0
C      1  0.5660790000000  0.4426940000000  0.5558010000000 1.0
C      1  0.5928320000000  0.5480110000000  0.5343040000000 1.0
C      1  0.4594510000000  0.4370480000000  0.4994740000000 1.0
C      1  0.4456080000000  0.5257220000000  0.4881070000000 1.0
C      1  0.5357340000000  0.4368810000000  0.4510460000000 1.0
C      1  0.4805620000000  0.5360960000000  0.4097980000000 1.0
C      1  0.5979360000000  0.5109540000000  0.4809630000000 1.0
C      1  0.5669140000000  0.4339580000000  0.5048840000000 1.0
C      1  0.4935510000000  0.5537430000000  0.5623070000000 1.0
C      1  0.4306150000000  0.4669300000000  0.4389630000000 1.0
C      1  0.5111680000000  0.4970670000000  0.4160350000000 1.0
C      1  0.4659520000000  0.5315370000000  0.4374490000000 1.0
C      1  0.4713920000000  0.5967430000000  0.4924200000000 1.0
C      1  0.4191650000000  0.5479300000000  0.4471140000000 1.0
C      1  0.4475010000000  0.5515380000000  0.5470350000000 1.0
C      1  0.4806420000000  0.4738860000000  0.5505060000000 1.0
C      1  0.4065200000000  0.5057790000000  0.4795140000000 1.0
C      1  0.4689710000000  0.5485090000000  0.3877810000000 1.0
C      1  0.4462730000000  0.4470440000000  0.4521440000000 1.0
C      1  0.4034600000000  0.5222150000000  0.5093610000000 1.0
C      1  0.4284810000000  0.4732260000000  0.4862950000000 1.0
C      1  0.5728720000000  0.5231030000000  0.5384080000000 1.0
C      1  0.4963800000000  0.4948550000000  0.5613200000000 1.0
C      1  0.4924380000000  0.4464040000000  0.5863200000000 1.0
C      1  0.5265490000000  0.4862700000000  0.5520370000000 1.0
C      1  0.4936860000000  0.5979250000000  0.4821190000000 1.0
C      1  0.5179540000000  0.4115390000000  0.5298960000000 1.0
C      1  0.5741310000000  0.5143520000000  0.4592500000000 1.0
C      1  0.5265060000000  0.5249510000000  0.5420080000000 1.0
C      1  0.4950840000000  0.5296310000000  0.5415040000000 1.0
C      1  0.5471510000000  0.4631700000000  0.4302830000000 1.0
C      1  0.4449120000000  0.5291210000000  0.5809040000000 1.0
C      1  0.4673720000000  0.5067580000000  0.4759820000000 1.0
C      1  0.4554430000000  0.5027020000000  0.5890530000000 1.0
C      1  0.4475880000000  0.4838220000000  0.5699840000000 1.0
C      1  0.4534030000000  0.4819710000000  0.4700020000000 1.0
C      1  0.5734970000000  0.4668020000000  0.4865870000000 1.0
C      1  0.4812840000000  0.4595560000000  0.5049790000000 1.0
C      1  0.4861000000000  0.5053990000000  0.4069490000000 1.0
C      1  0.4581170000000  0.5479260000000  0.5064320000000 1.0
C      1  0.4287890000000  0.5285990000000  0.5555240000000 1.0
C      1  0.5200050000000  0.5806970000000  0.4748620000000 1.0
C      1  0.4750600000000  0.4591350000000  0.4272340000000 1.0
C      1  0.4933010000000  0.5061950000000  0.4702290000000 1.0
C      1  0.5665820000000  0.5528870000000  0.5129450000000 1.0
C      1  0.5920260000000  0.5316970000000  0.5046610000000 1.0
C      1  0.5526720000000  0.4916960000000  0.4974940000000 1.0
C      1  0.5017520000000  0.4518490000000  0.4283330000000 1.0
C      1  0.5209570000000  0.5219360000000  0.4964870000000 1.0
C      1  0.5700130000000  0.4596090000000  0.4532440000000 1.0
C      1  0.5602270000000  0.4612770000000  0.5774990000000 1.0
C      1  0.5164480000000  0.4641590000000  0.4559560000000 1.0
C      1  0.5634340000000  0.4314130000000  0.4711360000000 1.0
C      1  0.5304450000000  0.5567830000000  0.4279850000000 1.0
C      1  0.4432870000000  0.4534660000000  0.5725710000000 1.0
C      1  0.5469950000000  0.5064590000000  0.4704230000000 1.0
C      1  0.4187540000000  0.5371710000000  0.4764150000000 1.0
C      1  0.5880630000000  0.4773320000000  0.5299300000000 1.0
C      1  0.5410780000000  0.4515880000000  0.5962070000000 1.0
C      1  0.4208610000000  0.5793790000000  0.5043870000000 1.0
C      1  0.4633070000000  0.4888340000000  0.4031560000000 1.0
END
