TITL C-2778431-5191-870 -0.014438752494023 125000 -964.905621406011 0 0 167 (C1) n - 1
REM
REM in /home/nfs/bkarasulu/CARBON/AIRSS/Generating-Clusters/REBO/Only-C1/SD-CG/HFTN-CG
REM
REM
REM
REM
REM
REM ./C.cell (11c1c37f851c82e70ff6c80c92926a4b)
REM
REM compiler GCC version 9.2.1 20190827 (Red Hat 9.2.1-1)
REM options -cpp -mtune=generic -march=x86-64 -g -O0 -fpre-include=/usr/include/finclude/math-vector-fortran.h
REM seed 1114150074 965144046 -2035433413 -1856036709 619816755 -1342670405 346574880 1168932477 1867504911 -2146121100 -64210429 -846530103 -553174236 -436539823 1167976576 -1242355602 -802262323 1796648703 1629469259 -1965493258 -867278882 1305858873 -1225899686 1119998680 1100544278 305572155 1083725626 1067348111 -1653513502 723425544 -1144999558 -1791788751 770752482
REM
CELL 1.54180   50.00000   50.00000   50.00000   90.00000   90.00000   90.00000
LATT -1
SFAC C  
C      1  0.5701610000000  0.4736180000000  0.4897620000000 1.0
C      1  0.4919030000000  0.5132100000000  0.5828320000000 1.0
C      1  0.4642760000000  0.4963950000000  0.4261130000000 1.0
C      1  0.5064230000000  0.4218060000000  0.5259290000000 1.0
C      1  0.5440160000000  0.4103090000000  0.5398560000000 1.0
C      1  0.5028120000000  0.5451750000000  0.6008080000000 1.0
C      1  0.4174410000000  0.5082560000000  0.5373730000000 1.0
C      1  0.4512390000000  0.4454920000000  0.4257120000000 1.0
C      1  0.4533580000000  0.5515970000000  0.4255380000000 1.0
C      1  0.4842730000000  0.4687370000000  0.5978850000000 1.0
C      1  0.5450950000000  0.4397920000000  0.4587490000000 1.0
C      1  0.5807600000000  0.5218900000000  0.4302610000000 1.0
C      1  0.4813320000000  0.3994040000000  0.4714640000000 1.0
C      1  0.4580220000000  0.5312740000000  0.4441860000000 1.0
C      1  0.5230020000000  0.4121080000000  0.5604500000000 1.0
C      1  0.5902060000000  0.5472850000000  0.5326530000000 1.0
C      1  0.5030690000000  0.4417920000000  0.4680660000000 1.0
C      1  0.5337320000000  0.5127370000000  0.4764160000000 1.0
C      1  0.5000140000000  0.5601680000000  0.5496040000000 1.0
C      1  0.5160740000000  0.5147160000000  0.6060070000000 1.0
C      1  0.5004430000000  0.5742370000000  0.4291700000000 1.0
C      1  0.4714900000000  0.5362950000000  0.4752970000000 1.0
C      1  0.5696970000000  0.4237800000000  0.5436440000000 1.0
C      1  0.4775860000000  0.5242620000000  0.5539610000000 1.0
C      1  0.5094290000000  0.4895110000000  0.5562800000000 1.0
C      1  0.5585210000000  0.4848110000000  0.4623730000000 1.0
C      1  0.4874870000000  0.5307440000000  0.5256300000000 1.0
C      1  0.5039760000000  0.5579620000000  0.3992850000000 1.0
C      1  0.5565980000000  0.5326100000000  0.3934750000000 1.0
C      1  0.5231440000000  0.4938750000000  0.5108830000000 1.0
C      1  0.5437120000000  0.5140380000000  0.5935470000000 1.0
C      1  0.3951830000000  0.4888760000000  0.5201510000000 1.0
C      1  0.5196130000000  0.5235310000000  0.5260910000000 1.0
C      1  0.5382050000000  0.4846810000000  0.5467350000000 1.0
C      1  0.4169640000000  0.5378510000000  0.5289000000000 1.0
C      1  0.5351670000000  0.4665910000000  0.4581750000000 1.0
C      1  0.4661710000000  0.5041720000000  0.6007720000000 1.0
C      1  0.5000700000000  0.4867870000000  0.6126970000000 1.0
C      1  0.5134260000000  0.4489540000000  0.4976560000000 1.0
C      1  0.4212540000000  0.4935180000000  0.5006100000000 1.0
C      1  0.5752340000000  0.5219490000000  0.5012110000000 1.0
C      1  0.4311720000000  0.5483250000000  0.5700610000000 1.0
C      1  0.4124720000000  0.4832390000000  0.4630200000000 1.0
C      1  0.4733990000000  0.4564150000000  0.4682930000000 1.0
C      1  0.4573130000000  0.3802740000000  0.4333000000000 1.0
C      1  0.4548960000000  0.5066270000000  0.5692100000000 1.0
C      1  0.4630770000000  0.4230790000000  0.5576290000000 1.0
C      1  0.4773370000000  0.6137860000000  0.4788220000000 1.0
C      1  0.5675370000000  0.4608870000000  0.5968940000000 1.0
C      1  0.3939610000000  0.5120450000000  0.4598110000000 1.0
C      1  0.5261170000000  0.4582790000000  0.4074490000000 1.0
C      1  0.4075940000000  0.5710050000000  0.5095070000000 1.0
C      1  0.6047610000000  0.4888670000000  0.5200520000000 1.0
C      1  0.5639240000000  0.4447610000000  0.4932290000000 1.0
C      1  0.5461070000000  0.5802380000000  0.4692130000000 1.0
C      1  0.4770950000000  0.3963210000000  0.4429650000000 1.0
C      1  0.5991480000000  0.5172210000000  0.5210570000000 1.0
C      1  0.5749260000000  0.4274050000000  0.4676660000000 1.0
C      1  0.4146590000000  0.5392170000000  0.4579040000000 1.0
C      1  0.4294000000000  0.5217300000000  0.5633140000000 1.0
C      1  0.5700980000000  0.5494130000000  0.4412820000000 1.0
C      1  0.5643320000000  0.5519380000000  0.5002520000000 1.0
C      1  0.5122890000000  0.4422980000000  0.5692900000000 1.0
C      1  0.5170070000000  0.4773790000000  0.4832940000000 1.0
C      1  0.5953850000000  0.5034550000000  0.4513630000000 1.0
C      1  0.5462090000000  0.4115360000000  0.4776740000000 1.0
C      1  0.5540620000000  0.4992770000000  0.4991850000000 1.0
C      1  0.5918020000000  0.5218520000000  0.4735530000000 1.0
C      1  0.4782010000000  0.4386730000000  0.5241630000000 1.0
C      1  0.4394410000000  0.4505870000000  0.5740080000000 1.0
C      1  0.5518820000000  0.5683750000000  0.4314980000000 1.0
C      1  0.4781240000000  0.4862960000000  0.4532460000000 1.0
C      1  0.4167920000000  0.5023840000000  0.4355290000000 1.0
C      1  0.4232570000000  0.4570580000000  0.4701150000000 1.0
C      1  0.4932540000000  0.4668920000000  0.5669850000000 1.0
C      1  0.4811120000000  0.5507240000000  0.5752270000000 1.0
C      1  0.5021450000000  0.5411030000000  0.4265660000000 1.0
C      1  0.4703950000000  0.5803870000000  0.4326840000000 1.0
C      1  0.4513290000000  0.5755510000000  0.4047190000000 1.0
C      1  0.4524770000000  0.5649640000000  0.5732360000000 1.0
C      1  0.4332900000000  0.5106860000000  0.4645090000000 1.0
C      1  0.4443380000000  0.4317140000000  0.5045720000000 1.0
C      1  0.4436080000000  0.5511220000000  0.5117810000000 1.0
C      1  0.5133690000000  0.5774750000000  0.4773300000000 1.0
C      1  0.5206150000000  0.4153220000000  0.4300550000000 1.0
C      1  0.5542330000000  0.5946930000000  0.5185140000000 1.0
C      1  0.4184510000000  0.4515730000000  0.5469840000000 1.0
C      1  0.5022530000000  0.5873770000000  0.5695210000000 1.0
C      1  0.5167370000000  0.5219350000000  0.5606540000000 1.0
C      1  0.5610270000000  0.4573030000000  0.4267850000000 1.0
C      1  0.4448830000000  0.4705300000000  0.5472940000000 1.0
C      1  0.4354200000000  0.4636700000000  0.4099900000000 1.0
C      1  0.5044350000000  0.5024580000000  0.4669590000000 1.0
C      1  0.4919250000000  0.4169960000000  0.5742170000000 1.0
C      1  0.5140790000000  0.4498500000000  0.5375080000000 1.0
C      1  0.4379770000000  0.4910210000000  0.4176000000000 1.0
C      1  0.4996670000000  0.4721250000000  0.5187570000000 1.0
C      1  0.5277730000000  0.5823820000000  0.4404080000000 1.0
C      1  0.4556580000000  0.5718660000000  0.5340180000000 1.0
C      1  0.4687130000000  0.4552330000000  0.4988780000000 1.0
C      1  0.4894030000000  0.5245470000000  0.4502750000000 1.0
C      1  0.4667130000000  0.6101670000000  0.5335370000000 1.0
C      1  0.5274680000000  0.5373820000000  0.4957460000000 1.0
C      1  0.4540670000000  0.5606230000000  0.4822970000000 1.0
C      1  0.3924430000000  0.5406510000000  0.5056540000000 1.0
C      1  0.5744730000000  0.4982620000000  0.5565810000000 1.0
C      1  0.4210230000000  0.5392390000000  0.4893020000000 1.0
C      1  0.5566340000000  0.5132020000000  0.4513700000000 1.0
C      1  0.5201080000000  0.5591400000000  0.5766750000000 1.0
C      1  0.4714320000000  0.4046260000000  0.5233000000000 1.0
C      1  0.4712210000000  0.4550580000000  0.5497820000000 1.0
C      1  0.5371760000000  0.5586510000000  0.5185360000000 1.0
C      1  0.5394880000000  0.4370920000000  0.5094240000000 1.0
C      1  0.5742360000000  0.5461400000000  0.4695530000000 1.0
C      1  0.4977840000000  0.6013880000000  0.4669890000000 1.0
C      1  0.4903890000000  0.4881970000000  0.4152350000000 1.0
C      1  0.5278640000000  0.5271000000000  0.4396030000000 1.0
C      1  0.5752920000000  0.4457060000000  0.6159990000000 1.0
C      1  0.4468400000000  0.4482280000000  0.4544310000000 1.0
C      1  0.5364780000000  0.4037960000000  0.5079570000000 1.0
C      1  0.5095580000000  0.5742280000000  0.5073850000000 1.0
C      1  0.5560210000000  0.4641140000000  0.5660340000000 1.0
C      1  0.4437450000000  0.5151520000000  0.4943730000000 1.0
C      1  0.5388560000000  0.4342670000000  0.4197830000000 1.0
C      1  0.4479660000000  0.6000740000000  0.4801000000000 1.0
C      1  0.4058140000000  0.4580160000000  0.5206030000000 1.0
C      1  0.4710170000000  0.4855460000000  0.5105900000000 1.0
C      1  0.5167300000000  0.4143010000000  0.4608220000000 1.0
C      1  0.5840660000000  0.4476150000000  0.5429150000000 1.0
C      1  0.5618140000000  0.4916150000000  0.5853190000000 1.0
C      1  0.5183500000000  0.4951660000000  0.4304380000000 1.0
C      1  0.3922570000000  0.5097870000000  0.4931790000000 1.0
C      1  0.4790130000000  0.4392960000000  0.4164680000000 1.0
C      1  0.4436850000000  0.4900570000000  0.5254020000000 1.0
C      1  0.5805470000000  0.4546580000000  0.4480930000000 1.0
C      1  0.5114800000000  0.3939160000000  0.4863840000000 1.0
C      1  0.4537570000000  0.4767950000000  0.5857270000000 1.0
C      1  0.4713830000000  0.5891890000000  0.5586310000000 1.0
C      1  0.5701710000000  0.5320620000000  0.5528660000000 1.0
C      1  0.5501670000000  0.5119000000000  0.5367720000000 1.0
C      1  0.4256360000000  0.5788240000000  0.4892400000000 1.0
C      1  0.5452730000000  0.4845930000000  0.4140010000000 1.0
C      1  0.4740210000000  0.5167120000000  0.5023170000000 1.0
C      1  0.5452040000000  0.4543230000000  0.5363400000000 1.0
C      1  0.4218970000000  0.5704720000000  0.5381050000000 1.0
C      1  0.5269390000000  0.5979940000000  0.5205130000000 1.0
C      1  0.5871440000000  0.5736050000000  0.5108190000000 1.0
C      1  0.4987050000000  0.3938750000000  0.5153140000000 1.0
C      1  0.5657350000000  0.5903200000000  0.4899400000000 1.0
C      1  0.4463930000000  0.5778710000000  0.4551770000000 1.0
C      1  0.4914440000000  0.4146090000000  0.4252870000000 1.0
C      1  0.4199550000000  0.4482820000000  0.4971590000000 1.0
C      1  0.4435580000000  0.4163320000000  0.5328670000000 1.0
C      1  0.5296020000000  0.5504630000000  0.4644200000000 1.0
C      1  0.4695070000000  0.4401000000000  0.5866820000000 1.0
C      1  0.5642570000000  0.5689560000000  0.5363530000000 1.0
C      1  0.5457330000000  0.5172010000000  0.4115980000000 1.0
C      1  0.4217410000000  0.5641340000000  0.4463570000000 1.0
C      1  0.4855400000000  0.5626200000000  0.5225390000000 1.0
C      1  0.4623930000000  0.4130990000000  0.4852930000000 1.0
C      1  0.4635020000000  0.6131060000000  0.5074520000000 1.0
C      1  0.6010340000000  0.4772810000000  0.4933910000000 1.0
C      1  0.5905130000000  0.4757080000000  0.5419430000000 1.0
C      1  0.4973140000000  0.4607220000000  0.4080250000000 1.0
C      1  0.5047910000000  0.4681870000000  0.4465770000000 1.0
C      1  0.5444030000000  0.5378490000000  0.5717270000000 1.0
C      1  0.5973210000000  0.4758220000000  0.4606310000000 1.0
END
