TITL C-2778422-5617-1164 0.00166873541413222 125000 -289.591947823965 0 0 49 (C1) n - 1
REM
REM in /home/nfs/bkarasulu/CARBON/AIRSS/Generating-Clusters/REBO/Only-C1/SD-CG/HFTN-CG
REM
REM
REM
REM
REM
REM ./C.cell (11c1c37f851c82e70ff6c80c92926a4b)
REM
REM compiler GCC version 9.2.1 20190827 (Red Hat 9.2.1-1)
REM options -cpp -mtune=generic -march=x86-64 -g -O0 -fpre-include=/usr/include/finclude/math-vector-fortran.h
REM seed 1155604903 52076366 -347473561 -248328970 -417940776 -358246564 -418057443 -53758909 383296712 1454612101 585935472 1056557381 -1855260366 -1192957761 619330946 719781612 997422095 -959510295 -1083175303 1926600310 138435216 49462886 1915761703 2019430687 2069708956 -801749022 995955157 196870130 -1170869154 852066452 1112842386 -1523735127 2127827063
REM
CELL 1.54180   50.00000   50.00000   50.00000   90.00000   90.00000   90.00000
LATT -1
SFAC C  
C      1  0.5009490000000  0.4888820000000  0.5475930000000 1.0
C      1  0.5224010000000  0.5016400000000  0.5666350000000 1.0
C      1  0.4631300000000  0.4589110000000  0.4600860000000 1.0
C      1  0.5303160000000  0.5690440000000  0.4983320000000 1.0
C      1  0.4538470000000  0.4570780000000  0.5155910000000 1.0
C      1  0.5673860000000  0.5050390000000  0.5070190000000 1.0
C      1  0.4548650000000  0.5302530000000  0.5557190000000 1.0
C      1  0.4464930000000  0.4830190000000  0.4580000000000 1.0
C      1  0.5002820000000  0.5409950000000  0.5425710000000 1.0
C      1  0.4686300000000  0.4477910000000  0.4862330000000 1.0
C      1  0.5673130000000  0.4772000000000  0.4645640000000 1.0
C      1  0.4783080000000  0.5113540000000  0.4368870000000 1.0
C      1  0.5082230000000  0.4935810000000  0.4777030000000 1.0
C      1  0.5296630000000  0.5452730000000  0.5428660000000 1.0
C      1  0.4960930000000  0.5151100000000  0.5260890000000 1.0
C      1  0.5342640000000  0.4679750000000  0.4996790000000 1.0
C      1  0.4632650000000  0.5258410000000  0.4808440000000 1.0
C      1  0.5006620000000  0.4215990000000  0.5120280000000 1.0
C      1  0.4883480000000  0.4249790000000  0.5363890000000 1.0
C      1  0.5445850000000  0.5544230000000  0.5188620000000 1.0
C      1  0.4510860000000  0.4809240000000  0.5405390000000 1.0
C      1  0.4773120000000  0.5692960000000  0.5750170000000 1.0
C      1  0.5603930000000  0.4801870000000  0.4922270000000 1.0
C      1  0.4709770000000  0.4465090000000  0.5412820000000 1.0
C      1  0.4775800000000  0.5479820000000  0.5581290000000 1.0
C      1  0.4517100000000  0.4994870000000  0.4348650000000 1.0
C      1  0.4766930000000  0.4725610000000  0.5558930000000 1.0
C      1  0.5280550000000  0.5272950000000  0.4781640000000 1.0
C      1  0.5188440000000  0.4537740000000  0.4790350000000 1.0
C      1  0.5183880000000  0.4665410000000  0.4502230000000 1.0
C      1  0.4959270000000  0.4793500000000  0.4994760000000 1.0
C      1  0.5280580000000  0.5047950000000  0.4564650000000 1.0
C      1  0.4962670000000  0.4384940000000  0.4894620000000 1.0
C      1  0.5430630000000  0.5072400000000  0.5240750000000 1.0
C      1  0.5662380000000  0.5364060000000  0.5098100000000 1.0
C      1  0.4660990000000  0.4835350000000  0.5036700000000 1.0
C      1  0.5187980000000  0.5116970000000  0.5058360000000 1.0
C      1  0.4887480000000  0.5803890000000  0.4482670000000 1.0
C      1  0.4686320000000  0.5152270000000  0.5121800000000 1.0
C      1  0.5401670000000  0.5182320000000  0.5511480000000 1.0
C      1  0.4504510000000  0.5094100000000  0.5366100000000 1.0
C      1  0.4959180000000  0.5568690000000  0.4598600000000 1.0
C      1  0.5190340000000  0.5540080000000  0.4767910000000 1.0
C      1  0.5462420000000  0.4828950000000  0.4463660000000 1.0
C      1  0.4495260000000  0.4984250000000  0.4816290000000 1.0
C      1  0.4971540000000  0.4896500000000  0.4365050000000 1.0
C      1  0.4860420000000  0.4605120000000  0.4427760000000 1.0
C      1  0.5145790000000  0.4755610000000  0.5222880000000 1.0
C      1  0.4789970000000  0.5327590000000  0.4577230000000 1.0
END
