TITL C-2778429-3646-424 -0.0102176524088277 125000 -203.762408552344 0 0 36 (C1) n - 1
REM
REM in /home/nfs/bkarasulu/CARBON/AIRSS/Generating-Clusters/REBO/Only-C1/SD-CG/HFTN-CG
REM
REM
REM
REM
REM
REM ./C.cell (11c1c37f851c82e70ff6c80c92926a4b)
REM
REM compiler GCC version 9.2.1 20190827 (Red Hat 9.2.1-1)
REM options -cpp -mtune=generic -march=x86-64 -g -O0 -fpre-include=/usr/include/finclude/math-vector-fortran.h
REM seed -694648873 -1473089323 1620026545 585519549 -2025513839 1562764147 1431085426 -1237995714 362355379 513716830 -1138067007 1647404602 -1951187337 -1718772759 -862251717 1047750662 -1850249573 -605170046 -1687334899 -2106549530 -297381936 -1786561440 1108856761 713127730 -23223980 -1360356984 229001344 1378873849 1644711774 -1687021099 -135417653 1409222006 -109826453
REM
CELL 1.54180   50.00000   50.00000   50.00000   90.00000   90.00000   90.00000
LATT -1
SFAC C  
C      1  0.5300580000000  0.4701000000000  0.5026410000000 1.0
C      1  0.4538240000000  0.5244920000000  0.5098430000000 1.0
C      1  0.4768540000000  0.5331500000000  0.4972970000000 1.0
C      1  0.4750600000000  0.5179740000000  0.4473080000000 1.0
C      1  0.4816480000000  0.4520510000000  0.4793280000000 1.0
C      1  0.4997400000000  0.5162950000000  0.4939770000000 1.0
C      1  0.4937130000000  0.5373650000000  0.5410470000000 1.0
C      1  0.4809020000000  0.4581490000000  0.5397000000000 1.0
C      1  0.4973300000000  0.4690960000000  0.5118820000000 1.0
C      1  0.5027290000000  0.5079490000000  0.4638320000000 1.0
C      1  0.5429990000000  0.5302060000000  0.4851500000000 1.0
C      1  0.5148050000000  0.5445330000000  0.5249800000000 1.0
C      1  0.5227900000000  0.5385450000000  0.4658450000000 1.0
C      1  0.5258420000000  0.4984600000000  0.5450550000000 1.0
C      1  0.4910290000000  0.5456130000000  0.4592080000000 1.0
C      1  0.5542750000000  0.5045840000000  0.4786390000000 1.0
C      1  0.4980010000000  0.5258610000000  0.4251420000000 1.0
C      1  0.4748560000000  0.5183020000000  0.5516760000000 1.0
C      1  0.4646070000000  0.4716590000000  0.4956890000000 1.0
C      1  0.5071860000000  0.4995800000000  0.5164560000000 1.0
C      1  0.5390270000000  0.5345450000000  0.5130510000000 1.0
C      1  0.5378400000000  0.4811340000000  0.4776290000000 1.0
C      1  0.4507240000000  0.5046270000000  0.4584210000000 1.0
C      1  0.5166350000000  0.4815700000000  0.4555850000000 1.0
C      1  0.4891750000000  0.4694610000000  0.5662580000000 1.0
C      1  0.4740340000000  0.4310630000000  0.5397860000000 1.0
C      1  0.4575710000000  0.5064450000000  0.5316400000000 1.0
C      1  0.5451440000000  0.4815470000000  0.5239650000000 1.0
C      1  0.5130800000000  0.4901440000000  0.5695400000000 1.0
C      1  0.5267210000000  0.4816100000000  0.4293310000000 1.0
C      1  0.4483570000000  0.4887410000000  0.4773160000000 1.0
C      1  0.4984940000000  0.4573340000000  0.4618500000000 1.0
C      1  0.4833640000000  0.5007500000000  0.5728650000000 1.0
C      1  0.5200790000000  0.5348150000000  0.4339720000000 1.0
C      1  0.4612740000000  0.4788880000000  0.5252640000000 1.0
C      1  0.5502330000000  0.5133610000000  0.5288300000000 1.0
END
