TITL C-2778431-5191-1414 -0.000696901364085563 125000 -567.71833060022 0 0 96 (C1) n - 1
REM
REM in /home/nfs/bkarasulu/CARBON/AIRSS/Generating-Clusters/REBO/Only-C1/SD-CG/HFTN-CG
REM
REM
REM
REM
REM
REM ./C.cell (11c1c37f851c82e70ff6c80c92926a4b)
REM
REM compiler GCC version 9.2.1 20190827 (Red Hat 9.2.1-1)
REM options -cpp -mtune=generic -march=x86-64 -g -O0 -fpre-include=/usr/include/finclude/math-vector-fortran.h
REM seed 476861391 -1806978260 -311110707 -1410780271 -177781269 1074628374 -318082850 -222250935 -1654656743 309869816 2131557442 1321725743 -297168123 -2118153101 575108239 -349461962 -152386187 1538192397 -1714861117 -1458629310 2027621693 259488835 321982503 1383468645 -986860976 -213393092 1795176422 286572814 -1785073761 -1566731997 1245363854 933905253 -35514965
REM
CELL 1.54180   50.00000   50.00000   50.00000   90.00000   90.00000   90.00000
LATT -1
SFAC C  
C      1  0.4845530000000  0.4479160000000  0.5685350000000 1.0
C      1  0.4359860000000  0.5172190000000  0.5679970000000 1.0
C      1  0.4212650000000  0.4711150000000  0.5088240000000 1.0
C      1  0.4643770000000  0.5421220000000  0.5111050000000 1.0
C      1  0.5184230000000  0.4712230000000  0.4466160000000 1.0
C      1  0.4995120000000  0.4903170000000  0.5174090000000 1.0
C      1  0.5314430000000  0.4474850000000  0.5579440000000 1.0
C      1  0.5649350000000  0.4981010000000  0.4570590000000 1.0
C      1  0.4986980000000  0.5053510000000  0.4101470000000 1.0
C      1  0.5288400000000  0.5771960000000  0.4511960000000 1.0
C      1  0.5716240000000  0.4774990000000  0.4738830000000 1.0
C      1  0.5381800000000  0.5555230000000  0.4352410000000 1.0
C      1  0.4171830000000  0.4704480000000  0.4791840000000 1.0
C      1  0.4475190000000  0.5392480000000  0.4695830000000 1.0
C      1  0.4919450000000  0.5644180000000  0.5286080000000 1.0
C      1  0.5601050000000  0.5611830000000  0.4992340000000 1.0
C      1  0.4584720000000  0.5022280000000  0.4591330000000 1.0
C      1  0.4691370000000  0.4661430000000  0.5521610000000 1.0
C      1  0.5340460000000  0.5109580000000  0.4788040000000 1.0
C      1  0.5353660000000  0.5741420000000  0.4836630000000 1.0
C      1  0.5429830000000  0.4973230000000  0.5852260000000 1.0
C      1  0.4749880000000  0.5755820000000  0.4487340000000 1.0
C      1  0.4494060000000  0.5531810000000  0.5399080000000 1.0
C      1  0.5424370000000  0.5008480000000  0.5059880000000 1.0
C      1  0.5536990000000  0.5608190000000  0.5309400000000 1.0
C      1  0.5107630000000  0.4251180000000  0.4769420000000 1.0
C      1  0.4832640000000  0.5366580000000  0.5726980000000 1.0
C      1  0.4269960000000  0.5194770000000  0.4767500000000 1.0
C      1  0.5288990000000  0.4532920000000  0.4710800000000 1.0
C      1  0.4720100000000  0.5561140000000  0.4271770000000 1.0
C      1  0.5614080000000  0.5409150000000  0.5576460000000 1.0
C      1  0.5874900000000  0.4949150000000  0.5289110000000 1.0
C      1  0.5451020000000  0.5220280000000  0.5695210000000 1.0
C      1  0.4497950000000  0.4272430000000  0.5088340000000 1.0
C      1  0.5126990000000  0.4785410000000  0.4883020000000 1.0
C      1  0.4820330000000  0.5756450000000  0.4990710000000 1.0
C      1  0.4812120000000  0.4219030000000  0.5558800000000 1.0
C      1  0.5263730000000  0.4288960000000  0.5313050000000 1.0
C      1  0.4548450000000  0.4264780000000  0.4775960000000 1.0
C      1  0.5300190000000  0.4778730000000  0.5265520000000 1.0
C      1  0.4784380000000  0.4406540000000  0.4285740000000 1.0
C      1  0.4329660000000  0.4965590000000  0.5202190000000 1.0
C      1  0.5832760000000  0.5441870000000  0.5358640000000 1.0
C      1  0.4905920000000  0.4609170000000  0.4604820000000 1.0
C      1  0.4196060000000  0.4945220000000  0.4631600000000 1.0
C      1  0.4899540000000  0.5309740000000  0.5288390000000 1.0
C      1  0.5019320000000  0.5058830000000  0.4711500000000 1.0
C      1  0.5507220000000  0.4711170000000  0.5528260000000 1.0
C      1  0.5194220000000  0.5160990000000  0.5260650000000 1.0
C      1  0.4642360000000  0.5298050000000  0.4442280000000 1.0
C      1  0.5047270000000  0.4230770000000  0.5105140000000 1.0
C      1  0.4704510000000  0.4585920000000  0.5222130000000 1.0
C      1  0.5329330000000  0.4976310000000  0.4472620000000 1.0
C      1  0.5248440000000  0.5718740000000  0.5338530000000 1.0
C      1  0.5451110000000  0.5293960000000  0.4431730000000 1.0
C      1  0.4656600000000  0.5000420000000  0.4890800000000 1.0
C      1  0.5594550000000  0.4519840000000  0.4697080000000 1.0
C      1  0.4813460000000  0.4279140000000  0.4600600000000 1.0
C      1  0.5177600000000  0.5248650000000  0.5568150000000 1.0
C      1  0.4935010000000  0.5123820000000  0.4429240000000 1.0
C      1  0.5013130000000  0.5726840000000  0.4628220000000 1.0
C      1  0.5763460000000  0.4827010000000  0.5522430000000 1.0
C      1  0.4648220000000  0.5653530000000  0.4773680000000 1.0
C      1  0.4773240000000  0.4253610000000  0.5245130000000 1.0
C      1  0.4373860000000  0.4846220000000  0.4385120000000 1.0
C      1  0.4322140000000  0.4470030000000  0.5221700000000 1.0
C      1  0.5705040000000  0.5275830000000  0.4618530000000 1.0
C      1  0.5037110000000  0.5491530000000  0.4785840000000 1.0
C      1  0.4954750000000  0.4504070000000  0.4923540000000 1.0
C      1  0.5973270000000  0.5213030000000  0.5286260000000 1.0
C      1  0.5724770000000  0.4850100000000  0.5047410000000 1.0
C      1  0.4507260000000  0.4561560000000  0.4252210000000 1.0
C      1  0.5430510000000  0.4501650000000  0.5199450000000 1.0
C      1  0.4986840000000  0.4787270000000  0.4019650000000 1.0
C      1  0.4221300000000  0.5205010000000  0.5049490000000 1.0
C      1  0.4394100000000  0.4667720000000  0.5460530000000 1.0
C      1  0.5008590000000  0.4584860000000  0.4219750000000 1.0
C      1  0.5679350000000  0.4530690000000  0.5085970000000 1.0
C      1  0.4687290000000  0.4746250000000  0.4471320000000 1.0
C      1  0.4975310000000  0.5056640000000  0.5755780000000 1.0
C      1  0.5060970000000  0.5548980000000  0.5568950000000 1.0
C      1  0.5323040000000  0.5406640000000  0.4795230000000 1.0
C      1  0.5108370000000  0.4572630000000  0.5756670000000 1.0
C      1  0.4288330000000  0.4950520000000  0.5523770000000 1.0
C      1  0.4834530000000  0.5279300000000  0.4895560000000 1.0
C      1  0.5751020000000  0.5446750000000  0.4836550000000 1.0
C      1  0.4321130000000  0.5443740000000  0.5153950000000 1.0
C      1  0.4434230000000  0.4543120000000  0.4802180000000 1.0
C      1  0.4609410000000  0.4692140000000  0.4976550000000 1.0
C      1  0.5164740000000  0.4841080000000  0.5848890000000 1.0
C      1  0.5741260000000  0.4320550000000  0.4872600000000 1.0
C      1  0.4764840000000  0.5109330000000  0.5507290000000 1.0
C      1  0.4669650000000  0.4987570000000  0.5232620000000 1.0
C      1  0.4928510000000  0.5358970000000  0.4174660000000 1.0
C      1  0.4527280000000  0.5399740000000  0.5643120000000 1.0
C      1  0.5143510000000  0.5833940000000  0.5035470000000 1.0
END
