TITL C-2778427-5640-890 -0.00367299732107308 125000 -1125.75956704491 0 0 192 (C1) n - 1
REM
REM in /home/nfs/bkarasulu/CARBON/AIRSS/Generating-Clusters/REBO/Only-C1/SD-CG/HFTN-CG
REM
REM
REM
REM
REM
REM ./C.cell (11c1c37f851c82e70ff6c80c92926a4b)
REM
REM compiler GCC version 9.2.1 20190827 (Red Hat 9.2.1-1)
REM options -cpp -mtune=generic -march=x86-64 -g -O0 -fpre-include=/usr/include/finclude/math-vector-fortran.h
REM seed 693181090 -2106655928 1725745924 910752673 2132046248 -279919106 2140055624 1589744862 -1582134295 2146304862 -2131244628 1144536186 -964145773 -1134268880 -1427144865 -347444260 140326351 1652750545 1727209231 791502464 -964477017 -1193176091 157801844 2059510793 1417953910 1397269511 106051660 -828044991 -2110627037 1343576207 -1754222951 210981584 -1153951026
REM
CELL 1.54180   50.00000   50.00000   50.00000   90.00000   90.00000   90.00000
LATT -1
SFAC C  
C      1  0.5406870000000  0.5309440000000  0.4522680000000 1.0
C      1  0.4709370000000  0.5637650000000  0.5694810000000 1.0
C      1  0.5266230000000  0.5065750000000  0.4329640000000 1.0
C      1  0.5131400000000  0.6090910000000  0.5156990000000 1.0
C      1  0.4438170000000  0.4791720000000  0.4600520000000 1.0
C      1  0.4791460000000  0.4748220000000  0.5193480000000 1.0
C      1  0.4748750000000  0.4629910000000  0.4880070000000 1.0
C      1  0.5222170000000  0.5391810000000  0.5868210000000 1.0
C      1  0.4577770000000  0.4595810000000  0.4456900000000 1.0
C      1  0.4644510000000  0.6013290000000  0.4552350000000 1.0
C      1  0.4528110000000  0.5844970000000  0.5492430000000 1.0
C      1  0.5379280000000  0.5664230000000  0.4339690000000 1.0
C      1  0.4722120000000  0.5196540000000  0.4640830000000 1.0
C      1  0.5871320000000  0.5742340000000  0.5296380000000 1.0
C      1  0.5278890000000  0.6071200000000  0.4894200000000 1.0
C      1  0.4475040000000  0.5735070000000  0.5007240000000 1.0
C      1  0.5087050000000  0.6049160000000  0.4686320000000 1.0
C      1  0.5421070000000  0.5826980000000  0.5612290000000 1.0
C      1  0.4443990000000  0.4774120000000  0.4932570000000 1.0
C      1  0.5838800000000  0.4761630000000  0.5384820000000 1.0
C      1  0.5084200000000  0.5383680000000  0.4940030000000 1.0
C      1  0.5091390000000  0.4733390000000  0.4200200000000 1.0
C      1  0.4608230000000  0.5511650000000  0.4578760000000 1.0
C      1  0.4087660000000  0.5060970000000  0.5511110000000 1.0
C      1  0.5252410000000  0.5087860000000  0.4732680000000 1.0
C      1  0.5836270000000  0.5542550000000  0.4633340000000 1.0
C      1  0.5093600000000  0.4551940000000  0.5323180000000 1.0
C      1  0.5043650000000  0.5742890000000  0.5539310000000 1.0
C      1  0.4749140000000  0.4650950000000  0.5515250000000 1.0
C      1  0.5450310000000  0.4472010000000  0.4119670000000 1.0
C      1  0.4751770000000  0.4590080000000  0.3959940000000 1.0
C      1  0.4632890000000  0.5339780000000  0.5583210000000 1.0
C      1  0.4229800000000  0.5395300000000  0.4420270000000 1.0
C      1  0.5949200000000  0.5272100000000  0.5441970000000 1.0
C      1  0.4795600000000  0.4072620000000  0.5775100000000 1.0
C      1  0.5504900000000  0.4938410000000  0.4623240000000 1.0
C      1  0.5969830000000  0.4814100000000  0.5126120000000 1.0
C      1  0.4685810000000  0.5399430000000  0.6013950000000 1.0
C      1  0.5252820000000  0.4603280000000  0.4845410000000 1.0
C      1  0.5859070000000  0.5113900000000  0.5008500000000 1.0
C      1  0.5758350000000  0.5316790000000  0.5725250000000 1.0
C      1  0.5182700000000  0.4351560000000  0.4149530000000 1.0
C      1  0.5026840000000  0.4758880000000  0.3874740000000 1.0
C      1  0.4275860000000  0.5460560000000  0.5740790000000 1.0
C      1  0.5870020000000  0.4321530000000  0.5211700000000 1.0
C      1  0.5894370000000  0.4477140000000  0.4641520000000 1.0
C      1  0.5661200000000  0.4274830000000  0.4647160000000 1.0
C      1  0.4052150000000  0.4530130000000  0.5169940000000 1.0
C      1  0.4435880000000  0.5535230000000  0.5967800000000 1.0
C      1  0.4471000000000  0.4457610000000  0.4816120000000 1.0
C      1  0.4656480000000  0.5099550000000  0.5951880000000 1.0
C      1  0.4186670000000  0.5191790000000  0.5735340000000 1.0
C      1  0.5454320000000  0.5401630000000  0.4136810000000 1.0
C      1  0.5565000000000  0.5887470000000  0.5317040000000 1.0
C      1  0.5293890000000  0.5149050000000  0.6075980000000 1.0
C      1  0.6133080000000  0.4960570000000  0.4877030000000 1.0
C      1  0.4323670000000  0.5650540000000  0.4341100000000 1.0
C      1  0.5122250000000  0.5358770000000  0.4352120000000 1.0
C      1  0.4568950000000  0.4096440000000  0.5595310000000 1.0
C      1  0.5990560000000  0.5149340000000  0.4635160000000 1.0
C      1  0.4651220000000  0.5007320000000  0.5366270000000 1.0
C      1  0.5025380000000  0.5423890000000  0.4078040000000 1.0
C      1  0.4217730000000  0.5796930000000  0.5200960000000 1.0
C      1  0.5447330000000  0.4256280000000  0.4874940000000 1.0
C      1  0.5125940000000  0.3932310000000  0.4686080000000 1.0
C      1  0.4815770000000  0.6086790000000  0.4770670000000 1.0
C      1  0.5914660000000  0.5446130000000  0.4378260000000 1.0
C      1  0.5480550000000  0.5524350000000  0.5757620000000 1.0
C      1  0.4336160000000  0.5025540000000  0.5904120000000 1.0
C      1  0.4502370000000  0.5298980000000  0.5271530000000 1.0
C      1  0.5070620000000  0.4143230000000  0.5420860000000 1.0
C      1  0.5135890000000  0.4083990000000  0.5740480000000 1.0
C      1  0.5549440000000  0.6000370000000  0.4807080000000 1.0
C      1  0.4983430000000  0.4978060000000  0.4661600000000 1.0
C      1  0.5167760000000  0.4875340000000  0.5232400000000 1.0
C      1  0.5197350000000  0.5451770000000  0.5473650000000 1.0
C      1  0.3944630000000  0.4991260000000  0.4451270000000 1.0
C      1  0.5329760000000  0.4907540000000  0.3917740000000 1.0
C      1  0.4820650000000  0.4598760000000  0.6072100000000 1.0
C      1  0.5690880000000  0.4735380000000  0.5968770000000 1.0
C      1  0.5232920000000  0.4883970000000  0.6078700000000 1.0
C      1  0.5540830000000  0.4746550000000  0.4024380000000 1.0
C      1  0.4400150000000  0.4242040000000  0.4487570000000 1.0
C      1  0.3926450000000  0.5332410000000  0.5047830000000 1.0
C      1  0.3993510000000  0.4789490000000  0.5085030000000 1.0
C      1  0.5540480000000  0.4647840000000  0.4710950000000 1.0
C      1  0.5889980000000  0.4738510000000  0.5706370000000 1.0
C      1  0.5360970000000  0.4761890000000  0.4378550000000 1.0
C      1  0.5162720000000  0.4330400000000  0.4696660000000 1.0
C      1  0.5688570000000  0.4579700000000  0.4967670000000 1.0
C      1  0.5059260000000  0.4503360000000  0.4432290000000 1.0
C      1  0.4601470000000  0.4788200000000  0.6079170000000 1.0
C      1  0.4362840000000  0.4294220000000  0.5600500000000 1.0
C      1  0.4123900000000  0.4368230000000  0.4643670000000 1.0
C      1  0.4696430000000  0.4892910000000  0.4055840000000 1.0
C      1  0.5582310000000  0.5558290000000  0.5091420000000 1.0
C      1  0.5707390000000  0.5014290000000  0.5793800000000 1.0
C      1  0.4704780000000  0.5124930000000  0.4311980000000 1.0
C      1  0.5427990000000  0.4758620000000  0.5076180000000 1.0
C      1  0.4908420000000  0.4355300000000  0.5919640000000 1.0
C      1  0.4617830000000  0.5192850000000  0.4968810000000 1.0
C      1  0.4387990000000  0.5879430000000  0.4548300000000 1.0
C      1  0.4992760000000  0.5395660000000  0.4642760000000 1.0
C      1  0.4973690000000  0.4681960000000  0.4704300000000 1.0
C      1  0.5542940000000  0.5308260000000  0.5398390000000 1.0
C      1  0.5291470000000  0.5130840000000  0.5036220000000 1.0
C      1  0.5709800000000  0.4022100000000  0.5231610000000 1.0
C      1  0.6123930000000  0.4878960000000  0.4550960000000 1.0
C      1  0.4894180000000  0.5508060000000  0.5334710000000 1.0
C      1  0.4649250000000  0.5643610000000  0.4282540000000 1.0
C      1  0.4451830000000  0.4610690000000  0.5618570000000 1.0
C      1  0.4414860000000  0.5062860000000  0.4145460000000 1.0
C      1  0.5243510000000  0.4356390000000  0.5900570000000 1.0
C      1  0.4810260000000  0.5899050000000  0.4336090000000 1.0
C      1  0.5534080000000  0.4826460000000  0.5384330000000 1.0
C      1  0.5854200000000  0.4453610000000  0.5522530000000 1.0
C      1  0.5017650000000  0.4765760000000  0.5668080000000 1.0
C      1  0.4825270000000  0.5899720000000  0.5364970000000 1.0
C      1  0.5460420000000  0.5062570000000  0.5575390000000 1.0
C      1  0.3949300000000  0.4839950000000  0.4810850000000 1.0
C      1  0.4484860000000  0.6014610000000  0.5199940000000 1.0
C      1  0.5147020000000  0.5124240000000  0.5694100000000 1.0
C      1  0.4192190000000  0.4772370000000  0.5462300000000 1.0
C      1  0.5905880000000  0.5431220000000  0.4897310000000 1.0
C      1  0.5717820000000  0.5867850000000  0.5024250000000 1.0
C      1  0.5374120000000  0.5650630000000  0.4869350000000 1.0
C      1  0.5999870000000  0.4516640000000  0.4963290000000 1.0
C      1  0.4385140000000  0.5185220000000  0.4638090000000 1.0
C      1  0.4405020000000  0.4803900000000  0.5245880000000 1.0
C      1  0.4172100000000  0.4352840000000  0.4955030000000 1.0
C      1  0.4369970000000  0.5629310000000  0.4753370000000 1.0
C      1  0.4873950000000  0.5247450000000  0.5137110000000 1.0
C      1  0.5733030000000  0.4880640000000  0.4214250000000 1.0
C      1  0.4393880000000  0.5555990000000  0.5466610000000 1.0
C      1  0.5708690000000  0.5577600000000  0.5516280000000 1.0
C      1  0.4934090000000  0.4390080000000  0.5580930000000 1.0
C      1  0.4004820000000  0.5277430000000  0.4318340000000 1.0
C      1  0.4628270000000  0.4034890000000  0.5308330000000 1.0
C      1  0.4066470000000  0.5067110000000  0.5199490000000 1.0
C      1  0.5203930000000  0.6008100000000  0.5422370000000 1.0
C      1  0.4137120000000  0.5444370000000  0.4805430000000 1.0
C      1  0.3941150000000  0.5167330000000  0.4746830000000 1.0
C      1  0.4010170000000  0.4668460000000  0.4537560000000 1.0
C      1  0.5242620000000  0.4016770000000  0.4927570000000 1.0
C      1  0.4941580000000  0.5534720000000  0.5906140000000 1.0
C      1  0.5406070000000  0.4524770000000  0.5396950000000 1.0
C      1  0.5248430000000  0.5237360000000  0.3921660000000 1.0
C      1  0.5536320000000  0.4375400000000  0.5169450000000 1.0
C      1  0.4908750000000  0.4150940000000  0.4575830000000 1.0
C      1  0.5189320000000  0.5642030000000  0.4621990000000 1.0
C      1  0.5117710000000  0.5878100000000  0.4402590000000 1.0
C      1  0.4131420000000  0.4445740000000  0.5451770000000 1.0
C      1  0.4369210000000  0.4725760000000  0.5894960000000 1.0
C      1  0.4808890000000  0.5085840000000  0.5659800000000 1.0
C      1  0.5644900000000  0.4266840000000  0.5673920000000 1.0
C      1  0.5582950000000  0.5239080000000  0.5098600000000 1.0
C      1  0.5559450000000  0.4486610000000  0.4419210000000 1.0
C      1  0.4747030000000  0.5467530000000  0.4069720000000 1.0
C      1  0.5129050000000  0.4280230000000  0.5114670000000 1.0
C      1  0.5579140000000  0.5723800000000  0.4609610000000 1.0
C      1  0.5320200000000  0.5661120000000  0.5263830000000 1.0
C      1  0.4800980000000  0.4290150000000  0.5164960000000 1.0
C      1  0.5474050000000  0.3962760000000  0.5365960000000 1.0
C      1  0.4598510000000  0.5264480000000  0.3945690000000 1.0
C      1  0.4767530000000  0.5709090000000  0.5097340000000 1.0
C      1  0.4796060000000  0.6106270000000  0.5092570000000 1.0
C      1  0.5411230000000  0.4641540000000  0.5983750000000 1.0
C      1  0.5444740000000  0.4089670000000  0.5615170000000 1.0
C      1  0.5944220000000  0.5443890000000  0.5216510000000 1.0
C      1  0.4722000000000  0.4293840000000  0.4389870000000 1.0
C      1  0.5914750000000  0.4705480000000  0.4442160000000 1.0
C      1  0.5090790000000  0.5688000000000  0.5037660000000 1.0
C      1  0.5275270000000  0.4593610000000  0.5676460000000 1.0
C      1  0.4488380000000  0.4565480000000  0.4151160000000 1.0
C      1  0.4978220000000  0.5036730000000  0.4166640000000 1.0
C      1  0.5197790000000  0.3903020000000  0.5222660000000 1.0
C      1  0.5708530000000  0.5155100000000  0.4552500000000 1.0
C      1  0.4416910000000  0.4199420000000  0.5114440000000 1.0
C      1  0.4474490000000  0.4123930000000  0.4797930000000 1.0
C      1  0.4744260000000  0.5145600000000  0.3733840000000 1.0
C      1  0.4886080000000  0.3963500000000  0.5100840000000 1.0
C      1  0.5704730000000  0.5221580000000  0.4229450000000 1.0
C      1  0.4214600000000  0.4485280000000  0.4335410000000 1.0
C      1  0.5073990000000  0.5149090000000  0.5369400000000 1.0
C      1  0.4009720000000  0.5619190000000  0.5186540000000 1.0
C      1  0.4871040000000  0.4343830000000  0.4120210000000 1.0
C      1  0.4281130000000  0.5175780000000  0.4961900000000 1.0
C      1  0.5001590000000  0.5058930000000  0.3768550000000 1.0
C      1  0.4553150000000  0.4499770000000  0.5202300000000 1.0
C      1  0.4269770000000  0.4992380000000  0.4410420000000 1.0
C      1  0.4753180000000  0.3997960000000  0.4807470000000 1.0
C      1  0.4981390000000  0.4822590000000  0.5961460000000 1.0
END
