TITL C-2778437-8639-713 0.00138303063014494 125000 -635.230734666965 0 0 109 (C1) n - 1
REM
REM in /home/nfs/bkarasulu/CARBON/AIRSS/Generating-Clusters/REBO/Only-C1/SD-CG/HFTN-CG
REM
REM
REM
REM
REM
REM ./C.cell (11c1c37f851c82e70ff6c80c92926a4b)
REM
REM compiler GCC version 9.2.1 20190827 (Red Hat 9.2.1-1)
REM options -cpp -mtune=generic -march=x86-64 -g -O0 -fpre-include=/usr/include/finclude/math-vector-fortran.h
REM seed 1543489317 173079892 2061779702 -1956413755 410602106 1961120973 1783871957 -1034077033 307440600 1043825872 -261470848 576273358 399597932 1446655839 406672463 -369281331 1755804097 -1487988549 -1449463702 -240305307 501588386 -866102860 250747428 -1676966805 -612106317 1767720668 -223554698 1163920671 573833782 -2114771237 -2000279269 -963461505 1114497916
REM
CELL 1.54180   50.00000   50.00000   50.00000   90.00000   90.00000   90.00000
LATT -1
SFAC C  
C      1  0.5004740000000  0.5156060000000  0.5772560000000 1.0
C      1  0.5093650000000  0.4593280000000  0.4264940000000 1.0
C      1  0.5490350000000  0.5283480000000  0.4273610000000 1.0
C      1  0.4617640000000  0.4856010000000  0.4200150000000 1.0
C      1  0.5269350000000  0.5665270000000  0.5624370000000 1.0
C      1  0.4417170000000  0.5310680000000  0.5682910000000 1.0
C      1  0.4253240000000  0.5106960000000  0.5288330000000 1.0
C      1  0.5139250000000  0.5413680000000  0.4621020000000 1.0
C      1  0.5001550000000  0.4515600000000  0.5085300000000 1.0
C      1  0.5688610000000  0.4636210000000  0.5572930000000 1.0
C      1  0.4663680000000  0.5163100000000  0.4790140000000 1.0
C      1  0.4799850000000  0.5495480000000  0.5177750000000 1.0
C      1  0.5164160000000  0.4777050000000  0.4975960000000 1.0
C      1  0.4829650000000  0.5760700000000  0.5468670000000 1.0
C      1  0.5506360000000  0.5746560000000  0.4926700000000 1.0
C      1  0.5612840000000  0.5000470000000  0.5157870000000 1.0
C      1  0.4889110000000  0.4875890000000  0.5931510000000 1.0
C      1  0.4814460000000  0.5110390000000  0.4279890000000 1.0
C      1  0.4518870000000  0.5767680000000  0.4784760000000 1.0
C      1  0.5938330000000  0.4983990000000  0.5125350000000 1.0
C      1  0.5589200000000  0.4421190000000  0.4589030000000 1.0
C      1  0.4281430000000  0.4965830000000  0.4627170000000 1.0
C      1  0.4787360000000  0.4884360000000  0.4901240000000 1.0
C      1  0.4284920000000  0.5082860000000  0.4890450000000 1.0
C      1  0.5689550000000  0.4454210000000  0.4884940000000 1.0
C      1  0.4685520000000  0.4393400000000  0.5048600000000 1.0
C      1  0.5010520000000  0.5715350000000  0.4922320000000 1.0
C      1  0.5381740000000  0.5015090000000  0.4233540000000 1.0
C      1  0.4941750000000  0.4832570000000  0.4437110000000 1.0
C      1  0.5595480000000  0.4651630000000  0.4423820000000 1.0
C      1  0.5119240000000  0.4366660000000  0.4479390000000 1.0
C      1  0.5471620000000  0.5322740000000  0.5624250000000 1.0
C      1  0.4851800000000  0.4178340000000  0.5238740000000 1.0
C      1  0.4285800000000  0.4643360000000  0.4957520000000 1.0
C      1  0.5231830000000  0.5788010000000  0.5130020000000 1.0
C      1  0.5806190000000  0.4759740000000  0.4903720000000 1.0
C      1  0.4577330000000  0.5204840000000  0.5334940000000 1.0
C      1  0.4311040000000  0.4626960000000  0.4642400000000 1.0
C      1  0.5518500000000  0.4218570000000  0.5030310000000 1.0
C      1  0.5385440000000  0.4720960000000  0.4232340000000 1.0
C      1  0.4332080000000  0.4556970000000  0.5284310000000 1.0
C      1  0.5599920000000  0.4578420000000  0.5188210000000 1.0
C      1  0.5311400000000  0.4138890000000  0.4848510000000 1.0
C      1  0.4580920000000  0.4270970000000  0.4794110000000 1.0
C      1  0.4830540000000  0.4616870000000  0.5853330000000 1.0
C      1  0.5358620000000  0.4249880000000  0.4583020000000 1.0
C      1  0.5092100000000  0.5507650000000  0.4063480000000 1.0
C      1  0.4177380000000  0.4814250000000  0.5448470000000 1.0
C      1  0.4485260000000  0.4387830000000  0.4571460000000 1.0
C      1  0.4585210000000  0.4344150000000  0.5370520000000 1.0
C      1  0.4778320000000  0.5165680000000  0.6025250000000 1.0
C      1  0.4896940000000  0.5200800000000  0.4585130000000 1.0
C      1  0.4534530000000  0.5699490000000  0.5335650000000 1.0
C      1  0.4847700000000  0.4687520000000  0.4691310000000 1.0
C      1  0.4473790000000  0.5309170000000  0.4556120000000 1.0
C      1  0.4768030000000  0.4830280000000  0.5235640000000 1.0
C      1  0.4762880000000  0.5429420000000  0.5512670000000 1.0
C      1  0.5593950000000  0.5258780000000  0.4856150000000 1.0
C      1  0.4411850000000  0.4982000000000  0.5629460000000 1.0
C      1  0.5251930000000  0.4418970000000  0.5590020000000 1.0
C      1  0.5474230000000  0.4826840000000  0.5630690000000 1.0
C      1  0.5022330000000  0.4206820000000  0.4943180000000 1.0
C      1  0.4671320000000  0.5367630000000  0.5833140000000 1.0
C      1  0.5537330000000  0.5417080000000  0.4583820000000 1.0
C      1  0.4510260000000  0.5285120000000  0.5042890000000 1.0
C      1  0.5213330000000  0.4700690000000  0.5615720000000 1.0
C      1  0.5479220000000  0.5573060000000  0.5205890000000 1.0
C      1  0.5544120000000  0.5585920000000  0.5497260000000 1.0
C      1  0.5929410000000  0.5003180000000  0.4726490000000 1.0
C      1  0.5790760000000  0.5588720000000  0.4956110000000 1.0
C      1  0.4563980000000  0.4730210000000  0.5458860000000 1.0
C      1  0.4229870000000  0.5464950000000  0.4701820000000 1.0
C      1  0.5031070000000  0.5085200000000  0.4996540000000 1.0
C      1  0.4455570000000  0.4895440000000  0.5114070000000 1.0
C      1  0.4700070000000  0.5770920000000  0.5014470000000 1.0
C      1  0.5908160000000  0.5268360000000  0.4937000000000 1.0
C      1  0.4266900000000  0.5476800000000  0.4954650000000 1.0
C      1  0.4762760000000  0.4583480000000  0.4186890000000 1.0
C      1  0.5458610000000  0.5085060000000  0.4619200000000 1.0
C      1  0.5230230000000  0.5063700000000  0.5246910000000 1.0
C      1  0.4420570000000  0.5098620000000  0.4342390000000 1.0
C      1  0.5562030000000  0.4364520000000  0.5558300000000 1.0
C      1  0.5447460000000  0.5292030000000  0.5127070000000 1.0
C      1  0.5198310000000  0.5371570000000  0.5747030000000 1.0
C      1  0.4742610000000  0.5055840000000  0.5593190000000 1.0
C      1  0.4577020000000  0.5610760000000  0.4568210000000 1.0
C      1  0.5695530000000  0.4894760000000  0.4545560000000 1.0
C      1  0.5050300000000  0.4818570000000  0.5356390000000 1.0
C      1  0.5035680000000  0.5791330000000  0.4602670000000 1.0
C      1  0.5336580000000  0.4665900000000  0.5239110000000 1.0
C      1  0.5843110000000  0.4720090000000  0.5319860000000 1.0
C      1  0.5354340000000  0.5676900000000  0.4651970000000 1.0
C      1  0.4829430000000  0.5637250000000  0.4445590000000 1.0
C      1  0.5130180000000  0.4303770000000  0.5322120000000 1.0
C      1  0.4052900000000  0.4800140000000  0.5137020000000 1.0
C      1  0.5484820000000  0.5074310000000  0.5460350000000 1.0
C      1  0.5260230000000  0.5476360000000  0.4308630000000 1.0
C      1  0.4998160000000  0.5374000000000  0.4929700000000 1.0
C      1  0.4317810000000  0.4781100000000  0.4342970000000 1.0
C      1  0.5474170000000  0.4835090000000  0.4907560000000 1.0
C      1  0.4940600000000  0.4417800000000  0.4700410000000 1.0
C      1  0.4002360000000  0.5120920000000  0.5056770000000 1.0
C      1  0.5442860000000  0.4228950000000  0.5298550000000 1.0
C      1  0.4363950000000  0.5517940000000  0.5486640000000 1.0
C      1  0.5104280000000  0.5804270000000  0.5430520000000 1.0
C      1  0.4617450000000  0.4389640000000  0.4320670000000 1.0
C      1  0.4698370000000  0.4512120000000  0.5644360000000 1.0
C      1  0.4868690000000  0.5433320000000  0.4243000000000 1.0
C      1  0.5178220000000  0.5039740000000  0.4488420000000 1.0
END
