TITL C-2778424-3986-1325 0.000461162542823372 125000 -385.623664938188 0 0 68 (C1) n - 1
REM
REM in /home/nfs/bkarasulu/CARBON/AIRSS/Generating-Clusters/REBO/Only-C1/SD-CG/HFTN-CG
REM
REM
REM
REM
REM
REM ./C.cell (11c1c37f851c82e70ff6c80c92926a4b)
REM
REM compiler GCC version 9.2.1 20190827 (Red Hat 9.2.1-1)
REM options -cpp -mtune=generic -march=x86-64 -g -O0 -fpre-include=/usr/include/finclude/math-vector-fortran.h
REM seed -1651085612 1509149916 1399053760 -1326862609 -1723591451 195390955 1437207669 -823098801 -1927980341 390455925 -1170811710 1206645424 1721811116 -864147555 1742184680 -1352473080 -819669772 1099813534 -1724313699 1367308971 -1265390371 -901561293 1379763572 1065348733 -1897904554 -724647444 -1860062283 -215164431 -851467969 506560643 -98027227 1924038868 513058942
REM
CELL 1.54180   50.00000   50.00000   50.00000   90.00000   90.00000   90.00000
LATT -1
SFAC C  
C      1  0.5510690000000  0.4758340000000  0.5562790000000 1.0
C      1  0.4402270000000  0.5195500000000  0.4440350000000 1.0
C      1  0.4545440000000  0.6172690000000  0.5613730000000 1.0
C      1  0.4954520000000  0.4570180000000  0.5391780000000 1.0
C      1  0.5386970000000  0.4377170000000  0.5238320000000 1.0
C      1  0.4875210000000  0.5118050000000  0.4191030000000 1.0
C      1  0.5212940000000  0.4425050000000  0.5698080000000 1.0
C      1  0.5566480000000  0.4840580000000  0.5175400000000 1.0
C      1  0.5680930000000  0.5241510000000  0.5633080000000 1.0
C      1  0.4732020000000  0.4836970000000  0.4501690000000 1.0
C      1  0.5106460000000  0.4256040000000  0.4614870000000 1.0
C      1  0.5150540000000  0.4514680000000  0.4579170000000 1.0
C      1  0.4520970000000  0.4741300000000  0.4725950000000 1.0
C      1  0.4510300000000  0.5441950000000  0.4851430000000 1.0
C      1  0.4879040000000  0.5522420000000  0.4188390000000 1.0
C      1  0.4463370000000  0.4476840000000  0.5365030000000 1.0
C      1  0.4610910000000  0.5850690000000  0.5155420000000 1.0
C      1  0.4656150000000  0.5425360000000  0.5148690000000 1.0
C      1  0.4834910000000  0.4710740000000  0.5885070000000 1.0
C      1  0.4404010000000  0.4960860000000  0.4862670000000 1.0
C      1  0.4917450000000  0.5575950000000  0.3930370000000 1.0
C      1  0.5261750000000  0.4846800000000  0.5104620000000 1.0
C      1  0.4603300000000  0.4742630000000  0.6003490000000 1.0
C      1  0.5714840000000  0.4785270000000  0.4874190000000 1.0
C      1  0.4833460000000  0.4423410000000  0.5572730000000 1.0
C      1  0.5485390000000  0.5270040000000  0.4725580000000 1.0
C      1  0.5142210000000  0.4242400000000  0.5196660000000 1.0
C      1  0.4617530000000  0.5061880000000  0.4316000000000 1.0
C      1  0.5277700000000  0.5110390000000  0.4507810000000 1.0
C      1  0.4983720000000  0.4672280000000  0.4376340000000 1.0
C      1  0.5427930000000  0.5290500000000  0.5453510000000 1.0
C      1  0.4639850000000  0.5747930000000  0.4912840000000 1.0
C      1  0.5719520000000  0.4950120000000  0.5525170000000 1.0
C      1  0.5511110000000  0.4547320000000  0.5021760000000 1.0
C      1  0.4839140000000  0.5466800000000  0.4456450000000 1.0
C      1  0.5706670000000  0.5114770000000  0.4925180000000 1.0
C      1  0.4870560000000  0.4229530000000  0.5199700000000 1.0
C      1  0.4573500000000  0.5963160000000  0.5448090000000 1.0
C      1  0.4626090000000  0.4368370000000  0.5154240000000 1.0
C      1  0.4593760000000  0.5634420000000  0.5410500000000 1.0
C      1  0.5083570000000  0.4969980000000  0.4300070000000 1.0
C      1  0.4623230000000  0.5316020000000  0.5469970000000 1.0
C      1  0.4955250000000  0.5628630000000  0.3676440000000 1.0
C      1  0.4683640000000  0.5617580000000  0.4627620000000 1.0
C      1  0.5986090000000  0.5519520000000  0.4640130000000 1.0
C      1  0.4967440000000  0.5229690000000  0.4580770000000 1.0
C      1  0.5248100000000  0.4883760000000  0.5641870000000 1.0
C      1  0.4859110000000  0.5279570000000  0.4960590000000 1.0
C      1  0.5432690000000  0.4471020000000  0.5507480000000 1.0
C      1  0.4916050000000  0.4516080000000  0.4150890000000 1.0
C      1  0.4386410000000  0.5204740000000  0.4725890000000 1.0
C      1  0.4768530000000  0.5018450000000  0.5248700000000 1.0
C      1  0.5079580000000  0.4677060000000  0.5759980000000 1.0
C      1  0.5264090000000  0.4950660000000  0.4808240000000 1.0
C      1  0.5657590000000  0.5144420000000  0.5248040000000 1.0
C      1  0.5190830000000  0.5141930000000  0.5524660000000 1.0
C      1  0.5801440000000  0.5365210000000  0.4727340000000 1.0
C      1  0.5665710000000  0.4689930000000  0.4582190000000 1.0
C      1  0.4437740000000  0.5072250000000  0.5466630000000 1.0
C      1  0.4841130000000  0.4748670000000  0.4963580000000 1.0
C      1  0.4927420000000  0.5184410000000  0.5432260000000 1.0
C      1  0.4456030000000  0.4954470000000  0.5150000000000 1.0
C      1  0.5026910000000  0.4723480000000  0.5170990000000 1.0
C      1  0.4826930000000  0.4992440000000  0.4781200000000 1.0
C      1  0.4634060000000  0.4539290000000  0.4922390000000 1.0
C      1  0.4397270000000  0.4746510000000  0.5406600000000 1.0
C      1  0.5170360000000  0.5275380000000  0.4851870000000 1.0
C      1  0.5363190000000  0.4657960000000  0.4735400000000 1.0
END
