TITL C-2778437-8639-555 0.0013962461533252 125000 -637.169791807502 0 0 109 (C1) n - 1
REM
REM in /home/nfs/bkarasulu/CARBON/AIRSS/Generating-Clusters/REBO/Only-C1/SD-CG/HFTN-CG
REM
REM
REM
REM
REM
REM ./C.cell (11c1c37f851c82e70ff6c80c92926a4b)
REM
REM compiler GCC version 9.2.1 20190827 (Red Hat 9.2.1-1)
REM options -cpp -mtune=generic -march=x86-64 -g -O0 -fpre-include=/usr/include/finclude/math-vector-fortran.h
REM seed -452505477 -631454248 -130203004 447092514 1529593529 -1742767093 906110052 1506665488 1129160738 -1569106686 24364645 -315240555 158177152 -121989134 -2000703320 -1847167174 1092620673 -1204792979 983148874 -1741292502 265023564 -564613378 1763830037 1226942335 -483573686 884482323 -669222908 -276892215 -1692207090 -464744186 270354151 333846923 167176676
REM
CELL 1.54180   50.00000   50.00000   50.00000   90.00000   90.00000   90.00000
LATT -1
SFAC C  
C      1  0.5283520000000  0.5928580000000  0.5201650000000 1.0
C      1  0.4204190000000  0.5110980000000  0.4924530000000 1.0
C      1  0.4576330000000  0.5066100000000  0.4452580000000 1.0
C      1  0.4622200000000  0.5691850000000  0.4465030000000 1.0
C      1  0.5733000000000  0.5269850000000  0.5313410000000 1.0
C      1  0.5715570000000  0.4307700000000  0.5257940000000 1.0
C      1  0.4928070000000  0.4389160000000  0.4391710000000 1.0
C      1  0.4502980000000  0.5744040000000  0.5192170000000 1.0
C      1  0.5154560000000  0.5426650000000  0.5579070000000 1.0
C      1  0.4842460000000  0.5289690000000  0.4262770000000 1.0
C      1  0.4966130000000  0.5028340000000  0.4933030000000 1.0
C      1  0.5485140000000  0.4737360000000  0.5822970000000 1.0
C      1  0.5214150000000  0.4999670000000  0.4142670000000 1.0
C      1  0.4775860000000  0.4871270000000  0.4487470000000 1.0
C      1  0.4542360000000  0.4144750000000  0.4588680000000 1.0
C      1  0.4840110000000  0.5028650000000  0.5654250000000 1.0
C      1  0.5223630000000  0.4518820000000  0.4438580000000 1.0
C      1  0.5233820000000  0.4749950000000  0.5036490000000 1.0
C      1  0.4922000000000  0.4538900000000  0.4697720000000 1.0
C      1  0.5215110000000  0.4530510000000  0.5824460000000 1.0
C      1  0.5112580000000  0.4385600000000  0.4928600000000 1.0
C      1  0.4669110000000  0.4738350000000  0.4126900000000 1.0
C      1  0.4874340000000  0.5011000000000  0.4128770000000 1.0
C      1  0.4943130000000  0.5587510000000  0.5255910000000 1.0
C      1  0.5704490000000  0.5240070000000  0.4687870000000 1.0
C      1  0.5073080000000  0.4868020000000  0.5281850000000 1.0
C      1  0.5279150000000  0.4973030000000  0.4553410000000 1.0
C      1  0.5409530000000  0.4720360000000  0.4834460000000 1.0
C      1  0.5379040000000  0.5216560000000  0.4330330000000 1.0
C      1  0.4617310000000  0.5503600000000  0.5339960000000 1.0
C      1  0.4311880000000  0.5146860000000  0.5576390000000 1.0
C      1  0.4045760000000  0.5191870000000  0.5135230000000 1.0
C      1  0.4233750000000  0.4564560000000  0.4702010000000 1.0
C      1  0.4268190000000  0.4618200000000  0.4998510000000 1.0
C      1  0.5413540000000  0.5154130000000  0.4761530000000 1.0
C      1  0.5676870000000  0.4709430000000  0.5604670000000 1.0
C      1  0.4799110000000  0.4493920000000  0.4134870000000 1.0
C      1  0.4281850000000  0.5029060000000  0.4544070000000 1.0
C      1  0.5607960000000  0.4451000000000  0.5475420000000 1.0
C      1  0.4464720000000  0.5395140000000  0.5577790000000 1.0
C      1  0.4873840000000  0.5394800000000  0.4592830000000 1.0
C      1  0.4724870000000  0.4673240000000  0.5256600000000 1.0
C      1  0.4780660000000  0.5189150000000  0.5883350000000 1.0
C      1  0.5091470000000  0.5486980000000  0.4347130000000 1.0
C      1  0.4246290000000  0.4752340000000  0.4481400000000 1.0
C      1  0.4549900000000  0.4361730000000  0.5348150000000 1.0
C      1  0.5364650000000  0.5664910000000  0.5584140000000 1.0
C      1  0.4545220000000  0.5400630000000  0.4369620000000 1.0
C      1  0.4998780000000  0.4761780000000  0.5900930000000 1.0
C      1  0.4755370000000  0.5281600000000  0.4865070000000 1.0
C      1  0.5016550000000  0.4545640000000  0.5201050000000 1.0
C      1  0.5367530000000  0.5541380000000  0.4441200000000 1.0
C      1  0.4565290000000  0.5847800000000  0.4732540000000 1.0
C      1  0.4324180000000  0.4300960000000  0.4631930000000 1.0
C      1  0.5562740000000  0.4280500000000  0.4771690000000 1.0
C      1  0.5241720000000  0.4929210000000  0.5819780000000 1.0
C      1  0.4468130000000  0.4738720000000  0.5421420000000 1.0
C      1  0.4482570000000  0.4426130000000  0.5058710000000 1.0
C      1  0.4925580000000  0.5731560000000  0.4614480000000 1.0
C      1  0.5648350000000  0.5593660000000  0.4866010000000 1.0
C      1  0.5028300000000  0.4858930000000  0.4689250000000 1.0
C      1  0.4404260000000  0.4717300000000  0.4237910000000 1.0
C      1  0.4907240000000  0.5533870000000  0.5724870000000 1.0
C      1  0.5442700000000  0.5747680000000  0.5335470000000 1.0
C      1  0.5408930000000  0.5052090000000  0.5397550000000 1.0
C      1  0.4819460000000  0.5117840000000  0.6141890000000 1.0
C      1  0.5253340000000  0.5132660000000  0.5614640000000 1.0
C      1  0.4323320000000  0.5327380000000  0.4605600000000 1.0
C      1  0.4234820000000  0.4780660000000  0.5248380000000 1.0
C      1  0.4694440000000  0.4908860000000  0.5056130000000 1.0
C      1  0.4671750000000  0.5962910000000  0.5215770000000 1.0
C      1  0.5889300000000  0.4594670000000  0.4931130000000 1.0
C      1  0.5436650000000  0.4823250000000  0.4312100000000 1.0
C      1  0.4432690000000  0.5678680000000  0.4926080000000 1.0
C      1  0.5161140000000  0.5600930000000  0.4778020000000 1.0
C      1  0.4746020000000  0.4459910000000  0.5599720000000 1.0
C      1  0.4885350000000  0.4148620000000  0.5100590000000 1.0
C      1  0.5041580000000  0.4307510000000  0.5634250000000 1.0
C      1  0.5392380000000  0.4487970000000  0.4661800000000 1.0
C      1  0.5236000000000  0.5414420000000  0.5244090000000 1.0
C      1  0.4125990000000  0.5043670000000  0.5363700000000 1.0
C      1  0.5867740000000  0.5049510000000  0.4377370000000 1.0
C      1  0.5561040000000  0.5501230000000  0.5181600000000 1.0
C      1  0.5641710000000  0.5606820000000  0.4554790000000 1.0
C      1  0.5865040000000  0.5092780000000  0.5097010000000 1.0
C      1  0.4736500000000  0.4723840000000  0.5726310000000 1.0
C      1  0.5544730000000  0.4991480000000  0.5099510000000 1.0
C      1  0.4823670000000  0.4153940000000  0.4567650000000 1.0
C      1  0.4838520000000  0.4197590000000  0.5392540000000 1.0
C      1  0.5836840000000  0.4884850000000  0.4562500000000 1.0
C      1  0.5244530000000  0.5149360000000  0.5050790000000 1.0
C      1  0.4817520000000  0.5287330000000  0.5196840000000 1.0
C      1  0.5692620000000  0.5322350000000  0.4371660000000 1.0
C      1  0.5705230000000  0.4966200000000  0.5464390000000 1.0
C      1  0.4839440000000  0.5944130000000  0.4853360000000 1.0
C      1  0.4991120000000  0.4108060000000  0.4790740000000 1.0
C      1  0.4456220000000  0.5000440000000  0.4956510000000 1.0
C      1  0.5753900000000  0.4348340000000  0.4981050000000 1.0
C      1  0.4460860000000  0.4909680000000  0.5662740000000 1.0
C      1  0.4917100000000  0.5066430000000  0.5386380000000 1.0
C      1  0.5921420000000  0.5193440000000  0.4841670000000 1.0
C      1  0.4460460000000  0.5405120000000  0.4846180000000 1.0
C      1  0.5350300000000  0.4381090000000  0.5551250000000 1.0
C      1  0.5042100000000  0.4761400000000  0.4303970000000 1.0
C      1  0.5374880000000  0.5457650000000  0.4831960000000 1.0
C      1  0.4716680000000  0.4370690000000  0.4910390000000 1.0
C      1  0.5703640000000  0.4830800000000  0.4843560000000 1.0
C      1  0.4639510000000  0.5436780000000  0.5801780000000 1.0
C      1  0.4980700000000  0.5885030000000  0.5142810000000 1.0
END
