TITL C-2778425-5191-156 0.00407178310036496 125000 -943.389457778638 0 0 161 (C1) n - 1
REM
REM in /home/nfs/bkarasulu/CARBON/AIRSS/Generating-Clusters/REBO/Only-C1/SD-CG/HFTN-CG
REM
REM
REM
REM
REM
REM ./C.cell (11c1c37f851c82e70ff6c80c92926a4b)
REM
REM compiler GCC version 9.2.1 20190827 (Red Hat 9.2.1-1)
REM options -cpp -mtune=generic -march=x86-64 -g -O0 -fpre-include=/usr/include/finclude/math-vector-fortran.h
REM seed -1210847975 -1114992487 1630004706 -1215448951 -549442461 118465703 -567935662 -739578604 747225621 1202605651 1645175817 -1312980469 -1063614496 -1884167128 -1304573687 -425201552 -1879006177 -330479687 492053741 -348197288 -1542655992 36425575 -870251882 -253491877 -1827372285 284077355 -563269503 1570652033 1344393288 -2003974873 -328664125 -1820471181 2035706399
REM
CELL 1.54180   50.00000   50.00000   50.00000   90.00000   90.00000   90.00000
LATT -1
SFAC C  
C      1  0.5404150000000  0.4931630000000  0.5668790000000 1.0
C      1  0.5550850000000  0.5348370000000  0.5402770000000 1.0
C      1  0.5088990000000  0.5722610000000  0.4232500000000 1.0
C      1  0.5976780000000  0.5191890000000  0.5133380000000 1.0
C      1  0.5951400000000  0.5504980000000  0.4426610000000 1.0
C      1  0.4352700000000  0.5012110000000  0.4726400000000 1.0
C      1  0.4488760000000  0.4668160000000  0.4493210000000 1.0
C      1  0.4222900000000  0.5095210000000  0.5414740000000 1.0
C      1  0.4416150000000  0.4445930000000  0.5630130000000 1.0
C      1  0.5155260000000  0.4966630000000  0.6086590000000 1.0
C      1  0.4721330000000  0.5997150000000  0.5514290000000 1.0
C      1  0.5083400000000  0.4332620000000  0.5696820000000 1.0
C      1  0.4164530000000  0.4478970000000  0.4630950000000 1.0
C      1  0.5604040000000  0.5628960000000  0.5570750000000 1.0
C      1  0.5190480000000  0.3991360000000  0.4995900000000 1.0
C      1  0.6087300000000  0.5161660000000  0.4834480000000 1.0
C      1  0.4226910000000  0.5457250000000  0.4620150000000 1.0
C      1  0.5592180000000  0.5881270000000  0.4573580000000 1.0
C      1  0.4121020000000  0.4379430000000  0.5177300000000 1.0
C      1  0.5402710000000  0.4753570000000  0.5179120000000 1.0
C      1  0.5229010000000  0.5554440000000  0.5030430000000 1.0
C      1  0.5291840000000  0.5812070000000  0.4469570000000 1.0
C      1  0.5645930000000  0.5707110000000  0.5254530000000 1.0
C      1  0.4254810000000  0.4119830000000  0.5162280000000 1.0
C      1  0.4355470000000  0.4301460000000  0.4411060000000 1.0
C      1  0.4188160000000  0.4790890000000  0.5540670000000 1.0
C      1  0.4321910000000  0.3988090000000  0.4917730000000 1.0
C      1  0.4845690000000  0.4491520000000  0.4523970000000 1.0
C      1  0.4799490000000  0.5991120000000  0.4292430000000 1.0
C      1  0.5353730000000  0.5493960000000  0.4516210000000 1.0
C      1  0.5456050000000  0.5326950000000  0.5074490000000 1.0
C      1  0.5225540000000  0.5323470000000  0.4015010000000 1.0
C      1  0.4967240000000  0.4687530000000  0.5315250000000 1.0
C      1  0.5048580000000  0.4452760000000  0.5169860000000 1.0
C      1  0.5914180000000  0.4901630000000  0.5287800000000 1.0
C      1  0.5707150000000  0.4850920000000  0.4647870000000 1.0
C      1  0.5708020000000  0.4709920000000  0.5148230000000 1.0
C      1  0.4965490000000  0.4891990000000  0.5714150000000 1.0
C      1  0.4628800000000  0.5030440000000  0.4879510000000 1.0
C      1  0.4856280000000  0.5068110000000  0.6055470000000 1.0
C      1  0.5059220000000  0.4599920000000  0.5843670000000 1.0
C      1  0.5276500000000  0.5529260000000  0.5366520000000 1.0
C      1  0.3982330000000  0.5129170000000  0.4965370000000 1.0
C      1  0.5256190000000  0.4260490000000  0.5452490000000 1.0
C      1  0.5864730000000  0.4483950000000  0.4971180000000 1.0
C      1  0.5561010000000  0.4733240000000  0.4296200000000 1.0
C      1  0.4389430000000  0.5556880000000  0.5627530000000 1.0
C      1  0.4839440000000  0.5858580000000  0.4528200000000 1.0
C      1  0.4867980000000  0.4400600000000  0.4919860000000 1.0
C      1  0.5035740000000  0.5077670000000  0.5363400000000 1.0
C      1  0.4934180000000  0.6064860000000  0.4978970000000 1.0
C      1  0.5137890000000  0.4845120000000  0.4992970000000 1.0
C      1  0.4826280000000  0.5355840000000  0.6011720000000 1.0
C      1  0.5298290000000  0.4786580000000  0.4083880000000 1.0
C      1  0.5086730000000  0.5551770000000  0.5970770000000 1.0
C      1  0.4875480000000  0.4961090000000  0.4715330000000 1.0
C      1  0.4134190000000  0.5204930000000  0.4714890000000 1.0
C      1  0.5786650000000  0.4415710000000  0.5295190000000 1.0
C      1  0.6021780000000  0.5186670000000  0.4498540000000 1.0
C      1  0.4531270000000  0.5166470000000  0.4255950000000 1.0
C      1  0.4642910000000  0.4853590000000  0.4036520000000 1.0
C      1  0.4632810000000  0.5491110000000  0.4205160000000 1.0
C      1  0.5773170000000  0.4994570000000  0.4350470000000 1.0
C      1  0.4627500000000  0.6046590000000  0.4955620000000 1.0
C      1  0.4467170000000  0.5681930000000  0.5401240000000 1.0
C      1  0.4616520000000  0.4615520000000  0.4177750000000 1.0
C      1  0.5778500000000  0.5434730000000  0.5090970000000 1.0
C      1  0.5395350000000  0.5932980000000  0.5210660000000 1.0
C      1  0.5045600000000  0.5945070000000  0.4748460000000 1.0
C      1  0.5463470000000  0.4178640000000  0.4590560000000 1.0
C      1  0.4408230000000  0.4620020000000  0.4802350000000 1.0
C      1  0.5577970000000  0.4579520000000  0.5733360000000 1.0
C      1  0.4349160000000  0.4911320000000  0.4298970000000 1.0
C      1  0.5294380000000  0.5763210000000  0.4811940000000 1.0
C      1  0.5070460000000  0.5356450000000  0.5513310000000 1.0
C      1  0.5173480000000  0.5143660000000  0.5730200000000 1.0
C      1  0.4624240000000  0.4376340000000  0.5809190000000 1.0
C      1  0.4176730000000  0.4519770000000  0.5428950000000 1.0
C      1  0.5689730000000  0.5309790000000  0.4318690000000 1.0
C      1  0.5372590000000  0.5079480000000  0.4931160000000 1.0
C      1  0.4759360000000  0.4879490000000  0.5158510000000 1.0
C      1  0.5562750000000  0.4129940000000  0.5462900000000 1.0
C      1  0.5140650000000  0.5116160000000  0.4700920000000 1.0
C      1  0.5251220000000  0.4593460000000  0.4357310000000 1.0
C      1  0.5413320000000  0.4823970000000  0.4706780000000 1.0
C      1  0.5447730000000  0.4071980000000  0.4855880000000 1.0
C      1  0.4108560000000  0.5268870000000  0.5188780000000 1.0
C      1  0.5374200000000  0.5539530000000  0.4188880000000 1.0
C      1  0.5626900000000  0.5414630000000  0.4640280000000 1.0
C      1  0.5109960000000  0.4285590000000  0.4740400000000 1.0
C      1  0.5699850000000  0.4271150000000  0.5657780000000 1.0
C      1  0.4612070000000  0.5428690000000  0.5830490000000 1.0
C      1  0.4041710000000  0.4530830000000  0.4941480000000 1.0
C      1  0.4852650000000  0.5776860000000  0.5611050000000 1.0
C      1  0.4297180000000  0.4834030000000  0.4988400000000 1.0
C      1  0.4518250000000  0.4407080000000  0.5248070000000 1.0
C      1  0.4399110000000  0.5439730000000  0.4407360000000 1.0
C      1  0.4468810000000  0.5808180000000  0.5103440000000 1.0
C      1  0.5786660000000  0.5176570000000  0.5420420000000 1.0
C      1  0.4774800000000  0.5480510000000  0.5556520000000 1.0
C      1  0.4861800000000  0.5604460000000  0.4093480000000 1.0
C      1  0.4939500000000  0.4008760000000  0.4794440000000 1.0
C      1  0.5334840000000  0.5810960000000  0.5526030000000 1.0
C      1  0.4709680000000  0.4936360000000  0.5551070000000 1.0
C      1  0.4946200000000  0.5436100000000  0.5022550000000 1.0
C      1  0.4305800000000  0.5650740000000  0.4848880000000 1.0
C      1  0.5696030000000  0.4944560000000  0.5616500000000 1.0
C      1  0.4593170000000  0.5267870000000  0.5098730000000 1.0
C      1  0.5121060000000  0.6090450000000  0.5174980000000 1.0
C      1  0.4988530000000  0.4664230000000  0.4778740000000 1.0
C      1  0.4779970000000  0.4037440000000  0.5440670000000 1.0
C      1  0.4664390000000  0.5480600000000  0.4841330000000 1.0
C      1  0.4968340000000  0.5134580000000  0.5061260000000 1.0
C      1  0.4844250000000  0.5040570000000  0.4207890000000 1.0
C      1  0.4577530000000  0.4131530000000  0.4281930000000 1.0
C      1  0.5593010000000  0.4488190000000  0.4531060000000 1.0
C      1  0.4836960000000  0.4815470000000  0.4443380000000 1.0
C      1  0.4480190000000  0.6308460000000  0.4927990000000 1.0
C      1  0.4899640000000  0.5557350000000  0.4639970000000 1.0
C      1  0.4842380000000  0.4455550000000  0.4125700000000 1.0
C      1  0.5083450000000  0.4073210000000  0.5289210000000 1.0
C      1  0.5834290000000  0.4663590000000  0.5522960000000 1.0
C      1  0.4572350000000  0.4417600000000  0.4961470000000 1.0
C      1  0.5155740000000  0.5068030000000  0.4153040000000 1.0
C      1  0.5063470000000  0.4566790000000  0.4005740000000 1.0
C      1  0.4211650000000  0.4598060000000  0.4313480000000 1.0
C      1  0.4725440000000  0.5217910000000  0.5367440000000 1.0
C      1  0.4547890000000  0.4667020000000  0.5420750000000 1.0
C      1  0.4432350000000  0.4909940000000  0.5247080000000 1.0
C      1  0.5819810000000  0.5676910000000  0.4689220000000 1.0
C      1  0.4600970000000  0.4312440000000  0.4636160000000 1.0
C      1  0.4322740000000  0.5254450000000  0.5676460000000 1.0
C      1  0.3973140000000  0.4824970000000  0.5000860000000 1.0
C      1  0.5105590000000  0.5756080000000  0.5751810000000 1.0
C      1  0.5313410000000  0.4381080000000  0.5070970000000 1.0
C      1  0.5000920000000  0.5440210000000  0.3896150000000 1.0
C      1  0.5337190000000  0.4735620000000  0.5914940000000 1.0
C      1  0.4591150000000  0.5794540000000  0.4728310000000 1.0
C      1  0.4734230000000  0.5624320000000  0.5204690000000 1.0
C      1  0.5510830000000  0.4162860000000  0.5160970000000 1.0
C      1  0.4894180000000  0.4219390000000  0.4327810000000 1.0
C      1  0.5569980000000  0.5904320000000  0.4916120000000 1.0
C      1  0.5852210000000  0.5735560000000  0.4990010000000 1.0
C      1  0.5194920000000  0.4318720000000  0.4434330000000 1.0
C      1  0.4652130000000  0.4875710000000  0.5958920000000 1.0
C      1  0.5662200000000  0.5656290000000  0.4324380000000 1.0
C      1  0.4493980000000  0.4123960000000  0.5349600000000 1.0
C      1  0.4806520000000  0.4007550000000  0.5102070000000 1.0
C      1  0.5225480000000  0.4920880000000  0.4450800000000 1.0
C      1  0.5862470000000  0.4562630000000  0.4693340000000 1.0
C      1  0.5216530000000  0.5276220000000  0.6009690000000 1.0
C      1  0.4425380000000  0.4949310000000  0.5726310000000 1.0
C      1  0.5232470000000  0.4858430000000  0.5422940000000 1.0
C      1  0.5104620000000  0.5391580000000  0.4622280000000 1.0
C      1  0.5479770000000  0.4514920000000  0.5411010000000 1.0
C      1  0.4751910000000  0.4610360000000  0.5930240000000 1.0
C      1  0.4827440000000  0.4199710000000  0.5698190000000 1.0
C      1  0.4612400000000  0.4044780000000  0.4824620000000 1.0
C      1  0.5358550000000  0.4513290000000  0.4777840000000 1.0
C      1  0.5777850000000  0.5145080000000  0.4719700000000 1.0
C      1  0.4322870000000  0.5437180000000  0.5092750000000 1.0
END
