TITL C-2778423-5760-740 0.00280348443833114 125000 -1107.97902523672 0 0 192 (C1) n - 1
REM
REM in /home/nfs/bkarasulu/CARBON/AIRSS/Generating-Clusters/REBO/Only-C1/SD-CG/HFTN-CG
REM
REM
REM
REM
REM
REM ./C.cell (11c1c37f851c82e70ff6c80c92926a4b)
REM
REM compiler GCC version 9.2.1 20190827 (Red Hat 9.2.1-1)
REM options -cpp -mtune=generic -march=x86-64 -g -O0 -fpre-include=/usr/include/finclude/math-vector-fortran.h
REM seed -1441134027 -1000633865 222616238 1891677441 1640935256 -463110291 -1837082944 1781086695 -244308426 -382035351 -145783516 1685321490 -625964727 867873117 1209846091 -1918811492 2106396656 -1207797367 127001390 -670960575 -983043241 -907190526 336274854 -1187154738 783571834 -153057537 597461608 -1675042890 1921986545 -105709578 -1357416234 -826523222 -545966154
REM
CELL 1.54180   50.00000   50.00000   50.00000   90.00000   90.00000   90.00000
LATT -1
SFAC C  
C      1  0.5155080000000  0.5119690000000  0.6025730000000 1.0
C      1  0.4835640000000  0.4894570000000  0.5541220000000 1.0
C      1  0.4651530000000  0.5862660000000  0.4684900000000 1.0
C      1  0.5463900000000  0.5939970000000  0.4726710000000 1.0
C      1  0.4428340000000  0.4495590000000  0.5320320000000 1.0
C      1  0.4539140000000  0.5506350000000  0.5522130000000 1.0
C      1  0.5455830000000  0.4812430000000  0.4575660000000 1.0
C      1  0.4428020000000  0.5207500000000  0.4075280000000 1.0
C      1  0.5626410000000  0.5670360000000  0.5465330000000 1.0
C      1  0.5271720000000  0.4399660000000  0.5849400000000 1.0
C      1  0.5160970000000  0.4166930000000  0.5718820000000 1.0
C      1  0.5306730000000  0.5516670000000  0.4713570000000 1.0
C      1  0.5207450000000  0.4525420000000  0.4322390000000 1.0
C      1  0.5973320000000  0.5129580000000  0.5177970000000 1.0
C      1  0.5784870000000  0.4135980000000  0.5059370000000 1.0
C      1  0.5703460000000  0.5059630000000  0.5002500000000 1.0
C      1  0.4824290000000  0.5010080000000  0.5219350000000 1.0
C      1  0.4517300000000  0.5637740000000  0.5839830000000 1.0
C      1  0.4203560000000  0.5718500000000  0.4487410000000 1.0
C      1  0.4083690000000  0.4537510000000  0.5516280000000 1.0
C      1  0.3997010000000  0.4451730000000  0.4764560000000 1.0
C      1  0.4633820000000  0.4878380000000  0.4723940000000 1.0
C      1  0.4529560000000  0.3926690000000  0.5168080000000 1.0
C      1  0.5011340000000  0.5388030000000  0.5753660000000 1.0
C      1  0.4834400000000  0.5633250000000  0.5044680000000 1.0
C      1  0.4950860000000  0.5921830000000  0.5516830000000 1.0
C      1  0.4292010000000  0.5373000000000  0.4814220000000 1.0
C      1  0.5120940000000  0.5181370000000  0.4469360000000 1.0
C      1  0.5689310000000  0.5292060000000  0.4127350000000 1.0
C      1  0.5771450000000  0.4631060000000  0.5752330000000 1.0
C      1  0.5845420000000  0.5757620000000  0.4881650000000 1.0
C      1  0.5017400000000  0.5413190000000  0.4249790000000 1.0
C      1  0.5181890000000  0.5689980000000  0.5414960000000 1.0
C      1  0.5997850000000  0.4866790000000  0.5365200000000 1.0
C      1  0.5208530000000  0.5621590000000  0.4360650000000 1.0
C      1  0.5429100000000  0.4771430000000  0.4243880000000 1.0
C      1  0.5501780000000  0.5563650000000  0.4221180000000 1.0
C      1  0.5672060000000  0.5114340000000  0.5648530000000 1.0
C      1  0.5322360000000  0.5138240000000  0.4131250000000 1.0
C      1  0.4558100000000  0.5937480000000  0.5278980000000 1.0
C      1  0.4949590000000  0.4638730000000  0.5034850000000 1.0
C      1  0.4850470000000  0.4186760000000  0.4227640000000 1.0
C      1  0.4875270000000  0.4176970000000  0.5716980000000 1.0
C      1  0.4612760000000  0.4971530000000  0.4061270000000 1.0
C      1  0.5843710000000  0.5634310000000  0.4605970000000 1.0
C      1  0.5781950000000  0.4895620000000  0.4510360000000 1.0
C      1  0.5103470000000  0.5704300000000  0.4907820000000 1.0
C      1  0.5497380000000  0.4489490000000  0.4600260000000 1.0
C      1  0.4626790000000  0.4499410000000  0.4600080000000 1.0
C      1  0.4542170000000  0.5484140000000  0.4067660000000 1.0
C      1  0.4336250000000  0.4996760000000  0.5646150000000 1.0
C      1  0.5612230000000  0.5262060000000  0.4740150000000 1.0
C      1  0.4687850000000  0.5181770000000  0.5656660000000 1.0
C      1  0.5816190000000  0.4675740000000  0.4250630000000 1.0
C      1  0.5599530000000  0.4125100000000  0.4473290000000 1.0
C      1  0.5536050000000  0.5768430000000  0.5011860000000 1.0
C      1  0.5006410000000  0.4398800000000  0.4101890000000 1.0
C      1  0.4628720000000  0.4669000000000  0.4177690000000 1.0
C      1  0.5198380000000  0.4400330000000  0.4639250000000 1.0
C      1  0.5166070000000  0.3993410000000  0.4673430000000 1.0
C      1  0.5594940000000  0.4834510000000  0.5922730000000 1.0
C      1  0.5606970000000  0.5400730000000  0.5920770000000 1.0
C      1  0.4847970000000  0.4346110000000  0.4895330000000 1.0
C      1  0.4511100000000  0.4375270000000  0.4893970000000 1.0
C      1  0.5328830000000  0.6002820000000  0.4419140000000 1.0
C      1  0.5436960000000  0.5872510000000  0.5290640000000 1.0
C      1  0.5156280000000  0.5036530000000  0.5303590000000 1.0
C      1  0.5557880000000  0.3977280000000  0.4965580000000 1.0
C      1  0.5721620000000  0.4756160000000  0.4896590000000 1.0
C      1  0.5372830000000  0.4966440000000  0.5700650000000 1.0
C      1  0.5667290000000  0.4382300000000  0.4339460000000 1.0
C      1  0.4463740000000  0.4754990000000  0.5181430000000 1.0
C      1  0.5379000000000  0.3931990000000  0.5191990000000 1.0
C      1  0.4756870000000  0.5447070000000  0.5277240000000 1.0
C      1  0.4561970000000  0.4170890000000  0.4246800000000 1.0
C      1  0.5266170000000  0.4060060000000  0.5457490000000 1.0
C      1  0.5806740000000  0.4496900000000  0.4716680000000 1.0
C      1  0.5286760000000  0.4761000000000  0.5455340000000 1.0
C      1  0.4752770000000  0.5887190000000  0.5792760000000 1.0
C      1  0.4307040000000  0.4312730000000  0.4355630000000 1.0
C      1  0.4862980000000  0.5961300000000  0.5129660000000 1.0
C      1  0.5240740000000  0.4294430000000  0.4924200000000 1.0
C      1  0.5435010000000  0.4495480000000  0.5059070000000 1.0
C      1  0.6026330000000  0.4933220000000  0.4714550000000 1.0
C      1  0.5350540000000  0.5555180000000  0.5876850000000 1.0
C      1  0.4264950000000  0.5303570000000  0.5517580000000 1.0
C      1  0.4625290000000  0.4996460000000  0.4401560000000 1.0
C      1  0.4775030000000  0.4435640000000  0.5806840000000 1.0
C      1  0.4853460000000  0.3911440000000  0.5178510000000 1.0
C      1  0.4524650000000  0.5267250000000  0.5164460000000 1.0
C      1  0.4800710000000  0.5636910000000  0.6019040000000 1.0
C      1  0.4900820000000  0.4721300000000  0.4310170000000 1.0
C      1  0.4101170000000  0.5487870000000  0.4611890000000 1.0
C      1  0.4620390000000  0.5260370000000  0.4617390000000 1.0
C      1  0.5349300000000  0.5117050000000  0.4829400000000 1.0
C      1  0.5071040000000  0.5267480000000  0.4926580000000 1.0
C      1  0.5958230000000  0.5375250000000  0.4579220000000 1.0
C      1  0.4313190000000  0.5897910000000  0.4703450000000 1.0
C      1  0.4644990000000  0.4682040000000  0.4954680000000 1.0
C      1  0.5931760000000  0.4420650000000  0.5010780000000 1.0
C      1  0.5695640000000  0.4396820000000  0.5517450000000 1.0
C      1  0.4360980000000  0.5344600000000  0.5836920000000 1.0
C      1  0.5495590000000  0.5140540000000  0.6036500000000 1.0
C      1  0.5176560000000  0.4268280000000  0.5254840000000 1.0
C      1  0.3816270000000  0.5154740000000  0.5128880000000 1.0
C      1  0.5103230000000  0.5839790000000  0.4600570000000 1.0
C      1  0.4009520000000  0.5366830000000  0.5319210000000 1.0
C      1  0.6039600000000  0.5216640000000  0.4854650000000 1.0
C      1  0.4996620000000  0.5292180000000  0.5441420000000 1.0
C      1  0.5150770000000  0.6058210000000  0.5275740000000 1.0
C      1  0.5801950000000  0.5187880000000  0.4400330000000 1.0
C      1  0.5407110000000  0.4804360000000  0.4919260000000 1.0
C      1  0.5301300000000  0.4831350000000  0.6076180000000 1.0
C      1  0.3737410000000  0.4645580000000  0.5106230000000 1.0
C      1  0.5508350000000  0.5083040000000  0.3845000000000 1.0
C      1  0.4385540000000  0.5637440000000  0.4279280000000 1.0
C      1  0.5056800000000  0.4554960000000  0.5324150000000 1.0
C      1  0.4136800000000  0.4853240000000  0.4532870000000 1.0
C      1  0.5785740000000  0.5491430000000  0.5711190000000 1.0
C      1  0.4243070000000  0.4936410000000  0.5073290000000 1.0
C      1  0.4243710000000  0.4029220000000  0.4721730000000 1.0
C      1  0.5307880000000  0.5271750000000  0.5690670000000 1.0
C      1  0.4510240000000  0.3969540000000  0.4701810000000 1.0
C      1  0.5511470000000  0.5349430000000  0.5460560000000 1.0
C      1  0.4989170000000  0.4653700000000  0.3928570000000 1.0
C      1  0.4339740000000  0.5838300000000  0.5424030000000 1.0
C      1  0.4848490000000  0.5615310000000  0.5622730000000 1.0
C      1  0.4421440000000  0.4750000000000  0.4509470000000 1.0
C      1  0.5150490000000  0.4578300000000  0.6041480000000 1.0
C      1  0.5148370000000  0.5446330000000  0.5207040000000 1.0
C      1  0.4895330000000  0.5019420000000  0.5852010000000 1.0
C      1  0.4872630000000  0.5816300000000  0.4274650000000 1.0
C      1  0.4158200000000  0.4743840000000  0.5627920000000 1.0
C      1  0.4400510000000  0.4529220000000  0.4177720000000 1.0
C      1  0.4940220000000  0.4606110000000  0.4605840000000 1.0
C      1  0.4465160000000  0.5051950000000  0.5954720000000 1.0
C      1  0.5987740000000  0.4552790000000  0.4501690000000 1.0
C      1  0.5452080000000  0.4005520000000  0.4692800000000 1.0
C      1  0.5141030000000  0.4867830000000  0.4129660000000 1.0
C      1  0.5211950000000  0.6013760000000  0.4943870000000 1.0
C      1  0.4716340000000  0.4843300000000  0.6061760000000 1.0
C      1  0.4508770000000  0.5866490000000  0.4972820000000 1.0
C      1  0.5007830000000  0.4053600000000  0.4964550000000 1.0
C      1  0.5739580000000  0.5448000000000  0.5233650000000 1.0
C      1  0.5805760000000  0.5442630000000  0.4954160000000 1.0
C      1  0.4502740000000  0.5021010000000  0.5363900000000 1.0
C      1  0.4113000000000  0.5830230000000  0.4970040000000 1.0
C      1  0.4864670000000  0.4579710000000  0.6034950000000 1.0
C      1  0.4077890000000  0.5045030000000  0.5263230000000 1.0
C      1  0.4603060000000  0.5500630000000  0.4847880000000 1.0
C      1  0.4127370000000  0.5640590000000  0.5246720000000 1.0
C      1  0.4751970000000  0.4607330000000  0.5577690000000 1.0
C      1  0.5547230000000  0.5671370000000  0.4527300000000 1.0
C      1  0.4701650000000  0.5162700000000  0.6170140000000 1.0
C      1  0.4379210000000  0.5309510000000  0.4386950000000 1.0
C      1  0.6072230000000  0.4712450000000  0.4921810000000 1.0
C      1  0.4127830000000  0.5161180000000  0.4520750000000 1.0
C      1  0.4417380000000  0.5587890000000  0.5122350000000 1.0
C      1  0.5026020000000  0.4927750000000  0.4907190000000 1.0
C      1  0.3908520000000  0.4423070000000  0.5041920000000 1.0
C      1  0.5405970000000  0.5466500000000  0.5014620000000 1.0
C      1  0.3797880000000  0.4894820000000  0.4949450000000 1.0
C      1  0.4921030000000  0.5353770000000  0.6067910000000 1.0
C      1  0.5121680000000  0.4893600000000  0.4593620000000 1.0
C      1  0.5904910000000  0.5282790000000  0.5469770000000 1.0
C      1  0.5857100000000  0.4648410000000  0.5252170000000 1.0
C      1  0.5427880000000  0.5400840000000  0.3935380000000 1.0
C      1  0.5097390000000  0.5980210000000  0.4227420000000 1.0
C      1  0.5895760000000  0.4896790000000  0.5632850000000 1.0
C      1  0.5450580000000  0.4549220000000  0.5669890000000 1.0
C      1  0.3957010000000  0.4740610000000  0.4714890000000 1.0
C      1  0.4979960000000  0.4070320000000  0.4474250000000 1.0
C      1  0.5459190000000  0.5199940000000  0.4439120000000 1.0
C      1  0.4359730000000  0.4197550000000  0.5065230000000 1.0
C      1  0.4439240000000  0.4163680000000  0.5397430000000 1.0
C      1  0.4823910000000  0.5474340000000  0.4073910000000 1.0
C      1  0.5409440000000  0.5151050000000  0.5150060000000 1.0
C      1  0.4900290000000  0.6028590000000  0.4799660000000 1.0
C      1  0.4977810000000  0.5434880000000  0.4644230000000 1.0
C      1  0.4257580000000  0.5078130000000  0.4837670000000 1.0
C      1  0.4770400000000  0.4796070000000  0.3828220000000 1.0
C      1  0.5235250000000  0.5756910000000  0.5737310000000 1.0
C      1  0.4748900000000  0.4407280000000  0.5335460000000 1.0
C      1  0.4727780000000  0.4175190000000  0.4626460000000 1.0
C      1  0.4764630000000  0.4098430000000  0.5437810000000 1.0
C      1  0.4155840000000  0.4272820000000  0.4598740000000 1.0
C      1  0.4682710000000  0.5119200000000  0.4925180000000 1.0
C      1  0.5672300000000  0.4947890000000  0.4107910000000 1.0
C      1  0.5565820000000  0.4701970000000  0.5268470000000 1.0
C      1  0.4771190000000  0.5657230000000  0.4490490000000 1.0
C      1  0.5640640000000  0.4312180000000  0.5259170000000 1.0
C      1  0.4124510000000  0.4355930000000  0.5243690000000 1.0
END
