TITL C-2778432-5617-1355 -7.07619093260309e-05 125000 -44.4865886133065 0 0 9 (Cs) n - 1
REM
REM in /home/nfs/bkarasulu/CARBON/AIRSS/Generating-Clusters/REBO/Only-C1/SD-CG/HFTN-CG
REM
REM
REM
REM
REM
REM ./C.cell (11c1c37f851c82e70ff6c80c92926a4b)
REM
REM compiler GCC version 9.2.1 20190827 (Red Hat 9.2.1-1)
REM options -cpp -mtune=generic -march=x86-64 -g -O0 -fpre-include=/usr/include/finclude/math-vector-fortran.h
REM seed -835727828 -805303373 -221474828 1957894957 -1764225181 -1565200966 -66867786 -968819725 505457289 954603215 487771297 -315809765 -1344451224 1061323698 -297280168 -330335514 -1938944418 -71500726 566486116 747637623 -1919771210 -2121712162 -1771302874 1457849087 450383327 -923205316 492002815 -1098494853 -1970455587 679247008 -2055798308 -320770520 752321316
REM
CELL 1.54180   50.00000   50.00000   50.00000   90.00000   90.00000   90.00000
LATT -1
SFAC C  
C      1  0.4498740000000  0.4734860000000  0.5356570000000 1.0
C      1  0.4865910000000  0.5047060000000  0.5116970000000 1.0
C      1  0.5298810000000  0.4540520000000  0.4674460000000 1.0
C      1  0.5137780000000  0.5278420000000  0.4939600000000 1.0
C      1  0.5093450000000  0.4969960000000  0.4918980000000 1.0
C      1  0.5321390000000  0.5434660000000  0.4819800000000 1.0
C      1  0.5198240000000  0.4750830000000  0.4794210000000 1.0
C      1  0.4677520000000  0.4886880000000  0.5239900000000 1.0
C      1  0.4908160000000  0.5356810000000  0.5139500000000 1.0
END
