TITL C-2778425-5191-515 0.000633870261969074 125000 -276.880010851165 0 0 49 (C1) n - 1
REM
REM in /home/nfs/bkarasulu/CARBON/AIRSS/Generating-Clusters/REBO/Only-C1/SD-CG/HFTN-CG
REM
REM
REM
REM
REM
REM ./C.cell (11c1c37f851c82e70ff6c80c92926a4b)
REM
REM compiler GCC version 9.2.1 20190827 (Red Hat 9.2.1-1)
REM options -cpp -mtune=generic -march=x86-64 -g -O0 -fpre-include=/usr/include/finclude/math-vector-fortran.h
REM seed -1959758674 1970422958 -963752504 576835244 -1705602197 -1378180961 1791809877 -317957639 -303345793 205908734 747698900 -1230542281 1453760841 -793575456 -2060380873 418320416 -188065589 709360168 -1641050843 36447153 -886888353 -61263066 -972105889 -536563170 -1664169909 20699560 -1371012397 84886529 -1040799532 -2143244827 1550575636 -223212024 -814589928
REM
CELL 1.54180   50.00000   50.00000   50.00000   90.00000   90.00000   90.00000
LATT -1
SFAC C  
C      1  0.4787300000000  0.5620760000000  0.4586500000000 1.0
C      1  0.4558430000000  0.4924230000000  0.5061120000000 1.0
C      1  0.5643270000000  0.4736280000000  0.4539020000000 1.0
C      1  0.5592200000000  0.5221170000000  0.5289970000000 1.0
C      1  0.4715120000000  0.4683060000000  0.5484160000000 1.0
C      1  0.5877960000000  0.5145990000000  0.4892410000000 1.0
C      1  0.5405850000000  0.5277100000000  0.5465680000000 1.0
C      1  0.5409030000000  0.4950080000000  0.4918500000000 1.0
C      1  0.5355450000000  0.4473190000000  0.4872450000000 1.0
C      1  0.5067730000000  0.4685170000000  0.4560080000000 1.0
C      1  0.4998680000000  0.4814780000000  0.4931590000000 1.0
C      1  0.5308200000000  0.5148240000000  0.4427820000000 1.0
C      1  0.4235630000000  0.5128800000000  0.4742520000000 1.0
C      1  0.5644910000000  0.5115700000000  0.5036940000000 1.0
C      1  0.4545290000000  0.5496100000000  0.4573290000000 1.0
C      1  0.5178660000000  0.5227820000000  0.5703310000000 1.0
C      1  0.4231620000000  0.4711770000000  0.5145910000000 1.0
C      1  0.5268530000000  0.4215210000000  0.4381430000000 1.0
C      1  0.4695430000000  0.5033040000000  0.4563710000000 1.0
C      1  0.4648730000000  0.5525980000000  0.5225610000000 1.0
C      1  0.5077660000000  0.5142660000000  0.4225550000000 1.0
C      1  0.5265690000000  0.5513230000000  0.4870890000000 1.0
C      1  0.5100530000000  0.4676630000000  0.6193690000000 1.0
C      1  0.4943200000000  0.4849910000000  0.5492840000000 1.0
C      1  0.5086690000000  0.5382960000000  0.5415070000000 1.0
C      1  0.5247500000000  0.4907480000000  0.4632550000000 1.0
C      1  0.4592630000000  0.5045150000000  0.5335260000000 1.0
C      1  0.5532220000000  0.4680490000000  0.4793860000000 1.0
C      1  0.4779530000000  0.4715690000000  0.4612140000000 1.0
C      1  0.4460180000000  0.4983050000000  0.5554170000000 1.0
C      1  0.4255050000000  0.4960490000000  0.4965040000000 1.0
C      1  0.5072270000000  0.4943300000000  0.5726620000000 1.0
C      1  0.5086770000000  0.4806390000000  0.5966410000000 1.0
C      1  0.4643190000000  0.4639250000000  0.4854390000000 1.0
C      1  0.4477600000000  0.4616150000000  0.5354770000000 1.0
C      1  0.5313990000000  0.5411040000000  0.4568950000000 1.0
C      1  0.4984400000000  0.5027110000000  0.5269540000000 1.0
C      1  0.4459610000000  0.5228120000000  0.4599340000000 1.0
C      1  0.5212920000000  0.5095430000000  0.5118660000000 1.0
C      1  0.4787060000000  0.5302250000000  0.5317420000000 1.0
C      1  0.4802840000000  0.5001940000000  0.4885440000000 1.0
C      1  0.4843790000000  0.5105780000000  0.4301860000000 1.0
C      1  0.5057980000000  0.5599330000000  0.4636270000000 1.0
C      1  0.5248050000000  0.5391730000000  0.5117040000000 1.0
C      1  0.4466640000000  0.4511340000000  0.5049820000000 1.0
C      1  0.5559390000000  0.4947400000000  0.4385710000000 1.0
C      1  0.5106640000000  0.4564800000000  0.4947400000000 1.0
C      1  0.5196620000000  0.5373700000000  0.5939370000000 1.0
C      1  0.5171330000000  0.4442710000000  0.4467910000000 1.0
END
