TITL C-2778430-5657-281 -0.000100060076880716 125000 -897.698700213555 0 0 152 (C1) n - 1
REM
REM in /home/nfs/bkarasulu/CARBON/AIRSS/Generating-Clusters/REBO/Only-C1/SD-CG/HFTN-CG
REM
REM
REM
REM
REM
REM ./C.cell (11c1c37f851c82e70ff6c80c92926a4b)
REM
REM compiler GCC version 9.2.1 20190827 (Red Hat 9.2.1-1)
REM options -cpp -mtune=generic -march=x86-64 -g -O0 -fpre-include=/usr/include/finclude/math-vector-fortran.h
REM seed 1496052259 -1342301571 -13512475 -2073349328 -1951977108 350109819 1271972529 1004672374 -807726423 732970396 -2000975986 1596629444 1767579915 -319599214 -896021737 657951132 1643673880 319720166 -1787330901 -741079340 -610283732 -1804074215 719519861 -1980739182 -980849717 -1281940228 -860290005 -1406272293 1737032357 -621465746 -1371158713 -2045118784 255722466
REM
CELL 1.54180   50.00000   50.00000   50.00000   90.00000   90.00000   90.00000
LATT -1
SFAC C  
C      1  0.5335810000000  0.4141370000000  0.4967470000000 1.0
C      1  0.5080670000000  0.5410520000000  0.4670490000000 1.0
C      1  0.5942210000000  0.4469380000000  0.4955460000000 1.0
C      1  0.5116670000000  0.4467720000000  0.5021600000000 1.0
C      1  0.3920480000000  0.4548130000000  0.5302770000000 1.0
C      1  0.5094950000000  0.4412330000000  0.5810330000000 1.0
C      1  0.5232040000000  0.4172700000000  0.4654700000000 1.0
C      1  0.4659310000000  0.5899790000000  0.4808250000000 1.0
C      1  0.4065030000000  0.5254600000000  0.4803370000000 1.0
C      1  0.4980470000000  0.6016700000000  0.4796880000000 1.0
C      1  0.4620990000000  0.5213230000000  0.5235140000000 1.0
C      1  0.5415180000000  0.4710100000000  0.5131240000000 1.0
C      1  0.5100850000000  0.5170430000000  0.5648700000000 1.0
C      1  0.5044580000000  0.4335130000000  0.4171400000000 1.0
C      1  0.4589220000000  0.5268070000000  0.4430350000000 1.0
C      1  0.5527680000000  0.4845510000000  0.4341890000000 1.0
C      1  0.4489040000000  0.5293990000000  0.5488350000000 1.0
C      1  0.4105420000000  0.4737480000000  0.4694650000000 1.0
C      1  0.5114830000000  0.4474220000000  0.4539630000000 1.0
C      1  0.4919290000000  0.4970390000000  0.4599530000000 1.0
C      1  0.5740950000000  0.4515810000000  0.4766390000000 1.0
C      1  0.4921580000000  0.4130750000000  0.5399680000000 1.0
C      1  0.4900730000000  0.5419890000000  0.5427730000000 1.0
C      1  0.4342960000000  0.5635230000000  0.5344730000000 1.0
C      1  0.4873230000000  0.5273870000000  0.3935450000000 1.0
C      1  0.5474380000000  0.5411910000000  0.4188870000000 1.0
C      1  0.5097620000000  0.5160510000000  0.5328270000000 1.0
C      1  0.5817810000000  0.4806410000000  0.5499420000000 1.0
C      1  0.5263350000000  0.5910310000000  0.4803310000000 1.0
C      1  0.5284230000000  0.5619600000000  0.4657610000000 1.0
C      1  0.4253610000000  0.4277400000000  0.4948170000000 1.0
C      1  0.5829980000000  0.4683920000000  0.4546320000000 1.0
C      1  0.5174880000000  0.4657230000000  0.5935720000000 1.0
C      1  0.4826030000000  0.4991620000000  0.4124970000000 1.0
C      1  0.5967080000000  0.4947590000000  0.4614250000000 1.0
C      1  0.4073150000000  0.4714810000000  0.5552060000000 1.0
C      1  0.5559330000000  0.4332940000000  0.4265530000000 1.0
C      1  0.4798190000000  0.4078890000000  0.4917500000000 1.0
C      1  0.5533380000000  0.5843970000000  0.4601110000000 1.0
C      1  0.5622680000000  0.4450090000000  0.5189930000000 1.0
C      1  0.5234750000000  0.5160770000000  0.6068900000000 1.0
C      1  0.4180230000000  0.5374990000000  0.5428400000000 1.0
C      1  0.5568230000000  0.4929550000000  0.5675560000000 1.0
C      1  0.4596690000000  0.5397770000000  0.5746510000000 1.0
C      1  0.5599890000000  0.4959510000000  0.4863340000000 1.0
C      1  0.5176710000000  0.4233620000000  0.5255340000000 1.0
C      1  0.4704910000000  0.4393080000000  0.5436400000000 1.0
C      1  0.5541330000000  0.5581990000000  0.5448170000000 1.0
C      1  0.5414270000000  0.5280570000000  0.4492190000000 1.0
C      1  0.5033630000000  0.4908590000000  0.4902860000000 1.0
C      1  0.4997600000000  0.4506670000000  0.5507890000000 1.0
C      1  0.4049160000000  0.5227000000000  0.5667150000000 1.0
C      1  0.4891680000000  0.4196670000000  0.5732970000000 1.0
C      1  0.5179970000000  0.5398750000000  0.4018620000000 1.0
C      1  0.4254990000000  0.5597710000000  0.4910350000000 1.0
C      1  0.5881740000000  0.5186210000000  0.4473820000000 1.0
C      1  0.3999520000000  0.4398870000000  0.5119200000000 1.0
C      1  0.4748410000000  0.4984760000000  0.5621120000000 1.0
C      1  0.4679920000000  0.4835820000000  0.5984150000000 1.0
C      1  0.4976290000000  0.5649680000000  0.5957670000000 1.0
C      1  0.4543540000000  0.4480510000000  0.4250930000000 1.0
C      1  0.5163370000000  0.4624700000000  0.4041040000000 1.0
C      1  0.5045870000000  0.5461610000000  0.5063920000000 1.0
C      1  0.5125380000000  0.5151970000000  0.4480380000000 1.0
C      1  0.4871160000000  0.4369840000000  0.4852330000000 1.0
C      1  0.5502330000000  0.5554420000000  0.5053700000000 1.0
C      1  0.6082540000000  0.4994880000000  0.4904790000000 1.0
C      1  0.5509120000000  0.4649090000000  0.5513760000000 1.0
C      1  0.5154330000000  0.5643390000000  0.4230060000000 1.0
C      1  0.4005620000000  0.4963550000000  0.4703430000000 1.0
C      1  0.4470750000000  0.4748680000000  0.4342410000000 1.0
C      1  0.4251390000000  0.4930470000000  0.4307340000000 1.0
C      1  0.4657660000000  0.4874970000000  0.4776940000000 1.0
C      1  0.5210430000000  0.5537550000000  0.5349130000000 1.0
C      1  0.5866520000000  0.4650120000000  0.5233620000000 1.0
C      1  0.4416800000000  0.4536740000000  0.5202230000000 1.0
C      1  0.5337160000000  0.5828550000000  0.5097020000000 1.0
C      1  0.4951390000000  0.4009720000000  0.4675040000000 1.0
C      1  0.5320300000000  0.4211730000000  0.4327730000000 1.0
C      1  0.4701400000000  0.4056610000000  0.5179700000000 1.0
C      1  0.4220170000000  0.5747550000000  0.5129460000000 1.0
C      1  0.4380700000000  0.5279400000000  0.4922970000000 1.0
C      1  0.4826430000000  0.6029060000000  0.5079330000000 1.0
C      1  0.4623760000000  0.4586310000000  0.5828950000000 1.0
C      1  0.5017860000000  0.4724630000000  0.5173700000000 1.0
C      1  0.5823580000000  0.5570240000000  0.5288450000000 1.0
C      1  0.4789140000000  0.4737220000000  0.3918410000000 1.0
C      1  0.4715480000000  0.4893790000000  0.4381970000000 1.0
C      1  0.5145250000000  0.5106790000000  0.4169570000000 1.0
C      1  0.4057830000000  0.5261120000000  0.5143160000000 1.0
C      1  0.4343600000000  0.4868840000000  0.5431070000000 1.0
C      1  0.4600760000000  0.4707610000000  0.5512730000000 1.0
C      1  0.4910790000000  0.5594950000000  0.4360600000000 1.0
C      1  0.4335410000000  0.5071190000000  0.5194680000000 1.0
C      1  0.4430170000000  0.4220640000000  0.5567090000000 1.0
C      1  0.5245300000000  0.5620220000000  0.5866230000000 1.0
C      1  0.5437920000000  0.5213990000000  0.5599090000000 1.0
C      1  0.4245160000000  0.5411410000000  0.4570640000000 1.0
C      1  0.5633420000000  0.5129670000000  0.4292870000000 1.0
C      1  0.4786660000000  0.5793250000000  0.5507510000000 1.0
C      1  0.4800950000000  0.5555090000000  0.4673410000000 1.0
C      1  0.5285680000000  0.4620740000000  0.4312900000000 1.0
C      1  0.5251130000000  0.4938810000000  0.5236040000000 1.0
C      1  0.4927490000000  0.4994730000000  0.3744710000000 1.0
C      1  0.4647270000000  0.5607160000000  0.5298760000000 1.0
C      1  0.4497900000000  0.5080620000000  0.5832440000000 1.0
C      1  0.4885920000000  0.5156740000000  0.5877040000000 1.0
C      1  0.5442910000000  0.5728870000000  0.4310010000000 1.0
C      1  0.5351040000000  0.5353250000000  0.5897160000000 1.0
C      1  0.5545580000000  0.5448390000000  0.4733250000000 1.0
C      1  0.4936110000000  0.5977430000000  0.5337350000000 1.0
C      1  0.5466040000000  0.5164020000000  0.4994380000000 1.0
C      1  0.5006210000000  0.4906810000000  0.6053790000000 1.0
C      1  0.4668640000000  0.4543720000000  0.4759150000000 1.0
C      1  0.5158770000000  0.4881570000000  0.3934170000000 1.0
C      1  0.5702000000000  0.4577070000000  0.4287980000000 1.0
C      1  0.4333010000000  0.4564650000000  0.4812110000000 1.0
C      1  0.4278990000000  0.4476820000000  0.5461510000000 1.0
C      1  0.4486120000000  0.4762900000000  0.5028980000000 1.0
C      1  0.5818190000000  0.5735470000000  0.4721620000000 1.0
C      1  0.5220380000000  0.5933930000000  0.5343710000000 1.0
C      1  0.4763690000000  0.5642130000000  0.5002310000000 1.0
C      1  0.5310720000000  0.5747020000000  0.5599800000000 1.0
C      1  0.4626630000000  0.4291640000000  0.5811900000000 1.0
C      1  0.4890550000000  0.4231890000000  0.4456800000000 1.0
C      1  0.5517670000000  0.5296650000000  0.5278370000000 1.0
C      1  0.4475200000000  0.5641650000000  0.4677520000000 1.0
C      1  0.4203660000000  0.4985820000000  0.5714750000000 1.0
C      1  0.4622560000000  0.5200030000000  0.4732490000000 1.0
C      1  0.4432470000000  0.4194410000000  0.5225430000000 1.0
C      1  0.4304470000000  0.5208960000000  0.4350890000000 1.0
C      1  0.5415970000000  0.4517330000000  0.4858160000000 1.0
C      1  0.4765010000000  0.4491840000000  0.4056850000000 1.0
C      1  0.5169650000000  0.5194420000000  0.4917280000000 1.0
C      1  0.4984130000000  0.4818550000000  0.5501930000000 1.0
C      1  0.4786790000000  0.5246800000000  0.5014960000000 1.0
C      1  0.4760240000000  0.5382100000000  0.4238320000000 1.0
C      1  0.5318340000000  0.4480850000000  0.5443410000000 1.0
C      1  0.4588320000000  0.4285680000000  0.4457130000000 1.0
C      1  0.5248390000000  0.4879810000000  0.5709210000000 1.0
C      1  0.5596380000000  0.4212040000000  0.5042330000000 1.0
C      1  0.5197990000000  0.4713070000000  0.4716920000000 1.0
C      1  0.5463840000000  0.4849940000000  0.4643250000000 1.0
C      1  0.5984940000000  0.5345740000000  0.5318890000000 1.0
C      1  0.4421790000000  0.4208140000000  0.4660310000000 1.0
C      1  0.6011410000000  0.5040140000000  0.5427530000000 1.0
C      1  0.5833760000000  0.4851620000000  0.4978650000000 1.0
C      1  0.5852070000000  0.5444510000000  0.4596460000000 1.0
C      1  0.6163970000000  0.5131040000000  0.5146820000000 1.0
C      1  0.4755270000000  0.5641780000000  0.5752400000000 1.0
C      1  0.4848590000000  0.5400160000000  0.6056940000000 1.0
C      1  0.5799010000000  0.5691310000000  0.5007720000000 1.0
END
