TITL C-2778430-5657-838 0.000584913400553111 125000 -650.962421209453 0 0 115 (C1) n - 1
REM
REM in /home/nfs/bkarasulu/CARBON/AIRSS/Generating-Clusters/REBO/Only-C1/SD-CG/HFTN-CG
REM
REM
REM
REM
REM
REM ./C.cell (11c1c37f851c82e70ff6c80c92926a4b)
REM
REM compiler GCC version 9.2.1 20190827 (Red Hat 9.2.1-1)
REM options -cpp -mtune=generic -march=x86-64 -g -O0 -fpre-include=/usr/include/finclude/math-vector-fortran.h
REM seed 1631959848 475647104 1609467787 608484069 118951348 -804198824 -514716177 -604503946 467291452 1563049408 -1152956506 -396320061 1476986870 -759677642 -634360534 677959489 1430562577 1120556189 -693739329 -751076709 -1934737334 2141219537 576603331 656893465 -1388561594 -1502662512 189215967 -644873477 661730890 2022727294 1345681512 -825936697 -1187214226
REM
CELL 1.54180   50.00000   50.00000   50.00000   90.00000   90.00000   90.00000
LATT -1
SFAC C  
C      1  0.5050890000000  0.5438620000000  0.4855390000000 1.0
C      1  0.4772000000000  0.4598480000000  0.4825790000000 1.0
C      1  0.4752150000000  0.5592840000000  0.4891910000000 1.0
C      1  0.4701940000000  0.5271210000000  0.4946250000000 1.0
C      1  0.5084590000000  0.4056830000000  0.5096930000000 1.0
C      1  0.4863690000000  0.5167800000000  0.5215480000000 1.0
C      1  0.5226630000000  0.5605670000000  0.4461800000000 1.0
C      1  0.4272990000000  0.5068330000000  0.5595190000000 1.0
C      1  0.4685660000000  0.4573180000000  0.4298020000000 1.0
C      1  0.4257460000000  0.5132410000000  0.4435320000000 1.0
C      1  0.4270630000000  0.5458380000000  0.5060430000000 1.0
C      1  0.5305350000000  0.4317500000000  0.4741990000000 1.0
C      1  0.5771170000000  0.4572370000000  0.4894040000000 1.0
C      1  0.4377500000000  0.4982210000000  0.5222990000000 1.0
C      1  0.4630960000000  0.5706730000000  0.4432100000000 1.0
C      1  0.5795940000000  0.4758550000000  0.5502360000000 1.0
C      1  0.5426250000000  0.4697550000000  0.5135800000000 1.0
C      1  0.5742540000000  0.4663530000000  0.4506990000000 1.0
C      1  0.5968630000000  0.4782930000000  0.4887420000000 1.0
C      1  0.5416260000000  0.5122730000000  0.4813180000000 1.0
C      1  0.5654990000000  0.4296040000000  0.4933260000000 1.0
C      1  0.5607810000000  0.4927040000000  0.4978380000000 1.0
C      1  0.5505140000000  0.4844290000000  0.4343680000000 1.0
C      1  0.4350930000000  0.4639990000000  0.4278370000000 1.0
C      1  0.5786740000000  0.5213900000000  0.4693710000000 1.0
C      1  0.5318690000000  0.5295110000000  0.5253840000000 1.0
C      1  0.5084220000000  0.5365550000000  0.4543340000000 1.0
C      1  0.4378150000000  0.4763460000000  0.5485340000000 1.0
C      1  0.5380220000000  0.4533970000000  0.4424930000000 1.0
C      1  0.4110640000000  0.4796800000000  0.4840570000000 1.0
C      1  0.5534020000000  0.5703580000000  0.5343990000000 1.0
C      1  0.5523020000000  0.4279800000000  0.5183890000000 1.0
C      1  0.4801140000000  0.4615930000000  0.5279590000000 1.0
C      1  0.4058610000000  0.4861050000000  0.5425520000000 1.0
C      1  0.5604980000000  0.4362560000000  0.4600200000000 1.0
C      1  0.4221310000000  0.4875200000000  0.4262460000000 1.0
C      1  0.5091180000000  0.5829140000000  0.4812730000000 1.0
C      1  0.4783430000000  0.4138390000000  0.4956280000000 1.0
C      1  0.4516600000000  0.4294180000000  0.4855190000000 1.0
C      1  0.5317930000000  0.4731130000000  0.5750580000000 1.0
C      1  0.5208640000000  0.4905410000000  0.5988730000000 1.0
C      1  0.4767000000000  0.5307670000000  0.4612710000000 1.0
C      1  0.5138410000000  0.5167240000000  0.5005230000000 1.0
C      1  0.5407550000000  0.5104020000000  0.6060210000000 1.0
C      1  0.5270790000000  0.4176780000000  0.5275000000000 1.0
C      1  0.5396260000000  0.5701120000000  0.4723560000000 1.0
C      1  0.5114320000000  0.4542040000000  0.5635180000000 1.0
C      1  0.5263880000000  0.5558850000000  0.5071420000000 1.0
C      1  0.4834130000000  0.5766220000000  0.4630800000000 1.0
C      1  0.5263040000000  0.5115910000000  0.4507110000000 1.0
C      1  0.5171350000000  0.4309250000000  0.5508380000000 1.0
C      1  0.5168580000000  0.4838090000000  0.4331720000000 1.0
C      1  0.5079240000000  0.5339590000000  0.5775550000000 1.0
C      1  0.5614790000000  0.5254050000000  0.5202720000000 1.0
C      1  0.4634450000000  0.5210750000000  0.4338720000000 1.0
C      1  0.4706170000000  0.4990840000000  0.5756520000000 1.0
C      1  0.4941550000000  0.5036830000000  0.5509390000000 1.0
C      1  0.4375200000000  0.4467090000000  0.4525000000000 1.0
C      1  0.4974000000000  0.4478500000000  0.5034910000000 1.0
C      1  0.5261540000000  0.4500150000000  0.4962510000000 1.0
C      1  0.6098600000000  0.5250560000000  0.5056290000000 1.0
C      1  0.4370750000000  0.5634730000000  0.4543690000000 1.0
C      1  0.3984100000000  0.5097390000000  0.4854130000000 1.0
C      1  0.5387860000000  0.5293720000000  0.5855250000000 1.0
C      1  0.4181850000000  0.4715500000000  0.5141410000000 1.0
C      1  0.4636520000000  0.4657680000000  0.5746190000000 1.0
C      1  0.5763520000000  0.5035600000000  0.5398270000000 1.0
C      1  0.5226910000000  0.4744150000000  0.4648200000000 1.0
C      1  0.5673230000000  0.5517250000000  0.5496190000000 1.0
C      1  0.5602660000000  0.4533070000000  0.5351400000000 1.0
C      1  0.5835800000000  0.5068370000000  0.4327530000000 1.0
C      1  0.5519570000000  0.5394690000000  0.4634020000000 1.0
C      1  0.5558660000000  0.5180260000000  0.4368430000000 1.0
C      1  0.5578990000000  0.4604730000000  0.5681590000000 1.0
C      1  0.4609550000000  0.4837520000000  0.4891830000000 1.0
C      1  0.4823900000000  0.5454020000000  0.5580370000000 1.0
C      1  0.4882360000000  0.4705220000000  0.5544980000000 1.0
C      1  0.5743410000000  0.5459180000000  0.5067460000000 1.0
C      1  0.5514430000000  0.4722630000000  0.4747110000000 1.0
C      1  0.5553940000000  0.5710700000000  0.5008520000000 1.0
C      1  0.4976280000000  0.5066120000000  0.5904900000000 1.0
C      1  0.5142770000000  0.5449830000000  0.5470480000000 1.0
C      1  0.4571960000000  0.5718060000000  0.5329220000000 1.0
C      1  0.5023350000000  0.5764200000000  0.5130060000000 1.0
C      1  0.4551850000000  0.5258680000000  0.5644730000000 1.0
C      1  0.5913820000000  0.5013740000000  0.5099170000000 1.0
C      1  0.4687970000000  0.4412280000000  0.4583110000000 1.0
C      1  0.4802980000000  0.4284460000000  0.5263110000000 1.0
C      1  0.4638800000000  0.5567940000000  0.4162600000000 1.0
C      1  0.4916110000000  0.4801410000000  0.4186300000000 1.0
C      1  0.5275440000000  0.5729790000000  0.5437850000000 1.0
C      1  0.4293050000000  0.5290850000000  0.5342030000000 1.0
C      1  0.5941170000000  0.4922700000000  0.4605510000000 1.0
C      1  0.5037290000000  0.4905490000000  0.4803130000000 1.0
C      1  0.4440040000000  0.4486310000000  0.5402420000000 1.0
C      1  0.4836070000000  0.5107990000000  0.4092810000000 1.0
C      1  0.4666150000000  0.4370520000000  0.5563490000000 1.0
C      1  0.5547110000000  0.5216560000000  0.5590620000000 1.0
C      1  0.4863290000000  0.5709920000000  0.5355510000000 1.0
C      1  0.4834970000000  0.4995950000000  0.4605820000000 1.0
C      1  0.4198540000000  0.5413180000000  0.4585740000000 1.0
C      1  0.4381380000000  0.5380430000000  0.4235450000000 1.0
C      1  0.4419060000000  0.5176890000000  0.4980370000000 1.0
C      1  0.5198060000000  0.4865310000000  0.5260080000000 1.0
C      1  0.5084510000000  0.4132960000000  0.4789600000000 1.0
C      1  0.4650370000000  0.4889160000000  0.4367420000000 1.0
C      1  0.4238440000000  0.4501670000000  0.4808350000000 1.0
C      1  0.4837410000000  0.5397340000000  0.4037580000000 1.0
C      1  0.4343410000000  0.4422620000000  0.5118310000000 1.0
C      1  0.4440820000000  0.5537460000000  0.5501430000000 1.0
C      1  0.4495220000000  0.5672290000000  0.5057770000000 1.0
C      1  0.4349950000000  0.4992610000000  0.4731490000000 1.0
C      1  0.4894930000000  0.4864330000000  0.5097420000000 1.0
C      1  0.4089320000000  0.5349890000000  0.4834710000000 1.0
C      1  0.5277680000000  0.5008680000000  0.5557980000000 1.0
END
