TITL C-2778427-5640-1157 -0.000248321691313983 125000 -577.995053075743 0 0 98 (C1) n - 1
REM
REM in /home/nfs/bkarasulu/CARBON/AIRSS/Generating-Clusters/REBO/Only-C1/SD-CG/HFTN-CG
REM
REM
REM
REM
REM
REM ./C.cell (11c1c37f851c82e70ff6c80c92926a4b)
REM
REM compiler GCC version 9.2.1 20190827 (Red Hat 9.2.1-1)
REM options -cpp -mtune=generic -march=x86-64 -g -O0 -fpre-include=/usr/include/finclude/math-vector-fortran.h
REM seed -1887524568 1066161800 -107429916 2091052036 -750985081 854770239 -949052586 1175051205 -1076522383 264100441 -1101352592 -1293147333 -1210802807 1799491648 1589704696 -1480229269 2052659405 -754654270 1007172806 -1411880079 171171974 -857886212 -1392870350 1988837932 674397903 -409743948 1184914450 -118115040 909579198 -1094556909 -157362138 -98330800 1849830437
REM
CELL 1.54180   50.00000   50.00000   50.00000   90.00000   90.00000   90.00000
LATT -1
SFAC C  
C      1  0.4956490000000  0.5244000000000  0.5216830000000 1.0
C      1  0.4562010000000  0.5197340000000  0.4879800000000 1.0
C      1  0.4171140000000  0.4484420000000  0.4982840000000 1.0
C      1  0.5268010000000  0.4785850000000  0.4095640000000 1.0
C      1  0.4678080000000  0.4683040000000  0.5726170000000 1.0
C      1  0.5345580000000  0.4757900000000  0.5210900000000 1.0
C      1  0.5189540000000  0.5207400000000  0.4515420000000 1.0
C      1  0.5111650000000  0.4198430000000  0.4603770000000 1.0
C      1  0.5079480000000  0.4615050000000  0.4288970000000 1.0
C      1  0.4392890000000  0.4559310000000  0.5230920000000 1.0
C      1  0.4426740000000  0.5716220000000  0.5215250000000 1.0
C      1  0.4360160000000  0.4932410000000  0.4422660000000 1.0
C      1  0.5206170000000  0.4621400000000  0.4780960000000 1.0
C      1  0.4258110000000  0.4816850000000  0.5357900000000 1.0
C      1  0.5433090000000  0.5548680000000  0.4701630000000 1.0
C      1  0.5179190000000  0.5864970000000  0.5325180000000 1.0
C      1  0.5553110000000  0.4492350000000  0.4574810000000 1.0
C      1  0.4647720000000  0.4896820000000  0.4243960000000 1.0
C      1  0.5841200000000  0.4979090000000  0.4917960000000 1.0
C      1  0.5132300000000  0.5520770000000  0.4274290000000 1.0
C      1  0.5615550000000  0.4495080000000  0.4856650000000 1.0
C      1  0.5413740000000  0.5023730000000  0.5338040000000 1.0
C      1  0.4850180000000  0.5279490000000  0.4915180000000 1.0
C      1  0.4942770000000  0.4890630000000  0.5403520000000 1.0
C      1  0.5058670000000  0.5613850000000  0.5712910000000 1.0
C      1  0.5720290000000  0.4759210000000  0.5342250000000 1.0
C      1  0.5046840000000  0.5317450000000  0.5840330000000 1.0
C      1  0.5225730000000  0.4467160000000  0.4503010000000 1.0
C      1  0.4773000000000  0.5370780000000  0.4457840000000 1.0
C      1  0.4883680000000  0.4835210000000  0.4558340000000 1.0
C      1  0.5536370000000  0.4666770000000  0.5550390000000 1.0
C      1  0.5746460000000  0.4714870000000  0.5028690000000 1.0
C      1  0.5432090000000  0.5288830000000  0.4398490000000 1.0
C      1  0.4225960000000  0.5524700000000  0.5276000000000 1.0
C      1  0.4599390000000  0.5787540000000  0.5427970000000 1.0
C      1  0.5380560000000  0.4815200000000  0.4902470000000 1.0
C      1  0.4798090000000  0.5724880000000  0.4898660000000 1.0
C      1  0.5043380000000  0.4804200000000  0.5115480000000 1.0
C      1  0.4768510000000  0.4608180000000  0.4334930000000 1.0
C      1  0.5797520000000  0.5438790000000  0.5045480000000 1.0
C      1  0.4169830000000  0.4824240000000  0.5035880000000 1.0
C      1  0.4866330000000  0.4256730000000  0.4816170000000 1.0
C      1  0.5383710000000  0.5113750000000  0.5754820000000 1.0
C      1  0.5779920000000  0.5142020000000  0.4677970000000 1.0
C      1  0.5505820000000  0.4613580000000  0.4260460000000 1.0
C      1  0.4523360000000  0.5686900000000  0.4949940000000 1.0
C      1  0.4680110000000  0.4642800000000  0.5095910000000 1.0
C      1  0.4245400000000  0.4673810000000  0.4470370000000 1.0
C      1  0.4683370000000  0.4463290000000  0.5479540000000 1.0
C      1  0.5044500000000  0.5029780000000  0.4892810000000 1.0
C      1  0.5164060000000  0.4925230000000  0.4525760000000 1.0
C      1  0.4768460000000  0.5351840000000  0.5663460000000 1.0
C      1  0.5175960000000  0.4161400000000  0.4932740000000 1.0
C      1  0.5589790000000  0.5561880000000  0.5217800000000 1.0
C      1  0.4274310000000  0.5188220000000  0.4609060000000 1.0
C      1  0.5195480000000  0.5602120000000  0.4557290000000 1.0
C      1  0.4463580000000  0.4306920000000  0.5010710000000 1.0
C      1  0.5435120000000  0.4329170000000  0.5011480000000 1.0
C      1  0.4585730000000  0.4283900000000  0.4705660000000 1.0
C      1  0.4950410000000  0.4525950000000  0.4961590000000 1.0
C      1  0.4765210000000  0.5659250000000  0.5610860000000 1.0
C      1  0.4464970000000  0.5433060000000  0.4474120000000 1.0
C      1  0.4964230000000  0.5870460000000  0.5068760000000 1.0
C      1  0.4752220000000  0.4867550000000  0.4849500000000 1.0
C      1  0.4967850000000  0.4204210000000  0.5198220000000 1.0
C      1  0.5401290000000  0.5411660000000  0.4998830000000 1.0
C      1  0.4613850000000  0.4389840000000  0.4424300000000 1.0
C      1  0.5434470000000  0.4848640000000  0.4453050000000 1.0
C      1  0.4651030000000  0.5083130000000  0.4527020000000 1.0
C      1  0.4689340000000  0.4275720000000  0.5253920000000 1.0
C      1  0.5244570000000  0.5238450000000  0.5233540000000 1.0
C      1  0.4345590000000  0.4516760000000  0.4692070000000 1.0
C      1  0.5140170000000  0.4363760000000  0.5372350000000 1.0
C      1  0.5626170000000  0.5076960000000  0.4449380000000 1.0
C      1  0.5576090000000  0.5276960000000  0.5597180000000 1.0
C      1  0.5023070000000  0.6137170000000  0.5243650000000 1.0
C      1  0.5741050000000  0.5082350000000  0.5389200000000 1.0
C      1  0.5118520000000  0.5005230000000  0.5944880000000 1.0
C      1  0.5335370000000  0.4781020000000  0.5701290000000 1.0
C      1  0.4384990000000  0.5464420000000  0.4792440000000 1.0
C      1  0.4448130000000  0.4751150000000  0.4884330000000 1.0
C      1  0.5370670000000  0.4460090000000  0.5253250000000 1.0
C      1  0.4239860000000  0.5122380000000  0.4941670000000 1.0
C      1  0.4961180000000  0.5285020000000  0.4201920000000 1.0
C      1  0.4727940000000  0.5153180000000  0.5434990000000 1.0
C      1  0.5875330000000  0.5177160000000  0.5135430000000 1.0
C      1  0.5348470000000  0.5116240000000  0.4868160000000 1.0
C      1  0.5497480000000  0.5529470000000  0.5483690000000 1.0
C      1  0.4977980000000  0.4946710000000  0.4172400000000 1.0
C      1  0.5010910000000  0.4726240000000  0.5795720000000 1.0
C      1  0.5722530000000  0.5424870000000  0.4762460000000 1.0
C      1  0.4983690000000  0.4576170000000  0.5502840000000 1.0
C      1  0.5262850000000  0.5688900000000  0.5533940000000 1.0
C      1  0.4927610000000  0.5515080000000  0.4703260000000 1.0
C      1  0.5079100000000  0.5071150000000  0.5605840000000 1.0
C      1  0.4257810000000  0.5259800000000  0.5230120000000 1.0
C      1  0.4512870000000  0.4897350000000  0.5687450000000 1.0
C      1  0.4418840000000  0.5080090000000  0.5426000000000 1.0
END
