TITL C-2778422-5617-1222 0.00024402158835323 125000 -564.80763037089 0 0 99 (C1) n - 1
REM
REM in /home/nfs/bkarasulu/CARBON/AIRSS/Generating-Clusters/REBO/Only-C1/SD-CG/HFTN-CG
REM
REM
REM
REM
REM
REM ./C.cell (11c1c37f851c82e70ff6c80c92926a4b)
REM
REM compiler GCC version 9.2.1 20190827 (Red Hat 9.2.1-1)
REM options -cpp -mtune=generic -march=x86-64 -g -O0 -fpre-include=/usr/include/finclude/math-vector-fortran.h
REM seed 984767262 790581949 -1690587260 1428650387 1459974885 -1228733947 888248066 -410845727 596039230 -246997887 -986228834 -1000719922 -1027747564 -778269858 -1874977721 368621906 745848281 -389981234 1112629178 1896543949 353506574 209982401 -1418213917 1252146192 -1980186375 -117696988 -1115670727 1635374184 -1039185171 -1180607311 1686121267 94012928 231309791
REM
CELL 1.54180   50.00000   50.00000   50.00000   90.00000   90.00000   90.00000
LATT -1
SFAC C  
C      1  0.5164190000000  0.4947070000000  0.5175920000000 1.0
C      1  0.4359760000000  0.4450840000000  0.4558840000000 1.0
C      1  0.5574650000000  0.4484290000000  0.4490490000000 1.0
C      1  0.4894700000000  0.4539120000000  0.4215720000000 1.0
C      1  0.4813680000000  0.5132450000000  0.4342100000000 1.0
C      1  0.4343940000000  0.4728450000000  0.4713030000000 1.0
C      1  0.4336910000000  0.5534570000000  0.4632100000000 1.0
C      1  0.4843640000000  0.4863840000000  0.5400060000000 1.0
C      1  0.4823420000000  0.5398180000000  0.4783480000000 1.0
C      1  0.4347770000000  0.5066120000000  0.4921280000000 1.0
C      1  0.5463390000000  0.5370930000000  0.5202970000000 1.0
C      1  0.5220530000000  0.5379360000000  0.5020590000000 1.0
C      1  0.5069400000000  0.5781500000000  0.4596750000000 1.0
C      1  0.5172710000000  0.4954860000000  0.4333020000000 1.0
C      1  0.4575830000000  0.5691120000000  0.5078480000000 1.0
C      1  0.5298300000000  0.4717980000000  0.5750370000000 1.0
C      1  0.4429500000000  0.5142060000000  0.5303570000000 1.0
C      1  0.5163380000000  0.5857680000000  0.5473090000000 1.0
C      1  0.4495560000000  0.4869620000000  0.5755540000000 1.0
C      1  0.5669130000000  0.5509620000000  0.4754590000000 1.0
C      1  0.5162730000000  0.5765010000000  0.4877880000000 1.0
C      1  0.5235720000000  0.4578960000000  0.4794850000000 1.0
C      1  0.5381120000000  0.4365050000000  0.4393170000000 1.0
C      1  0.4247200000000  0.4788430000000  0.5338620000000 1.0
C      1  0.5274550000000  0.5256890000000  0.4243300000000 1.0
C      1  0.4647590000000  0.5478380000000  0.5604110000000 1.0
C      1  0.5546190000000  0.5390960000000  0.4278990000000 1.0
C      1  0.5928150000000  0.5205550000000  0.5302210000000 1.0
C      1  0.4509130000000  0.5180350000000  0.4247000000000 1.0
C      1  0.5185390000000  0.4409620000000  0.5381160000000 1.0
C      1  0.5676750000000  0.5145640000000  0.5134740000000 1.0
C      1  0.5246270000000  0.5291840000000  0.5814520000000 1.0
C      1  0.4551790000000  0.4630550000000  0.5541930000000 1.0
C      1  0.5053550000000  0.4711400000000  0.4539710000000 1.0
C      1  0.4925080000000  0.4184530000000  0.4621670000000 1.0
C      1  0.4619640000000  0.4751290000000  0.4914490000000 1.0
C      1  0.5084040000000  0.4957740000000  0.5724520000000 1.0
C      1  0.4419260000000  0.5254950000000  0.5685400000000 1.0
C      1  0.5481800000000  0.4889000000000  0.5221330000000 1.0
C      1  0.4604660000000  0.4728130000000  0.4413730000000 1.0
C      1  0.5695040000000  0.5321470000000  0.4544040000000 1.0
C      1  0.5293250000000  0.4245060000000  0.4763580000000 1.0
C      1  0.5039030000000  0.5669240000000  0.5244450000000 1.0
C      1  0.5297200000000  0.5842210000000  0.4410100000000 1.0
C      1  0.4638300000000  0.5127990000000  0.4748820000000 1.0
C      1  0.4716670000000  0.5128670000000  0.5241360000000 1.0
C      1  0.4935080000000  0.5538520000000  0.4531730000000 1.0
C      1  0.5294990000000  0.5382920000000  0.4692190000000 1.0
C      1  0.5952780000000  0.5478790000000  0.5235180000000 1.0
C      1  0.4997620000000  0.4078870000000  0.5127000000000 1.0
C      1  0.4260420000000  0.5330700000000  0.5086040000000 1.0
C      1  0.4644840000000  0.4468350000000  0.4746870000000 1.0
C      1  0.5727530000000  0.4936480000000  0.4912580000000 1.0
C      1  0.5668250000000  0.4841140000000  0.5494510000000 1.0
C      1  0.5387460000000  0.5333300000000  0.5504500000000 1.0
C      1  0.4350740000000  0.5037070000000  0.4584280000000 1.0
C      1  0.4662150000000  0.4400000000000  0.4411910000000 1.0
C      1  0.5432860000000  0.5698350000000  0.4908520000000 1.0
C      1  0.4893460000000  0.4225980000000  0.5398600000000 1.0
C      1  0.5370810000000  0.4482220000000  0.5608500000000 1.0
C      1  0.4570640000000  0.4757990000000  0.5226570000000 1.0
C      1  0.4540230000000  0.5646140000000  0.5358520000000 1.0
C      1  0.4942460000000  0.4810700000000  0.4146250000000 1.0
C      1  0.5323290000000  0.5074600000000  0.4610670000000 1.0
C      1  0.4712860000000  0.5006080000000  0.4048400000000 1.0
C      1  0.4860930000000  0.4924970000000  0.5009780000000 1.0
C      1  0.4929310000000  0.5373450000000  0.5718580000000 1.0
C      1  0.4823870000000  0.4790900000000  0.5783380000000 1.0
C      1  0.5224250000000  0.4889460000000  0.4851400000000 1.0
C      1  0.4858360000000  0.4512340000000  0.5586770000000 1.0
C      1  0.4723090000000  0.5123540000000  0.5771720000000 1.0
C      1  0.5075200000000  0.4389970000000  0.4443310000000 1.0
C      1  0.4591550000000  0.4371120000000  0.5324880000000 1.0
C      1  0.5696010000000  0.5574160000000  0.5086720000000 1.0
C      1  0.5406990000000  0.5011090000000  0.5611360000000 1.0
C      1  0.4768570000000  0.4408340000000  0.5051050000000 1.0
C      1  0.4233520000000  0.4758150000000  0.5014440000000 1.0
C      1  0.5637240000000  0.5024180000000  0.4612800000000 1.0
C      1  0.5342440000000  0.4449500000000  0.5097030000000 1.0
C      1  0.5268220000000  0.4130570000000  0.5043910000000 1.0
C      1  0.4961710000000  0.5347640000000  0.5229680000000 1.0
C      1  0.4333600000000  0.5325380000000  0.4436440000000 1.0
C      1  0.5138630000000  0.5539440000000  0.5532490000000 1.0
C      1  0.4267600000000  0.4987470000000  0.5562450000000 1.0
C      1  0.4932860000000  0.4591900000000  0.5255770000000 1.0
C      1  0.5061710000000  0.5111990000000  0.5437870000000 1.0
C      1  0.5010550000000  0.5347230000000  0.4343640000000 1.0
C      1  0.5020060000000  0.5161210000000  0.4871040000000 1.0
C      1  0.5380320000000  0.5558810000000  0.4482820000000 1.0
C      1  0.4291060000000  0.4478960000000  0.5207710000000 1.0
C      1  0.4860370000000  0.5645530000000  0.4982190000000 1.0
C      1  0.4842020000000  0.4145840000000  0.4876520000000 1.0
C      1  0.5933100000000  0.5004740000000  0.5491160000000 1.0
C      1  0.5640170000000  0.4531400000000  0.5543600000000 1.0
C      1  0.4372490000000  0.5565540000000  0.4914960000000 1.0
C      1  0.4797610000000  0.4904590000000  0.4553590000000 1.0
C      1  0.4303290000000  0.5427920000000  0.5412540000000 1.0
C      1  0.5563360000000  0.4653260000000  0.5010830000000 1.0
C      1  0.5661000000000  0.4692660000000  0.4687080000000 1.0
END
