TITL C-2778424-3986-803 0.00345463872194599 125000 -1053.11246031189 0 0 179 (C1) n - 1
REM
REM in /home/nfs/bkarasulu/CARBON/AIRSS/Generating-Clusters/REBO/Only-C1/SD-CG/HFTN-CG
REM
REM
REM
REM
REM
REM ./C.cell (11c1c37f851c82e70ff6c80c92926a4b)
REM
REM compiler GCC version 9.2.1 20190827 (Red Hat 9.2.1-1)
REM options -cpp -mtune=generic -march=x86-64 -g -O0 -fpre-include=/usr/include/finclude/math-vector-fortran.h
REM seed -1536547484 1508121584 -1491476864 -960225947 -941946976 1940390912 -949206141 -1172947636 -862102623 1826329272 1635861438 541049798 -1290992371 -215586472 630164845 -1979392325 911290181 1952324895 -1542566918 -1730732640 382499037 -1982352168 1347169613 -1557588976 -483473931 -685811562 -1744502011 -1767232459 1680686179 -260540519 -1081140654 968032732 -1646378262
REM
CELL 1.54180   50.00000   50.00000   50.00000   90.00000   90.00000   90.00000
LATT -1
SFAC C  
C      1  0.4652680000000  0.3892120000000  0.5154060000000 1.0
C      1  0.5298930000000  0.4688370000000  0.5604340000000 1.0
C      1  0.5211270000000  0.5104670000000  0.5126870000000 1.0
C      1  0.5862740000000  0.5768170000000  0.4706220000000 1.0
C      1  0.5547560000000  0.5049970000000  0.5915970000000 1.0
C      1  0.4465810000000  0.4704500000000  0.5904470000000 1.0
C      1  0.5611650000000  0.4381020000000  0.5401120000000 1.0
C      1  0.4804630000000  0.5398870000000  0.4970440000000 1.0
C      1  0.5518270000000  0.5521810000000  0.4321630000000 1.0
C      1  0.5760790000000  0.4830460000000  0.4148300000000 1.0
C      1  0.5394570000000  0.4590130000000  0.4421100000000 1.0
C      1  0.5192980000000  0.4810470000000  0.5303920000000 1.0
C      1  0.5179470000000  0.4582750000000  0.4086990000000 1.0
C      1  0.6041710000000  0.5060910000000  0.4499290000000 1.0
C      1  0.4419550000000  0.4601300000000  0.5115640000000 1.0
C      1  0.5190380000000  0.5460140000000  0.5834820000000 1.0
C      1  0.5237530000000  0.6146280000000  0.5387520000000 1.0
C      1  0.5106810000000  0.5640010000000  0.5070610000000 1.0
C      1  0.5666910000000  0.5951060000000  0.5206740000000 1.0
C      1  0.4591650000000  0.4513890000000  0.5504360000000 1.0
C      1  0.5519930000000  0.5250520000000  0.4198220000000 1.0
C      1  0.4691740000000  0.3996030000000  0.5784610000000 1.0
C      1  0.4938530000000  0.4293050000000  0.5888660000000 1.0
C      1  0.4798380000000  0.5303150000000  0.3988500000000 1.0
C      1  0.5792640000000  0.4585290000000  0.5605050000000 1.0
C      1  0.4941380000000  0.5835940000000  0.5624900000000 1.0
C      1  0.5072920000000  0.5234970000000  0.4121490000000 1.0
C      1  0.4928520000000  0.5313680000000  0.4664570000000 1.0
C      1  0.5800070000000  0.5674130000000  0.5362640000000 1.0
C      1  0.4713780000000  0.5594840000000  0.5415610000000 1.0
C      1  0.5233430000000  0.4408060000000  0.5570910000000 1.0
C      1  0.4566480000000  0.4449590000000  0.4283090000000 1.0
C      1  0.4379440000000  0.4934830000000  0.5580550000000 1.0
C      1  0.5352260000000  0.4098390000000  0.4965160000000 1.0
C      1  0.5510640000000  0.5367470000000  0.5795910000000 1.0
C      1  0.4473990000000  0.5693840000000  0.4287120000000 1.0
C      1  0.5235370000000  0.5959180000000  0.4271800000000 1.0
C      1  0.4815630000000  0.4080040000000  0.5574730000000 1.0
C      1  0.4276670000000  0.5628250000000  0.5624220000000 1.0
C      1  0.4516790000000  0.5872510000000  0.4782770000000 1.0
C      1  0.4738320000000  0.4960360000000  0.4502420000000 1.0
C      1  0.4649440000000  0.5309200000000  0.6039700000000 1.0
C      1  0.5202030000000  0.4032400000000  0.4666810000000 1.0
C      1  0.4952730000000  0.4950050000000  0.5512090000000 1.0
C      1  0.4017360000000  0.5696020000000  0.5072320000000 1.0
C      1  0.5463070000000  0.4621530000000  0.5211700000000 1.0
C      1  0.4959450000000  0.4115800000000  0.4195170000000 1.0
C      1  0.3951730000000  0.4904280000000  0.4867310000000 1.0
C      1  0.4830100000000  0.4364010000000  0.4853170000000 1.0
C      1  0.4653220000000  0.5420440000000  0.4240500000000 1.0
C      1  0.4652710000000  0.5039610000000  0.3934670000000 1.0
C      1  0.4573620000000  0.4690040000000  0.4096290000000 1.0
C      1  0.4723140000000  0.6037840000000  0.4956000000000 1.0
C      1  0.5024370000000  0.4582920000000  0.5873890000000 1.0
C      1  0.5227290000000  0.4273900000000  0.4221070000000 1.0
C      1  0.5809170000000  0.4405230000000  0.4776950000000 1.0
C      1  0.3957090000000  0.4682380000000  0.5896710000000 1.0
C      1  0.5275370000000  0.5577260000000  0.5343510000000 1.0
C      1  0.5188310000000  0.5136100000000  0.4571470000000 1.0
C      1  0.6024010000000  0.4626430000000  0.5152400000000 1.0
C      1  0.5248520000000  0.3961990000000  0.5242690000000 1.0
C      1  0.4651310000000  0.5840080000000  0.4517790000000 1.0
C      1  0.5801710000000  0.4401190000000  0.5117430000000 1.0
C      1  0.4469880000000  0.4125530000000  0.5163340000000 1.0
C      1  0.4378550000000  0.5245510000000  0.5598640000000 1.0
C      1  0.5969810000000  0.4801210000000  0.5410180000000 1.0
C      1  0.4975130000000  0.6000240000000  0.4809140000000 1.0
C      1  0.4731900000000  0.4922770000000  0.5167870000000 1.0
C      1  0.4268670000000  0.5450430000000  0.4345210000000 1.0
C      1  0.5122370000000  0.4898910000000  0.4149690000000 1.0
C      1  0.4676020000000  0.3993420000000  0.4667370000000 1.0
C      1  0.5634690000000  0.4811280000000  0.5052250000000 1.0
C      1  0.5415390000000  0.5353490000000  0.5148710000000 1.0
C      1  0.4356350000000  0.4372820000000  0.5368880000000 1.0
C      1  0.3972240000000  0.5185450000000  0.5063160000000 1.0
C      1  0.5091540000000  0.3880290000000  0.4943500000000 1.0
C      1  0.3999170000000  0.5449110000000  0.5208520000000 1.0
C      1  0.4535550000000  0.4989520000000  0.6068980000000 1.0
C      1  0.4177670000000  0.4724580000000  0.5732170000000 1.0
C      1  0.5749890000000  0.5638490000000  0.4476320000000 1.0
C      1  0.5400930000000  0.4586260000000  0.4819400000000 1.0
C      1  0.4669430000000  0.5265830000000  0.4491890000000 1.0
C      1  0.4033930000000  0.4536730000000  0.5198450000000 1.0
C      1  0.5410930000000  0.5189110000000  0.4786070000000 1.0
C      1  0.4516680000000  0.4814910000000  0.4653040000000 1.0
C      1  0.4072790000000  0.4646160000000  0.4923950000000 1.0
C      1  0.4784840000000  0.3855370000000  0.4898640000000 1.0
C      1  0.5402550000000  0.5750550000000  0.4752020000000 1.0
C      1  0.4972030000000  0.6054040000000  0.5441010000000 1.0
C      1  0.4286450000000  0.5066780000000  0.5002290000000 1.0
C      1  0.5205660000000  0.5058670000000  0.5712220000000 1.0
C      1  0.5798770000000  0.5707910000000  0.5023290000000 1.0
C      1  0.4801210000000  0.4896820000000  0.4205730000000 1.0
C      1  0.5154400000000  0.5624460000000  0.4555370000000 1.0
C      1  0.4267560000000  0.5181130000000  0.4236870000000 1.0
C      1  0.5892920000000  0.4794030000000  0.4455770000000 1.0
C      1  0.5412010000000  0.5922770000000  0.4477620000000 1.0
C      1  0.5495380000000  0.4709200000000  0.4124840000000 1.0
C      1  0.4089030000000  0.4726920000000  0.5403260000000 1.0
C      1  0.4813860000000  0.5476040000000  0.3767970000000 1.0
C      1  0.5197090000000  0.5475760000000  0.4265660000000 1.0
C      1  0.5498350000000  0.4893570000000  0.4793840000000 1.0
C      1  0.5003960000000  0.4898130000000  0.4657070000000 1.0
C      1  0.5492450000000  0.4344110000000  0.5013400000000 1.0
C      1  0.5853230000000  0.5322140000000  0.4405500000000 1.0
C      1  0.4456800000000  0.4825940000000  0.3856330000000 1.0
C      1  0.5350020000000  0.5038780000000  0.4329760000000 1.0
C      1  0.5757740000000  0.5400290000000  0.5560400000000 1.0
C      1  0.4424290000000  0.5856760000000  0.5486560000000 1.0
C      1  0.4658270000000  0.4394730000000  0.5117000000000 1.0
C      1  0.4495150000000  0.5466910000000  0.5830840000000 1.0
C      1  0.4978120000000  0.4602140000000  0.5137450000000 1.0
C      1  0.4646830000000  0.5744550000000  0.5704920000000 1.0
C      1  0.5390310000000  0.4132250000000  0.5479570000000 1.0
C      1  0.5015760000000  0.4261840000000  0.5124270000000 1.0
C      1  0.4232500000000  0.5868350000000  0.5063040000000 1.0
C      1  0.4341860000000  0.4467880000000  0.4811520000000 1.0
C      1  0.6024170000000  0.5126020000000  0.5016400000000 1.0
C      1  0.4115300000000  0.4982080000000  0.5284640000000 1.0
C      1  0.5780400000000  0.5126240000000  0.4136100000000 1.0
C      1  0.5923290000000  0.5102600000000  0.5567630000000 1.0
C      1  0.4573390000000  0.4815740000000  0.5420750000000 1.0
C      1  0.4094660000000  0.4241850000000  0.5195570000000 1.0
C      1  0.4289850000000  0.4665130000000  0.4473230000000 1.0
C      1  0.4871580000000  0.5336480000000  0.5452240000000 1.0
C      1  0.5400750000000  0.6047680000000  0.5178750000000 1.0
C      1  0.4477430000000  0.5834930000000  0.5204840000000 1.0
C      1  0.4649750000000  0.4464520000000  0.5828630000000 1.0
C      1  0.4495470000000  0.4868320000000  0.4957350000000 1.0
C      1  0.4771290000000  0.5679410000000  0.5122970000000 1.0
C      1  0.5783830000000  0.4899950000000  0.5742920000000 1.0
C      1  0.4303020000000  0.4326780000000  0.4436130000000 1.0
C      1  0.4775630000000  0.6097840000000  0.5233470000000 1.0
C      1  0.4554910000000  0.5376590000000  0.4776340000000 1.0
C      1  0.5564400000000  0.4846900000000  0.4493660000000 1.0
C      1  0.4142870000000  0.5427830000000  0.5445760000000 1.0
C      1  0.6055480000000  0.5964930000000  0.4661590000000 1.0
C      1  0.5172460000000  0.4132180000000  0.5746940000000 1.0
C      1  0.4140130000000  0.5135960000000  0.4704170000000 1.0
C      1  0.4917800000000  0.4410560000000  0.4460030000000 1.0
C      1  0.5122140000000  0.4622980000000  0.4535270000000 1.0
C      1  0.5430900000000  0.4749580000000  0.5850270000000 1.0
C      1  0.4221830000000  0.4972200000000  0.4436920000000 1.0
C      1  0.4919010000000  0.3977580000000  0.5290390000000 1.0
C      1  0.4406730000000  0.4116770000000  0.4633470000000 1.0
C      1  0.5486550000000  0.5109040000000  0.5576800000000 1.0
C      1  0.5495630000000  0.5713090000000  0.5475130000000 1.0
C      1  0.5077500000000  0.5555110000000  0.5574720000000 1.0
C      1  0.5688610000000  0.5321150000000  0.4707310000000 1.0
C      1  0.5179330000000  0.5432930000000  0.4837250000000 1.0
C      1  0.4259220000000  0.4153500000000  0.4914320000000 1.0
C      1  0.4191780000000  0.5435290000000  0.4620550000000 1.0
C      1  0.6135440000000  0.4701270000000  0.4910180000000 1.0
C      1  0.4787500000000  0.5723740000000  0.4161340000000 1.0
C      1  0.4759190000000  0.4970620000000  0.5862720000000 1.0
C      1  0.5560420000000  0.4379490000000  0.4607640000000 1.0
C      1  0.5208420000000  0.5184310000000  0.6028200000000 1.0
C      1  0.5626590000000  0.5199640000000  0.5319420000000 1.0
C      1  0.4947650000000  0.4344510000000  0.5440540000000 1.0
C      1  0.5567510000000  0.5534790000000  0.4903960000000 1.0
C      1  0.4706580000000  0.5156500000000  0.5623870000000 1.0
C      1  0.5013830000000  0.4867890000000  0.5896780000000 1.0
C      1  0.5001520000000  0.4892550000000  0.4962740000000 1.0
C      1  0.5815020000000  0.4997070000000  0.5198900000000 1.0
C      1  0.5639670000000  0.4560770000000  0.5894230000000 1.0
C      1  0.5098810000000  0.4527290000000  0.4837250000000 1.0
C      1  0.5063340000000  0.5750910000000  0.4187630000000 1.0
C      1  0.4626590000000  0.4450320000000  0.4624340000000 1.0
C      1  0.5970860000000  0.5192510000000  0.4762560000000 1.0
C      1  0.5234700000000  0.5917340000000  0.4962330000000 1.0
C      1  0.4367920000000  0.5609180000000  0.4792380000000 1.0
C      1  0.4874460000000  0.4433700000000  0.4131290000000 1.0
C      1  0.4932360000000  0.5844500000000  0.4570970000000 1.0
C      1  0.4924690000000  0.4089010000000  0.4518900000000 1.0
C      1  0.4902100000000  0.5206260000000  0.5184160000000 1.0
C      1  0.5991480000000  0.4606420000000  0.4680500000000 1.0
C      1  0.4931100000000  0.5353070000000  0.6035760000000 1.0
C      1  0.5367650000000  0.4192810000000  0.4457330000000 1.0
C      1  0.4900060000000  0.4643240000000  0.5573810000000 1.0
END
