TITL C-2778422-5617-405 0.00869042301549498 125000 -843.452188837002 0 0 145 (C1) n - 1
REM
REM in /home/nfs/bkarasulu/CARBON/AIRSS/Generating-Clusters/REBO/Only-C1/SD-CG/HFTN-CG
REM
REM
REM
REM
REM
REM ./C.cell (11c1c37f851c82e70ff6c80c92926a4b)
REM
REM compiler GCC version 9.2.1 20190827 (Red Hat 9.2.1-1)
REM options -cpp -mtune=generic -march=x86-64 -g -O0 -fpre-include=/usr/include/finclude/math-vector-fortran.h
REM seed 168675281 696235114 -408181976 -1936647041 -1913413796 925655070 379971756 1843557134 -318025946 -1032379938 -837139443 -981692453 2064902874 789786100 -745958041 -580821527 -711506165 -335077462 363968026 -1684920803 -1669948421 2137832709 1253412772 1493892202 -311643533 -55931621 -810433737 1385890860 -2082040941 747710426 -447848453 -963394864 -1957606116
REM
CELL 1.54180   50.00000   50.00000   50.00000   90.00000   90.00000   90.00000
LATT -1
SFAC C  
C      1  0.5554930000000  0.4893060000000  0.4807410000000 1.0
C      1  0.4625140000000  0.4733680000000  0.4979840000000 1.0
C      1  0.5469260000000  0.5764770000000  0.5238030000000 1.0
C      1  0.5777660000000  0.5427110000000  0.5331650000000 1.0
C      1  0.4880260000000  0.4625000000000  0.4776280000000 1.0
C      1  0.4739990000000  0.5772240000000  0.5030780000000 1.0
C      1  0.4934740000000  0.4938360000000  0.4261270000000 1.0
C      1  0.4948120000000  0.4360640000000  0.5701250000000 1.0
C      1  0.4803870000000  0.5571750000000  0.5595590000000 1.0
C      1  0.5172880000000  0.5046430000000  0.5727990000000 1.0
C      1  0.4151730000000  0.4703660000000  0.4613450000000 1.0
C      1  0.5058140000000  0.6068430000000  0.5411150000000 1.0
C      1  0.5549680000000  0.5215090000000  0.5057520000000 1.0
C      1  0.5654840000000  0.4327120000000  0.4545590000000 1.0
C      1  0.5022370000000  0.4830010000000  0.5573430000000 1.0
C      1  0.4082490000000  0.5593390000000  0.4837580000000 1.0
C      1  0.5054400000000  0.4710500000000  0.5124200000000 1.0
C      1  0.4888310000000  0.5832220000000  0.5791520000000 1.0
C      1  0.5223540000000  0.4125570000000  0.4565470000000 1.0
C      1  0.4220740000000  0.4538760000000  0.4970930000000 1.0
C      1  0.4636490000000  0.5568670000000  0.4374130000000 1.0
C      1  0.4811430000000  0.4870430000000  0.5397330000000 1.0
C      1  0.4955940000000  0.5010130000000  0.4593770000000 1.0
C      1  0.5854950000000  0.5038520000000  0.5241410000000 1.0
C      1  0.4386700000000  0.5268820000000  0.4559840000000 1.0
C      1  0.5305850000000  0.5380390000000  0.4990010000000 1.0
C      1  0.5332080000000  0.5684130000000  0.4433600000000 1.0
C      1  0.4857970000000  0.3990110000000  0.5241430000000 1.0
C      1  0.5207700000000  0.3988080000000  0.4827990000000 1.0
C      1  0.5094560000000  0.4369850000000  0.4854140000000 1.0
C      1  0.4970380000000  0.4074940000000  0.5706350000000 1.0
C      1  0.4462120000000  0.4259230000000  0.5339410000000 1.0
C      1  0.4252520000000  0.5731780000000  0.4650170000000 1.0
C      1  0.4413480000000  0.5730360000000  0.5015390000000 1.0
C      1  0.5065210000000  0.5462230000000  0.5464510000000 1.0
C      1  0.4908440000000  0.5370550000000  0.4777780000000 1.0
C      1  0.5324680000000  0.5170900000000  0.5380480000000 1.0
C      1  0.4392450000000  0.4437370000000  0.4788750000000 1.0
C      1  0.5625750000000  0.4962030000000  0.5977800000000 1.0
C      1  0.4756140000000  0.5933480000000  0.4637990000000 1.0
C      1  0.4470460000000  0.5308280000000  0.5118520000000 1.0
C      1  0.6041060000000  0.4681190000000  0.4963730000000 1.0
C      1  0.5233370000000  0.4854450000000  0.4888120000000 1.0
C      1  0.5550720000000  0.5436170000000  0.4351930000000 1.0
C      1  0.4596190000000  0.5823890000000  0.5667290000000 1.0
C      1  0.4013570000000  0.4791360000000  0.4906980000000 1.0
C      1  0.5043450000000  0.3933260000000  0.5467180000000 1.0
C      1  0.5472100000000  0.4937320000000  0.5193980000000 1.0
C      1  0.4603960000000  0.5242020000000  0.4046760000000 1.0
C      1  0.5068970000000  0.6021780000000  0.5680380000000 1.0
C      1  0.4771620000000  0.5344130000000  0.4483240000000 1.0
C      1  0.5024920000000  0.5235590000000  0.5229120000000 1.0
C      1  0.4252350000000  0.5124210000000  0.4928380000000 1.0
C      1  0.5273800000000  0.5339740000000  0.5667640000000 1.0
C      1  0.5852830000000  0.4249530000000  0.4722310000000 1.0
C      1  0.4102330000000  0.4581310000000  0.4392420000000 1.0
C      1  0.4354210000000  0.4026250000000  0.5444670000000 1.0
C      1  0.4648600000000  0.4741490000000  0.5805840000000 1.0
C      1  0.4626990000000  0.5057200000000  0.4483950000000 1.0
C      1  0.4992020000000  0.5915180000000  0.4844640000000 1.0
C      1  0.5585390000000  0.5296550000000  0.5919750000000 1.0
C      1  0.5299930000000  0.4037000000000  0.5379240000000 1.0
C      1  0.5946130000000  0.4373300000000  0.4937610000000 1.0
C      1  0.4486840000000  0.5903830000000  0.4751580000000 1.0
C      1  0.5309100000000  0.4550730000000  0.4274910000000 1.0
C      1  0.5228470000000  0.4865590000000  0.4339460000000 1.0
C      1  0.4970210000000  0.4459600000000  0.5223350000000 1.0
C      1  0.5275860000000  0.5821420000000  0.4740470000000 1.0
C      1  0.4384180000000  0.4866430000000  0.4777240000000 1.0
C      1  0.5115930000000  0.4339890000000  0.4354360000000 1.0
C      1  0.5751310000000  0.5396760000000  0.4624880000000 1.0
C      1  0.4736870000000  0.4020180000000  0.4469750000000 1.0
C      1  0.5130750000000  0.5151890000000  0.4850770000000 1.0
C      1  0.5729630000000  0.5099250000000  0.4359180000000 1.0
C      1  0.5724570000000  0.4352310000000  0.5430180000000 1.0
C      1  0.4605740000000  0.4349010000000  0.4641930000000 1.0
C      1  0.5661650000000  0.5169110000000  0.5452180000000 1.0
C      1  0.4564470000000  0.4501530000000  0.4063790000000 1.0
C      1  0.4519100000000  0.4905700000000  0.5536530000000 1.0
C      1  0.5493490000000  0.5561840000000  0.5741370000000 1.0
C      1  0.5816180000000  0.5388020000000  0.5019050000000 1.0
C      1  0.5627820000000  0.5644540000000  0.5445520000000 1.0
C      1  0.4774550000000  0.6001900000000  0.5257180000000 1.0
C      1  0.4136050000000  0.4702600000000  0.5487840000000 1.0
C      1  0.6070210000000  0.4950400000000  0.4763750000000 1.0
C      1  0.4841460000000  0.5483270000000  0.5080020000000 1.0
C      1  0.4221860000000  0.5115700000000  0.4335560000000 1.0
C      1  0.4119600000000  0.4868050000000  0.5190420000000 1.0
C      1  0.4814800000000  0.5795700000000  0.4386680000000 1.0
C      1  0.5730410000000  0.5646220000000  0.4846530000000 1.0
C      1  0.4737730000000  0.4269030000000  0.5271750000000 1.0
C      1  0.4861950000000  0.4902950000000  0.5931830000000 1.0
C      1  0.5184010000000  0.4685260000000  0.4627600000000 1.0
C      1  0.5395100000000  0.4565260000000  0.5489710000000 1.0
C      1  0.5833760000000  0.4552380000000  0.5203840000000 1.0
C      1  0.5420020000000  0.5133530000000  0.4244410000000 1.0
C      1  0.4200370000000  0.5490730000000  0.5130350000000 1.0
C      1  0.5204230000000  0.5591370000000  0.5207600000000 1.0
C      1  0.5362740000000  0.4409390000000  0.4659330000000 1.0
C      1  0.4595220000000  0.5272710000000  0.4829450000000 1.0
C      1  0.5978460000000  0.4903100000000  0.4476200000000 1.0
C      1  0.6006660000000  0.5254890000000  0.4800090000000 1.0
C      1  0.4200480000000  0.5021430000000  0.5546570000000 1.0
C      1  0.4823930000000  0.4321690000000  0.4389070000000 1.0
C      1  0.5101070000000  0.5884830000000  0.5149750000000 1.0
C      1  0.4639620000000  0.4742540000000  0.4584220000000 1.0
C      1  0.4125610000000  0.5196890000000  0.5285150000000 1.0
C      1  0.4674290000000  0.5380120000000  0.5353150000000 1.0
C      1  0.4877970000000  0.5207720000000  0.4123130000000 1.0
C      1  0.5814630000000  0.4917040000000  0.4987910000000 1.0
C      1  0.5185740000000  0.4799110000000  0.5935930000000 1.0
C      1  0.5661850000000  0.4806870000000  0.4503420000000 1.0
C      1  0.4714410000000  0.4724540000000  0.4276130000000 1.0
C      1  0.5476020000000  0.4709480000000  0.5936490000000 1.0
C      1  0.4812750000000  0.5177560000000  0.5841100000000 1.0
C      1  0.4356010000000  0.5559170000000  0.4451580000000 1.0
C      1  0.4279910000000  0.4483910000000  0.5280070000000 1.0
C      1  0.5522840000000  0.5809510000000  0.4949110000000 1.0
C      1  0.3927960000000  0.5033530000000  0.4714850000000 1.0
C      1  0.4857510000000  0.4164390000000  0.4755100000000 1.0
C      1  0.3976210000000  0.5014990000000  0.4434470000000 1.0
C      1  0.5199670000000  0.4304120000000  0.5260470000000 1.0
C      1  0.5125410000000  0.4561340000000  0.5584690000000 1.0
C      1  0.4382260000000  0.5062890000000  0.4103470000000 1.0
C      1  0.4939990000000  0.3937430000000  0.4970370000000 1.0
C      1  0.5065710000000  0.5397840000000  0.4222070000000 1.0
C      1  0.5512530000000  0.5158370000000  0.4627560000000 1.0
C      1  0.5220370000000  0.5262940000000  0.4480150000000 1.0
C      1  0.4896950000000  0.4985520000000  0.5129170000000 1.0
C      1  0.4657340000000  0.5200870000000  0.5612410000000 1.0
C      1  0.4462770000000  0.4796720000000  0.4082370000000 1.0
C      1  0.5066570000000  0.5692670000000  0.4271320000000 1.0
C      1  0.5594790000000  0.4496070000000  0.5711380000000 1.0
C      1  0.4440490000000  0.4762550000000  0.5236400000000 1.0
C      1  0.5291760000000  0.5488520000000  0.4706950000000 1.0
C      1  0.4759070000000  0.5009050000000  0.4856600000000 1.0
C      1  0.5421930000000  0.5785070000000  0.5895050000000 1.0
C      1  0.4016980000000  0.5297200000000  0.4830370000000 1.0
C      1  0.5733710000000  0.5108740000000  0.5724230000000 1.0
C      1  0.5540070000000  0.4683480000000  0.5269530000000 1.0
C      1  0.5366650000000  0.4209720000000  0.5005000000000 1.0
C      1  0.5568590000000  0.4156710000000  0.5279090000000 1.0
C      1  0.5586300000000  0.4553340000000  0.4364330000000 1.0
C      1  0.4548110000000  0.5993840000000  0.5457110000000 1.0
C      1  0.4698920000000  0.4466650000000  0.5789140000000 1.0
END
