TITL C-2778435-5768-1364 -0.00268317403344038 125000 -855.726759843989 0 0 146 (C1) n - 1
REM
REM in /home/nfs/bkarasulu/CARBON/AIRSS/Generating-Clusters/REBO/Only-C1/SD-CG/HFTN-CG
REM
REM
REM
REM
REM
REM ./C.cell (11c1c37f851c82e70ff6c80c92926a4b)
REM
REM compiler GCC version 9.2.1 20190827 (Red Hat 9.2.1-1)
REM options -cpp -mtune=generic -march=x86-64 -g -O0 -fpre-include=/usr/include/finclude/math-vector-fortran.h
REM seed 1133601170 1369400349 -1684716799 -1077353090 -425838967 -314050537 1317342364 983111264 176756269 1019471278 1920722823 -2033699568 -484678893 1506533321 -992742362 147993451 830377163 -504504480 -1035433868 -1655242908 125980462 -1654243494 185000385 -1304759744 -1401097575 1690979437 -1576010179 733441594 -586668844 -961937480 -1687029558 -1745741523 374641913
REM
CELL 1.54180   50.00000   50.00000   50.00000   90.00000   90.00000   90.00000
LATT -1
SFAC C  
C      1  0.5273430000000  0.5421260000000  0.4263170000000 1.0
C      1  0.5772960000000  0.5571170000000  0.5030920000000 1.0
C      1  0.4177340000000  0.5636550000000  0.4853530000000 1.0
C      1  0.4349540000000  0.5424890000000  0.4710620000000 1.0
C      1  0.5917900000000  0.5151440000000  0.4886860000000 1.0
C      1  0.5440950000000  0.4202260000000  0.5062180000000 1.0
C      1  0.5095210000000  0.5074230000000  0.6107710000000 1.0
C      1  0.5438440000000  0.5872870000000  0.5166560000000 1.0
C      1  0.5395240000000  0.5114750000000  0.5969210000000 1.0
C      1  0.4282660000000  0.4710370000000  0.5556540000000 1.0
C      1  0.5233760000000  0.5424430000000  0.5657800000000 1.0
C      1  0.5166260000000  0.5453170000000  0.4585900000000 1.0
C      1  0.5494460000000  0.4575130000000  0.5593490000000 1.0
C      1  0.5058120000000  0.5713120000000  0.5618870000000 1.0
C      1  0.4431990000000  0.4781280000000  0.4638220000000 1.0
C      1  0.5036480000000  0.4672810000000  0.4426690000000 1.0
C      1  0.5359730000000  0.4419010000000  0.5321690000000 1.0
C      1  0.5466890000000  0.5251890000000  0.5075550000000 1.0
C      1  0.5257650000000  0.4555200000000  0.5047750000000 1.0
C      1  0.4873430000000  0.4533360000000  0.4063040000000 1.0
C      1  0.4210920000000  0.5207010000000  0.5152060000000 1.0
C      1  0.4950080000000  0.5249730000000  0.4433890000000 1.0
C      1  0.4810300000000  0.5063480000000  0.5617820000000 1.0
C      1  0.5810310000000  0.4983710000000  0.5359740000000 1.0
C      1  0.6036090000000  0.4770040000000  0.4875270000000 1.0
C      1  0.5390680000000  0.5040740000000  0.4474630000000 1.0
C      1  0.5059730000000  0.5221850000000  0.5507960000000 1.0
C      1  0.4677030000000  0.4634060000000  0.5907590000000 1.0
C      1  0.4611350000000  0.4924710000000  0.4153240000000 1.0
C      1  0.5172830000000  0.4788080000000  0.5946930000000 1.0
C      1  0.5663690000000  0.5540480000000  0.4443820000000 1.0
C      1  0.4911270000000  0.5311050000000  0.4109280000000 1.0
C      1  0.5632070000000  0.4888750000000  0.5596660000000 1.0
C      1  0.6006060000000  0.5022530000000  0.4380240000000 1.0
C      1  0.6224400000000  0.4569470000000  0.4933870000000 1.0
C      1  0.4660200000000  0.4554020000000  0.5121970000000 1.0
C      1  0.4869260000000  0.4193620000000  0.5672460000000 1.0
C      1  0.5184410000000  0.4086190000000  0.5195730000000 1.0
C      1  0.5405430000000  0.4711510000000  0.4808180000000 1.0
C      1  0.5434970000000  0.4168090000000  0.4489530000000 1.0
C      1  0.4793320000000  0.4747080000000  0.5495770000000 1.0
C      1  0.5053460000000  0.5037790000000  0.3968580000000 1.0
C      1  0.4962760000000  0.4504760000000  0.5764710000000 1.0
C      1  0.4204020000000  0.5258380000000  0.5737060000000 1.0
C      1  0.4556970000000  0.5210240000000  0.5460240000000 1.0
C      1  0.4781820000000  0.4450740000000  0.5384140000000 1.0
C      1  0.4642910000000  0.5356360000000  0.5997680000000 1.0
C      1  0.4787320000000  0.5630830000000  0.4480520000000 1.0
C      1  0.4739580000000  0.5055850000000  0.5907260000000 1.0
C      1  0.5147740000000  0.5743590000000  0.4729460000000 1.0
C      1  0.5616010000000  0.4717250000000  0.5141770000000 1.0
C      1  0.5095790000000  0.4784740000000  0.5614770000000 1.0
C      1  0.4886270000000  0.4661990000000  0.4953010000000 1.0
C      1  0.5510000000000  0.4229580000000  0.4785120000000 1.0
C      1  0.4614780000000  0.5734080000000  0.5011210000000 1.0
C      1  0.4724260000000  0.5998840000000  0.4863160000000 1.0
C      1  0.5020060000000  0.5361860000000  0.5015330000000 1.0
C      1  0.5596380000000  0.5329660000000  0.4206820000000 1.0
C      1  0.4440850000000  0.4800650000000  0.5789090000000 1.0
C      1  0.5660330000000  0.4470810000000  0.4620660000000 1.0
C      1  0.4921490000000  0.5973590000000  0.4707570000000 1.0
C      1  0.4173740000000  0.4675010000000  0.4736970000000 1.0
C      1  0.4269330000000  0.4244580000000  0.4931000000000 1.0
C      1  0.4548040000000  0.4928910000000  0.5352720000000 1.0
C      1  0.5105540000000  0.4335020000000  0.4893570000000 1.0
C      1  0.5056120000000  0.5085800000000  0.4920150000000 1.0
C      1  0.4885580000000  0.5379860000000  0.5310000000000 1.0
C      1  0.4388470000000  0.4238080000000  0.4669510000000 1.0
C      1  0.4388320000000  0.5274510000000  0.4447800000000 1.0
C      1  0.4998250000000  0.5605230000000  0.4256990000000 1.0
C      1  0.4734070000000  0.5681260000000  0.5320220000000 1.0
C      1  0.4468100000000  0.5230600000000  0.4930830000000 1.0
C      1  0.6091910000000  0.4919280000000  0.4610390000000 1.0
C      1  0.5250700000000  0.5808780000000  0.4350020000000 1.0
C      1  0.4843890000000  0.4820750000000  0.4021910000000 1.0
C      1  0.4450770000000  0.4745020000000  0.5163510000000 1.0
C      1  0.4414110000000  0.5116260000000  0.5913210000000 1.0
C      1  0.5622320000000  0.5229720000000  0.4841800000000 1.0
C      1  0.4642430000000  0.5201040000000  0.4292560000000 1.0
C      1  0.5071900000000  0.4284220000000  0.5422230000000 1.0
C      1  0.5941970000000  0.5547300000000  0.4577030000000 1.0
C      1  0.4932090000000  0.5897390000000  0.5189480000000 1.0
C      1  0.5299320000000  0.4660050000000  0.4222750000000 1.0
C      1  0.4895560000000  0.4111350000000  0.4522650000000 1.0
C      1  0.4580630000000  0.4987410000000  0.4749110000000 1.0
C      1  0.4027470000000  0.5397560000000  0.4945340000000 1.0
C      1  0.4844610000000  0.4428440000000  0.4447510000000 1.0
C      1  0.3981230000000  0.4554670000000  0.4581640000000 1.0
C      1  0.5736470000000  0.5497460000000  0.5305910000000 1.0
C      1  0.4338620000000  0.5709310000000  0.5357660000000 1.0
C      1  0.5127260000000  0.4996470000000  0.4422930000000 1.0
C      1  0.5150570000000  0.5883410000000  0.5022040000000 1.0
C      1  0.4135140000000  0.4906700000000  0.5403190000000 1.0
C      1  0.5300440000000  0.4517790000000  0.5821850000000 1.0
C      1  0.5256090000000  0.4196770000000  0.4279090000000 1.0
C      1  0.5128560000000  0.5514450000000  0.5956120000000 1.0
C      1  0.4771160000000  0.4081600000000  0.4918150000000 1.0
C      1  0.4858500000000  0.4983170000000  0.4718880000000 1.0
C      1  0.5621740000000  0.4587560000000  0.4303340000000 1.0
C      1  0.4169820000000  0.4688730000000  0.5032510000000 1.0
C      1  0.5477050000000  0.5314030000000  0.4588110000000 1.0
C      1  0.5548650000000  0.5404340000000  0.5576590000000 1.0
C      1  0.4413410000000  0.4475750000000  0.4488450000000 1.0
C      1  0.5978960000000  0.4978020000000  0.5131010000000 1.0
C      1  0.4013160000000  0.4936050000000  0.5091490000000 1.0
C      1  0.4614450000000  0.4432940000000  0.4223640000000 1.0
C      1  0.4955840000000  0.5338490000000  0.6089060000000 1.0
C      1  0.5337710000000  0.5201380000000  0.4042100000000 1.0
C      1  0.5550510000000  0.5721850000000  0.5450820000000 1.0
C      1  0.4691150000000  0.5412430000000  0.5031200000000 1.0
C      1  0.4625550000000  0.5584440000000  0.5790970000000 1.0
C      1  0.5125050000000  0.4413470000000  0.4137640000000 1.0
C      1  0.5743900000000  0.4678320000000  0.4863940000000 1.0
C      1  0.5721640000000  0.4578540000000  0.5361090000000 1.0
C      1  0.4841100000000  0.5753680000000  0.5770970000000 1.0
C      1  0.4443890000000  0.4716820000000  0.4249350000000 1.0
C      1  0.4796140000000  0.4395030000000  0.4782860000000 1.0
C      1  0.4227330000000  0.5814160000000  0.5064920000000 1.0
C      1  0.5452210000000  0.5731170000000  0.4576660000000 1.0
C      1  0.4231890000000  0.4411320000000  0.5164660000000 1.0
C      1  0.4525470000000  0.5506720000000  0.5509720000000 1.0
C      1  0.4158700000000  0.5198000000000  0.5480740000000 1.0
C      1  0.4152930000000  0.5109080000000  0.4565480000000 1.0
C      1  0.4320010000000  0.4445940000000  0.5433610000000 1.0
C      1  0.5105080000000  0.4742180000000  0.4729000000000 1.0
C      1  0.4013060000000  0.5124180000000  0.4816380000000 1.0
C      1  0.5483090000000  0.5008470000000  0.5247220000000 1.0
C      1  0.5123150000000  0.4851190000000  0.5113300000000 1.0
C      1  0.4624170000000  0.4324590000000  0.5868550000000 1.0
C      1  0.4614230000000  0.4063960000000  0.4652140000000 1.0
C      1  0.4557870000000  0.4281150000000  0.5546620000000 1.0
C      1  0.5213650000000  0.4963430000000  0.5396520000000 1.0
C      1  0.5506010000000  0.5694280000000  0.4898480000000 1.0
C      1  0.5551600000000  0.4802280000000  0.4538980000000 1.0
C      1  0.5356320000000  0.4883820000000  0.3990530000000 1.0
C      1  0.4874080000000  0.4820950000000  0.6071670000000 1.0
C      1  0.4686230000000  0.5636700000000  0.4700160000000 1.0
C      1  0.5113020000000  0.4108240000000  0.4714120000000 1.0
C      1  0.5838540000000  0.5141780000000  0.4209270000000 1.0
C      1  0.5231280000000  0.5696570000000  0.5365900000000 1.0
C      1  0.5634480000000  0.4740640000000  0.4027960000000 1.0
C      1  0.5954630000000  0.5451000000000  0.4846570000000 1.0
C      1  0.5284670000000  0.5512880000000  0.5084700000000 1.0
C      1  0.4276140000000  0.6023260000000  0.5307870000000 1.0
C      1  0.4975640000000  0.3958670000000  0.5058450000000 1.0
C      1  0.5535840000000  0.5119350000000  0.5736860000000 1.0
END
