TITL C-2778431-5191-1447 0.00252293382468896 125000 -295.521564254402 0 0 52 (C1) n - 1
REM
REM in /home/nfs/bkarasulu/CARBON/AIRSS/Generating-Clusters/REBO/Only-C1/SD-CG/HFTN-CG
REM
REM
REM
REM
REM
REM ./C.cell (11c1c37f851c82e70ff6c80c92926a4b)
REM
REM compiler GCC version 9.2.1 20190827 (Red Hat 9.2.1-1)
REM options -cpp -mtune=generic -march=x86-64 -g -O0 -fpre-include=/usr/include/finclude/math-vector-fortran.h
REM seed 685114342 -206214618 1124419935 1071024575 1953767513 431334198 -1107460779 1283183391 96324364 1264732167 750618776 1253626014 -877439808 -1708289709 413356681 -1891842637 -505938383 452227143 705073853 -202604439 824547921 871233929 -1726957111 -1452776635 -374822240 -669659086 -1271076662 1186475715 -1366182138 1667493644 309311355 -675920533 228760449
REM
CELL 1.54180   50.00000   50.00000   50.00000   90.00000   90.00000   90.00000
LATT -1
SFAC C  
C      1  0.5453570000000  0.5217210000000  0.4545590000000 1.0
C      1  0.4743680000000  0.5333180000000  0.5435020000000 1.0
C      1  0.5433770000000  0.5742880000000  0.5064270000000 1.0
C      1  0.5016420000000  0.4330660000000  0.5072670000000 1.0
C      1  0.4639890000000  0.4621150000000  0.4662790000000 1.0
C      1  0.5135580000000  0.4549410000000  0.4848640000000 1.0
C      1  0.5394600000000  0.5078660000000  0.4304010000000 1.0
C      1  0.4700040000000  0.4938170000000  0.4277510000000 1.0
C      1  0.5238500000000  0.4974600000000  0.5359630000000 1.0
C      1  0.4687700000000  0.5068480000000  0.4749810000000 1.0
C      1  0.5470210000000  0.4291410000000  0.5347700000000 1.0
C      1  0.4505130000000  0.4777410000000  0.4463660000000 1.0
C      1  0.4735840000000  0.5241440000000  0.4396470000000 1.0
C      1  0.5189930000000  0.4834650000000  0.4991480000000 1.0
C      1  0.5138530000000  0.5529230000000  0.5462600000000 1.0
C      1  0.4615730000000  0.4942400000000  0.4007220000000 1.0
C      1  0.4514090000000  0.4725080000000  0.5305700000000 1.0
C      1  0.5081640000000  0.5484850000000  0.5122840000000 1.0
C      1  0.4442830000000  0.5016510000000  0.5289320000000 1.0
C      1  0.5158760000000  0.5038800000000  0.4746240000000 1.0
C      1  0.4721960000000  0.5056330000000  0.5386700000000 1.0
C      1  0.5243730000000  0.4454750000000  0.5496400000000 1.0
C      1  0.4420370000000  0.5157070000000  0.5033730000000 1.0
C      1  0.5292780000000  0.5245410000000  0.5244700000000 1.0
C      1  0.5337370000000  0.4415700000000  0.5089080000000 1.0
C      1  0.4936010000000  0.4417870000000  0.5387290000000 1.0
C      1  0.5685590000000  0.5109920000000  0.5237640000000 1.0
C      1  0.4908490000000  0.4916470000000  0.4685030000000 1.0
C      1  0.5100620000000  0.4740050000000  0.5552400000000 1.0
C      1  0.4846450000000  0.4615480000000  0.5119890000000 1.0
C      1  0.5399390000000  0.4680820000000  0.5293160000000 1.0
C      1  0.4952540000000  0.4604120000000  0.4604300000000 1.0
C      1  0.4559820000000  0.4645780000000  0.4977770000000 1.0
C      1  0.4877590000000  0.4902200000000  0.5719380000000 1.0
C      1  0.5315770000000  0.5680710000000  0.4832490000000 1.0
C      1  0.4945440000000  0.4900930000000  0.5223000000000 1.0
C      1  0.4244620000000  0.4876120000000  0.4557910000000 1.0
C      1  0.5514260000000  0.4909960000000  0.5079290000000 1.0
C      1  0.4749720000000  0.4672180000000  0.5502640000000 1.0
C      1  0.4771870000000  0.5473950000000  0.5193550000000 1.0
C      1  0.5671890000000  0.5341140000000  0.5326000000000 1.0
C      1  0.4424440000000  0.4919320000000  0.4827650000000 1.0
C      1  0.4761880000000  0.5382930000000  0.4705070000000 1.0
C      1  0.5431840000000  0.5552410000000  0.5302970000000 1.0
C      1  0.5322530000000  0.5459680000000  0.4605110000000 1.0
C      1  0.5051940000000  0.5394670000000  0.5680290000000 1.0
C      1  0.5037800000000  0.5489300000000  0.4788990000000 1.0
C      1  0.5205430000000  0.4893420000000  0.4240490000000 1.0
C      1  0.4973310000000  0.4778600000000  0.4318360000000 1.0
C      1  0.4929630000000  0.5163830000000  0.5765510000000 1.0
C      1  0.4599030000000  0.5379880000000  0.4982740000000 1.0
C      1  0.5469430000000  0.5032840000000  0.4787290000000 1.0
END
