TITL C-2778435-5768-8 -0.000559747101941086 125000 -217.591810004454 0 0 41 (C1) n - 1
REM
REM in /home/nfs/bkarasulu/CARBON/AIRSS/Generating-Clusters/REBO/Only-C1/SD-CG/HFTN-CG
REM
REM
REM
REM
REM
REM ./C.cell (11c1c37f851c82e70ff6c80c92926a4b)
REM
REM compiler GCC version 9.2.1 20190827 (Red Hat 9.2.1-1)
REM options -cpp -mtune=generic -march=x86-64 -g -O0 -fpre-include=/usr/include/finclude/math-vector-fortran.h
REM seed 1943257963 1564299163 2005915293 -1357160536 -1492395685 1433167973 -765352764 -22243567 2013361968 -31055068 938372081 2122393885 2053576869 -2143210365 -1717040977 -1914862154 867496251 -238634951 -170300347 1446237595 1933853090 -519195490 1994692433 -717233572 291038298 -193778071 -624698880 -99469911 2000715160 -1476224226 410827386 1209331598 -30833086
REM
CELL 1.54180   50.00000   50.00000   50.00000   90.00000   90.00000   90.00000
LATT -1
SFAC C  
C      1  0.4453220000000  0.4981250000000  0.5457960000000 1.0
C      1  0.4593720000000  0.5603820000000  0.4722350000000 1.0
C      1  0.5268690000000  0.5210120000000  0.5647850000000 1.0
C      1  0.5305480000000  0.4774400000000  0.5296880000000 1.0
C      1  0.5258000000000  0.5954490000000  0.5204470000000 1.0
C      1  0.4353780000000  0.5147610000000  0.5198690000000 1.0
C      1  0.4789910000000  0.4837230000000  0.4749160000000 1.0
C      1  0.4539520000000  0.5300070000000  0.5415900000000 1.0
C      1  0.5164750000000  0.3955280000000  0.5041070000000 1.0
C      1  0.4555060000000  0.4563910000000  0.5677430000000 1.0
C      1  0.5454430000000  0.4520720000000  0.4674960000000 1.0
C      1  0.5684220000000  0.5388850000000  0.5092390000000 1.0
C      1  0.4516420000000  0.4687500000000  0.4608480000000 1.0
C      1  0.5141010000000  0.3718850000000  0.5151630000000 1.0
C      1  0.5116070000000  0.4698100000000  0.5477210000000 1.0
C      1  0.5267630000000  0.4894620000000  0.4360060000000 1.0
C      1  0.4636530000000  0.4804170000000  0.5577740000000 1.0
C      1  0.5205760000000  0.5452070000000  0.4995430000000 1.0
C      1  0.4919100000000  0.5317880000000  0.5007310000000 1.0
C      1  0.5463280000000  0.4791040000000  0.4585070000000 1.0
C      1  0.4901490000000  0.5132580000000  0.4708280000000 1.0
C      1  0.5188870000000  0.4195520000000  0.4928720000000 1.0
C      1  0.5007740000000  0.5160620000000  0.5568060000000 1.0
C      1  0.5392290000000  0.4949590000000  0.5124210000000 1.0
C      1  0.4633460000000  0.5377420000000  0.4875920000000 1.0
C      1  0.5080420000000  0.5457500000000  0.4649660000000 1.0
C      1  0.4470210000000  0.4939850000000  0.4784070000000 1.0
C      1  0.5004840000000  0.4634320000000  0.4816220000000 1.0
C      1  0.4778140000000  0.5398210000000  0.5620090000000 1.0
C      1  0.5214160000000  0.4447330000000  0.4810970000000 1.0
C      1  0.5187790000000  0.5073360000000  0.4597510000000 1.0
C      1  0.4435380000000  0.5172270000000  0.4930080000000 1.0
C      1  0.5660060000000  0.4346980000000  0.4637640000000 1.0
C      1  0.4738500000000  0.5271940000000  0.4505290000000 1.0
C      1  0.5443110000000  0.5268910000000  0.5023390000000 1.0
C      1  0.4556040000000  0.5818450000000  0.4576760000000 1.0
C      1  0.5188740000000  0.4830700000000  0.4114070000000 1.0
C      1  0.4859270000000  0.5306080000000  0.5300210000000 1.0
C      1  0.5233560000000  0.5719460000000  0.5106690000000 1.0
C      1  0.5424950000000  0.5025530000000  0.4807410000000 1.0
C      1  0.4914430000000  0.4871420000000  0.5572740000000 1.0
END
