TITL C-2778429-3646-644 -0.00271164369714439 125000 -356.27431018063 0 0 65 (C1) n - 1
REM
REM in /home/nfs/bkarasulu/CARBON/AIRSS/Generating-Clusters/REBO/Only-C1/SD-CG/HFTN-CG
REM
REM
REM
REM
REM
REM ./C.cell (11c1c37f851c82e70ff6c80c92926a4b)
REM
REM compiler GCC version 9.2.1 20190827 (Red Hat 9.2.1-1)
REM options -cpp -mtune=generic -march=x86-64 -g -O0 -fpre-include=/usr/include/finclude/math-vector-fortran.h
REM seed -374378069 -1763811354 -561874090 1477629480 1219641558 916974442 736946046 -1860597979 -1991660258 203125808 393479157 -1951568682 1661020985 652606385 -206833973 986459286 250163299 -2012543871 359132128 -1298593474 539314568 -1786085311 -870591214 -2120127796 410038880 -1855394806 72118586 -1515405443 1357424955 986142489 2009896895 1346404526 951728934
REM
CELL 1.54180   50.00000   50.00000   50.00000   90.00000   90.00000   90.00000
LATT -1
SFAC C  
C      1  0.5230910000000  0.4941590000000  0.5553550000000 1.0
C      1  0.5277280000000  0.5370210000000  0.4739790000000 1.0
C      1  0.4983930000000  0.5036500000000  0.5652530000000 1.0
C      1  0.5305190000000  0.5403030000000  0.4426070000000 1.0
C      1  0.4531390000000  0.5424830000000  0.5176170000000 1.0
C      1  0.5330060000000  0.4442180000000  0.5648920000000 1.0
C      1  0.5443620000000  0.4283440000000  0.5813320000000 1.0
C      1  0.4601190000000  0.4426200000000  0.4750180000000 1.0
C      1  0.5577450000000  0.5627830000000  0.4936450000000 1.0
C      1  0.5499970000000  0.4901360000000  0.4446860000000 1.0
C      1  0.4939520000000  0.5294990000000  0.5751450000000 1.0
C      1  0.4740380000000  0.5487450000000  0.5345210000000 1.0
C      1  0.4713390000000  0.5158030000000  0.4940840000000 1.0
C      1  0.5252710000000  0.4547240000000  0.4629590000000 1.0
C      1  0.4605500000000  0.4864330000000  0.4385160000000 1.0
C      1  0.5096710000000  0.4310970000000  0.4790980000000 1.0
C      1  0.5452390000000  0.5075560000000  0.5468590000000 1.0
C      1  0.5381840000000  0.4610650000000  0.5205690000000 1.0
C      1  0.4859760000000  0.4463630000000  0.4617130000000 1.0
C      1  0.4878520000000  0.4748430000000  0.4896380000000 1.0
C      1  0.4991970000000  0.4695410000000  0.4468870000000 1.0
C      1  0.5277340000000  0.5097470000000  0.4278120000000 1.0
C      1  0.4811310000000  0.5763050000000  0.4830780000000 1.0
C      1  0.5247960000000  0.5217410000000  0.5043990000000 1.0
C      1  0.4927310000000  0.5477290000000  0.4581380000000 1.0
C      1  0.5187430000000  0.5612120000000  0.5456730000000 1.0
C      1  0.4362380000000  0.4485730000000  0.5055740000000 1.0
C      1  0.5526230000000  0.5223630000000  0.5205720000000 1.0
C      1  0.5651150000000  0.5147850000000  0.4915770000000 1.0
C      1  0.4970760000000  0.5115900000000  0.4774560000000 1.0
C      1  0.4993160000000  0.4953900000000  0.4348870000000 1.0
C      1  0.4550790000000  0.5359110000000  0.4568170000000 1.0
C      1  0.4668370000000  0.5677710000000  0.4534820000000 1.0
C      1  0.4435070000000  0.4805630000000  0.5482440000000 1.0
C      1  0.4466810000000  0.5066190000000  0.4601060000000 1.0
C      1  0.5371760000000  0.5812350000000  0.4864890000000 1.0
C      1  0.4741250000000  0.4349280000000  0.5563350000000 1.0
C      1  0.4625860000000  0.4276500000000  0.5054760000000 1.0
C      1  0.4694860000000  0.4952700000000  0.5216380000000 1.0
C      1  0.5445780000000  0.4447400000000  0.4448400000000 1.0
C      1  0.4930070000000  0.5515010000000  0.5574080000000 1.0
C      1  0.4681270000000  0.4812210000000  0.4697650000000 1.0
C      1  0.5115560000000  0.5901120000000  0.4836690000000 1.0
C      1  0.4345700000000  0.4568280000000  0.5352490000000 1.0
C      1  0.5043960000000  0.5442720000000  0.5198610000000 1.0
C      1  0.5268390000000  0.5058770000000  0.4618550000000 1.0
C      1  0.5455230000000  0.5671320000000  0.5422510000000 1.0
C      1  0.4390370000000  0.4685950000000  0.4817330000000 1.0
C      1  0.5583360000000  0.5535100000000  0.5213380000000 1.0
C      1  0.4886230000000  0.4576040000000  0.5596240000000 1.0
C      1  0.5674040000000  0.5402930000000  0.4776920000000 1.0
C      1  0.4901070000000  0.4434060000000  0.5012920000000 1.0
C      1  0.4422350000000  0.5156490000000  0.5208650000000 1.0
C      1  0.4409170000000  0.4994180000000  0.4923170000000 1.0
C      1  0.4752300000000  0.4864390000000  0.5541120000000 1.0
C      1  0.4830630000000  0.5179540000000  0.4483790000000 1.0
C      1  0.5032610000000  0.5515820000000  0.4894650000000 1.0
C      1  0.5154700000000  0.4911230000000  0.4969550000000 1.0
C      1  0.5374920000000  0.4744360000000  0.4839300000000 1.0
C      1  0.4622600000000  0.5482390000000  0.4877440000000 1.0
C      1  0.4925510000000  0.4701470000000  0.5220350000000 1.0
C      1  0.5183630000000  0.4646860000000  0.5436930000000 1.0
C      1  0.5215580000000  0.4039820000000  0.4820140000000 1.0
C      1  0.4539060000000  0.4323080000000  0.5367750000000 1.0
C      1  0.5612430000000  0.4881790000000  0.4830110000000 1.0
END
