TITL C-2778428-5639-601 24.9702727029813 125000 -798.938485354435 0 0 138 (C1) n - 1
REM
REM in /home/nfs/bkarasulu/CARBON/AIRSS/Generating-Clusters/REBO/Only-C1/SD-CG/HFTN-CG
REM
REM
REM
REM
REM
REM ./C.cell (11c1c37f851c82e70ff6c80c92926a4b)
REM
REM compiler GCC version 9.2.1 20190827 (Red Hat 9.2.1-1)
REM options -cpp -mtune=generic -march=x86-64 -g -O0 -fpre-include=/usr/include/finclude/math-vector-fortran.h
REM seed 1321982471 752708375 939117552 -1902248595 1924522161 1613599391 527521380 214328099 1193115167 817085061 -1920739124 1294988812 -1798333741 258476237 -888837661 1890269312 -1713617725 1707926935 2023198430 593398186 -2093094668 492372324 1126335774 1649715960 -1771767087 225654537 1037716458 1546590252 1741542859 157122116 -511084599 1690251046 -881317863
REM
CELL 1.54180   50.00000   50.00000   50.00000   90.00000   90.00000   90.00000
LATT -1
SFAC C  
C      1  0.4351760000000  0.4779470000000  0.4575420000000 1.0
C      1  0.4508380000000  0.5510520000000  0.5101240000000 1.0
C      1  0.5793510000000  0.4436740000000  0.4760470000000 1.0
C      1  0.5499190000000  0.5892500000000  0.4718920000000 1.0
C      1  0.5728870000000  0.4683810000000  0.5657660000000 1.0
C      1  0.4320430000000  0.5725020000000  0.5011080000000 1.0
C      1  0.5311040000000  0.4099670000000  0.4795340000000 1.0
C      1  0.5533580000000  0.5482690000000  0.5666220000000 1.0
C      1  0.5818790000000  0.5378100000000  0.5053760000000 1.0
C      1  0.5601990000000  0.4192560000000  0.4899770000000 1.0
C      1  0.4990070000000  0.5003030000000  0.5337560000000 1.0
C      1  0.4970820000000  0.5581500000000  0.5277610000000 1.0
C      1  0.5175740000000  0.4967590000000  0.4494730000000 1.0
C      1  0.4834410000000  0.5998620000000  0.5023010000000 1.0
C      1  0.4346580000000  0.4249820000000  0.4766360000000 1.0
C      1  0.4361070000000  0.5521990000000  0.4645930000000 1.0
C      1  0.5368090000000  0.5213140000000  0.5618950000000 1.0
C      1  0.4127310000000  0.5105680000000  0.4528460000000 1.0
C      1  0.4764430000000  0.4991960000000  0.4075370000000 1.0
C      1  0.4884420000000  0.5879920000000  0.5338840000000 1.0
C      1  0.5108190000000  0.5058300000000  0.5043830000000 1.0
C      1  0.5754980000000  0.4687030000000  0.4947140000000 1.0
C      1  0.4228520000000  0.5057650000000  0.5644280000000 1.0
C      1  0.4785920000000  0.4026160000000  0.5006480000000 1.0
C      1  0.3760990000000  0.4823520000000  0.4830540000000 1.0
C      1  0.4493150000000  0.4868750000000  0.5413140000000 1.0
C      1  0.4416030000000  0.4693670000000  0.4258640000000 1.0
C      1  0.5434460000000  0.4828440000000  0.5305000000000 1.0
C      1  0.4916000000000  0.4472450000000  0.5478190000000 1.0
C      1  0.5542110000000  0.4484970000000  0.5477420000000 1.0
C      1  0.4563080000000  0.5912590000000  0.5301400000000 1.0
C      1  0.5227650000000  0.4567780000000  0.5380530000000 1.0
C      1  0.4285510000000  0.4821560000000  0.4907530000000 1.0
C      1  0.5554750000000  0.4892250000000  0.4810910000000 1.0
C      1  0.4686760000000  0.5128600000000  0.5337520000000 1.0
C      1  0.4658520000000  0.4107820000000  0.4743390000000 1.0
C      1  0.5143730000000  0.5848010000000  0.5036440000000 1.0
C      1  0.4592940000000  0.4723030000000  0.4947510000000 1.0
C      1  0.4435400000000  0.4985040000000  0.5817090000000 1.0
C      1  0.6060340000000  0.5379950000000  0.4842310000000 1.0
C      1  0.5314840000000  0.4475190000000  0.4459810000000 1.0
C      1  0.4502310000000  0.4708180000000  0.5798120000000 1.0
C      1  0.5369430000000  0.5355360000000  0.4426370000000 1.0
C      1  0.5879150000000  0.4881570000000  0.5543040000000 1.0
C      1  0.5456750000000  0.5684920000000  0.5472890000000 1.0
C      1  0.4714430000000  0.4540200000000  0.5208380000000 1.0
C      1  0.5003660000000  0.5201180000000  0.4316930000000 1.0
C      1  0.4764080000000  0.4300420000000  0.4297960000000 1.0
C      1  0.5297420000000  0.5182110000000  0.4714060000000 1.0
C      1  0.4932890000000  0.5138380000000  0.5888230000000 1.0
C      1  0.4967170000000  0.4451500000000  0.4775940000000 1.0
C      1  0.4824400000000  0.5506580000000  0.5018840000000 1.0
C      1  0.4627910000000  0.5234860000000  0.5883830000000 1.0
C      1  0.5044640000000  0.5337310000000  0.4876860000000 1.0
C      1  0.5992910000000  0.4927350000000  0.4733540000000 1.0
C      1  0.5101080000000  0.4018170000000  0.4978970000000 1.0
C      1  0.4083070000000  0.5600190000000  0.4917290000000 1.0
C      1  0.5412330000000  0.4839030000000  0.4333210000000 1.0
C      1  0.4500930000000  0.5888430000000  0.4696910000000 1.0
C      1  0.4887760000000  0.4793660000000  0.4443860000000 1.0
C      1  0.4686770000000  0.4145870000000  0.5487310000000 1.0
C      1  0.5087230000000  0.5290250000000  0.5706910000000 1.0
C      1  0.5959050000000  0.4828570000000  0.5155650000000 1.0
C      1  0.4219020000000  0.4465650000000  0.5076350000000 1.0
C      1  0.4603830000000  0.5208330000000  0.4171380000000 1.0
C      1  0.6092180000000  0.5091860000000  0.5005570000000 1.0
C      1  0.5733300000000  0.5057250000000  0.4618310000000 1.0
C      1  0.4797950000000  0.4826510000000  0.5558010000000 1.0
C      1  0.4407650000000  0.5410120000000  0.5389930000000 1.0
C      1  0.5629240000000  0.5012280000000  0.4143050000000 1.0
C      1  0.4714990000000  0.4624240000000  0.4671260000000 1.0
C      1  0.5725990000000  0.4640460000000  0.5931780000000 1.0
C      1  0.4878760000000  0.4552490000000  0.4197300000000 1.0
C      1  0.5965470000000  0.5116560000000  0.5323510000000 1.0
C      1  0.4607240000000  0.4960280000000  0.4484520000000 1.0
C      1  0.5177130000000  0.4655830000000  0.4206440000000 1.0
C      1  0.4815860000000  0.5520750000000  0.5888280000000 1.0
C      1  0.5217160000000  0.4226520000000  0.4559940000000 1.0
C      1  0.5446090000000  0.4619780000000  0.4663890000000 1.0
C      1  0.5095910000000  0.4129660000000  0.5267870000000 1.0
C      1  0.4955230000000  0.6024990000000  0.4736970000000 1.0
C      1  0.4761380000000  0.5004700000000  0.4856970000000 1.0
C      1  0.4355920000000  0.5120960000000  0.4348800000000 1.0
C      1  0.5246340000000  0.4928870000000  0.5550260000000 1.0
C      1  0.4960350000000  0.4068370000000  0.5504320000000 1.0
C      1  0.5665800000000  0.5647960000000  0.5206180000000 1.0
C      1  0.4853670000000  0.5479770000000  0.4557140000000 1.0
C      1  0.4254950000000  0.5791460000000  0.4549300000000 1.0
C      1  0.4558440000000  0.4375420000000  0.4550410000000 1.0
C      1  0.4635430000000  0.5341620000000  0.5580480000000 1.0
C      1  0.4773660000000  0.5441930000000  0.4247730000000 1.0
C      1  0.5608260000000  0.6105010000000  0.4610990000000 1.0
C      1  0.5147090000000  0.5814170000000  0.5550640000000 1.0
C      1  0.4503890000000  0.6010790000000  0.4994070000000 1.0
C      1  0.4937580000000  0.4865910000000  0.5814910000000 1.0
C      1  0.5003170000000  0.4769730000000  0.4906430000000 1.0
C      1  0.4825720000000  0.5158150000000  0.4594930000000 1.0
C      1  0.4381140000000  0.5731940000000  0.5408600000000 1.0
C      1  0.5620620000000  0.4193590000000  0.5408260000000 1.0
C      1  0.5674110000000  0.5313860000000  0.4531250000000 1.0
C      1  0.5193140000000  0.4715530000000  0.5803030000000 1.0
C      1  0.5424100000000  0.5066240000000  0.5074930000000 1.0
C      1  0.5273560000000  0.5584680000000  0.5212780000000 1.0
C      1  0.4588400000000  0.5187160000000  0.5053090000000 1.0
C      1  0.4590180000000  0.4089220000000  0.5217610000000 1.0
C      1  0.4287650000000  0.5128280000000  0.5325780000000 1.0
C      1  0.5266730000000  0.5977170000000  0.5284150000000 1.0
C      1  0.4912880000000  0.4197220000000  0.4554730000000 1.0
C      1  0.4128200000000  0.4495270000000  0.4743010000000 1.0
C      1  0.5669030000000  0.4094670000000  0.5183840000000 1.0
C      1  0.5883610000000  0.4684000000000  0.4570590000000 1.0
C      1  0.5454040000000  0.5314890000000  0.5312520000000 1.0
C      1  0.4923940000000  0.5409140000000  0.5511730000000 1.0
C      1  0.5634650000000  0.5676380000000  0.4867800000000 1.0
C      1  0.4662310000000  0.5604690000000  0.4745500000000 1.0
C      1  0.5209480000000  0.5818390000000  0.4716600000000 1.0
C      1  0.5362400000000  0.5188370000000  0.4154270000000 1.0
C      1  0.4630300000000  0.4421430000000  0.5656660000000 1.0
C      1  0.5211360000000  0.4570330000000  0.5067630000000 1.0
C      1  0.5154530000000  0.5538400000000  0.4617130000000 1.0
C      1  0.5527350000000  0.5350220000000  0.4900530000000 1.0
C      1  0.4961410000000  0.4374030000000  0.5094680000000 1.0
C      1  0.4157460000000  0.5298610000000  0.4777880000000 1.0
C      1  0.5779750000000  0.5367960000000  0.5372830000000 1.0
C      1  0.4400250000000  0.4596790000000  0.5274040000000 1.0
C      1  0.4019860000000  0.4794690000000  0.4610190000000 1.0
C      1  0.4336520000000  0.4540850000000  0.5579130000000 1.0
C      1  0.5822940000000  0.5503770000000  0.4676550000000 1.0
C      1  0.4347880000000  0.4172420000000  0.5094080000000 1.0
C      1  0.5698620000000  0.4666170000000  0.5259820000000 1.0
C      1  0.5103770000000  0.4972760000000  0.4101940000000 1.0
C      1  0.3985720000000  0.4683080000000  0.4989340000000 1.0
C      1  0.5426840000000  0.4464670000000  0.4907830000000 1.0
C      1  0.5127330000000  0.4448690000000  0.5743980000000 1.0
C      1  0.4982970000000  0.5681460000000  0.5797740000000 1.0
C      1  0.4651390000000  0.4742220000000  0.4125370000000 1.0
C      1  0.5734530000000  0.4767310000000  0.4343760000000 1.0
C      1  0.4274690000000  0.5113850000000  0.4999960000000 1.0
END
