TITL C-2778428-5639-1208 -0.00025721539456666 125000 -1117.30493775039 0 0 194 (C1) n - 1
REM
REM in /home/nfs/bkarasulu/CARBON/AIRSS/Generating-Clusters/REBO/Only-C1/SD-CG/HFTN-CG
REM
REM
REM
REM
REM
REM ./C.cell (11c1c37f851c82e70ff6c80c92926a4b)
REM
REM compiler GCC version 9.2.1 20190827 (Red Hat 9.2.1-1)
REM options -cpp -mtune=generic -march=x86-64 -g -O0 -fpre-include=/usr/include/finclude/math-vector-fortran.h
REM seed -676552113 -1511630985 -2144821938 -1354749352 188807339 1641714247 195886806 -829843701 941626523 -718074058 384201597 -487189644 205478379 -1974901900 1422945488 -1168784344 2002279337 -1118196203 -1780955433 -1450279556 -173314599 -1421564370 -1762173581 591772037 1186110181 -60435051 262450264 880535994 291882121 632760013 1037108154 559781171 1877937107
REM
CELL 1.54180   50.00000   50.00000   50.00000   90.00000   90.00000   90.00000
LATT -1
SFAC C  
C      1  0.4328380000000  0.5004530000000  0.4697250000000 1.0
C      1  0.4178590000000  0.4901950000000  0.4025340000000 1.0
C      1  0.5685170000000  0.4249280000000  0.5591870000000 1.0
C      1  0.5330180000000  0.5338140000000  0.5921130000000 1.0
C      1  0.5536490000000  0.5486190000000  0.5064970000000 1.0
C      1  0.6062860000000  0.5040460000000  0.4767480000000 1.0
C      1  0.5189870000000  0.5627810000000  0.5438230000000 1.0
C      1  0.6056000000000  0.4596930000000  0.5099820000000 1.0
C      1  0.4217730000000  0.4157760000000  0.4941820000000 1.0
C      1  0.5171980000000  0.6003340000000  0.4361950000000 1.0
C      1  0.5417010000000  0.5960000000000  0.5020530000000 1.0
C      1  0.3946580000000  0.4736510000000  0.5295690000000 1.0
C      1  0.4126100000000  0.4754820000000  0.5578700000000 1.0
C      1  0.5165040000000  0.5260970000000  0.5099140000000 1.0
C      1  0.5162060000000  0.5606440000000  0.4403520000000 1.0
C      1  0.4354920000000  0.5395390000000  0.5353330000000 1.0
C      1  0.4602670000000  0.4738310000000  0.5283120000000 1.0
C      1  0.4270510000000  0.4242210000000  0.5246260000000 1.0
C      1  0.4769960000000  0.4911350000000  0.4617750000000 1.0
C      1  0.4680280000000  0.5251610000000  0.5885420000000 1.0
C      1  0.4975470000000  0.4578090000000  0.3926920000000 1.0
C      1  0.5332760000000  0.4274700000000  0.4375910000000 1.0
C      1  0.4830970000000  0.4153720000000  0.4834830000000 1.0
C      1  0.5048280000000  0.4293400000000  0.4094860000000 1.0
C      1  0.5439790000000  0.5025640000000  0.4886100000000 1.0
C      1  0.5729210000000  0.4678920000000  0.5964350000000 1.0
C      1  0.3909780000000  0.5635220000000  0.4909240000000 1.0
C      1  0.5886500000000  0.4342420000000  0.4935430000000 1.0
C      1  0.3925050000000  0.4925690000000  0.5068100000000 1.0
C      1  0.5306920000000  0.4690630000000  0.4723880000000 1.0
C      1  0.4089780000000  0.5141310000000  0.4515960000000 1.0
C      1  0.5934730000000  0.5830500000000  0.4908210000000 1.0
C      1  0.4065710000000  0.4930220000000  0.4269450000000 1.0
C      1  0.4665770000000  0.5545190000000  0.4417840000000 1.0
C      1  0.4532550000000  0.4667390000000  0.5932220000000 1.0
C      1  0.5004350000000  0.5807140000000  0.4176100000000 1.0
C      1  0.5991590000000  0.5011990000000  0.4472530000000 1.0
C      1  0.4643510000000  0.5508190000000  0.4076150000000 1.0
C      1  0.4224750000000  0.5034310000000  0.4994960000000 1.0
C      1  0.5412800000000  0.4249580000000  0.5582960000000 1.0
C      1  0.5472410000000  0.5683720000000  0.5302500000000 1.0
C      1  0.4948050000000  0.6178840000000  0.5080690000000 1.0
C      1  0.4121320000000  0.5789190000000  0.4817720000000 1.0
C      1  0.4947930000000  0.4986250000000  0.5290740000000 1.0
C      1  0.5962880000000  0.5456090000000  0.5400060000000 1.0
C      1  0.4330890000000  0.4496550000000  0.4424400000000 1.0
C      1  0.5006610000000  0.4804390000000  0.3742210000000 1.0
C      1  0.4606800000000  0.4255650000000  0.5031010000000 1.0
C      1  0.4999270000000  0.5284220000000  0.5378250000000 1.0
C      1  0.4985850000000  0.4738880000000  0.4762060000000 1.0
C      1  0.5444560000000  0.5944540000000  0.4338830000000 1.0
C      1  0.4550160000000  0.5940200000000  0.4713990000000 1.0
C      1  0.4553380000000  0.4426530000000  0.5703090000000 1.0
C      1  0.4966630000000  0.4458870000000  0.6151780000000 1.0
C      1  0.5251810000000  0.5163160000000  0.4633200000000 1.0
C      1  0.4446480000000  0.4992290000000  0.5206600000000 1.0
C      1  0.4649130000000  0.4976080000000  0.6020060000000 1.0
C      1  0.5429640000000  0.4895680000000  0.4513200000000 1.0
C      1  0.4011140000000  0.4779010000000  0.4776790000000 1.0
C      1  0.5485230000000  0.4429880000000  0.4108120000000 1.0
C      1  0.5202760000000  0.5333010000000  0.5603410000000 1.0
C      1  0.4558370000000  0.5636580000000  0.5598430000000 1.0
C      1  0.5597980000000  0.4667120000000  0.5686460000000 1.0
C      1  0.4639380000000  0.4041800000000  0.5547180000000 1.0
C      1  0.4546550000000  0.5217580000000  0.4848390000000 1.0
C      1  0.4542490000000  0.5238080000000  0.5569970000000 1.0
C      1  0.5738490000000  0.4907840000000  0.4763710000000 1.0
C      1  0.5291040000000  0.4784350000000  0.5273050000000 1.0
C      1  0.5005590000000  0.4802990000000  0.4181200000000 1.0
C      1  0.4168220000000  0.5362920000000  0.5791280000000 1.0
C      1  0.5722490000000  0.4845800000000  0.4347120000000 1.0
C      1  0.4206400000000  0.5409580000000  0.4432030000000 1.0
C      1  0.4956740000000  0.5813060000000  0.5502940000000 1.0
C      1  0.5122500000000  0.5505970000000  0.4932950000000 1.0
C      1  0.4450980000000  0.4827240000000  0.3993930000000 1.0
C      1  0.6122500000000  0.5103040000000  0.5038150000000 1.0
C      1  0.5670230000000  0.5414210000000  0.5547290000000 1.0
C      1  0.4593670000000  0.4211980000000  0.4254530000000 1.0
C      1  0.4859310000000  0.4052230000000  0.4505770000000 1.0
C      1  0.4044450000000  0.5517280000000  0.5563660000000 1.0
C      1  0.5035770000000  0.4345750000000  0.5511090000000 1.0
C      1  0.4958450000000  0.6219250000000  0.4809290000000 1.0
C      1  0.5526170000000  0.4668140000000  0.4049300000000 1.0
C      1  0.4295840000000  0.4650750000000  0.4914530000000 1.0
C      1  0.4290150000000  0.4212930000000  0.4610230000000 1.0
C      1  0.4499560000000  0.4941810000000  0.5714880000000 1.0
C      1  0.5587130000000  0.5154990000000  0.5936070000000 1.0
C      1  0.3898490000000  0.5105820000000  0.4779080000000 1.0
C      1  0.4277520000000  0.5715700000000  0.5431710000000 1.0
C      1  0.6144330000000  0.4604100000000  0.4787440000000 1.0
C      1  0.4450990000000  0.5963140000000  0.5275710000000 1.0
C      1  0.4779130000000  0.5957000000000  0.5272020000000 1.0
C      1  0.4660530000000  0.3862000000000  0.5043430000000 1.0
C      1  0.5189600000000  0.5056840000000  0.4138060000000 1.0
C      1  0.5163340000000  0.5978940000000  0.5172650000000 1.0
C      1  0.4679550000000  0.5571490000000  0.5108880000000 1.0
C      1  0.4724960000000  0.4375360000000  0.4035260000000 1.0
C      1  0.4457720000000  0.5491720000000  0.5865050000000 1.0
C      1  0.4934790000000  0.4441330000000  0.4695320000000 1.0
C      1  0.5879210000000  0.5616290000000  0.4687670000000 1.0
C      1  0.4608660000000  0.4784600000000  0.4886450000000 1.0
C      1  0.5648020000000  0.5272010000000  0.4255460000000 1.0
C      1  0.5084420000000  0.4856710000000  0.5836770000000 1.0
C      1  0.5127250000000  0.4682220000000  0.6293000000000 1.0
C      1  0.5923500000000  0.4654250000000  0.4632520000000 1.0
C      1  0.5066840000000  0.4797360000000  0.5529580000000 1.0
C      1  0.5215480000000  0.4093400000000  0.5366270000000 1.0
C      1  0.5073960000000  0.4985730000000  0.6164930000000 1.0
C      1  0.5536040000000  0.4027640000000  0.4913840000000 1.0
C      1  0.4270130000000  0.4451140000000  0.5517510000000 1.0
C      1  0.4821320000000  0.5776510000000  0.4613700000000 1.0
C      1  0.5144250000000  0.5248840000000  0.6155380000000 1.0
C      1  0.4927380000000  0.4233890000000  0.6002080000000 1.0
C      1  0.5389340000000  0.4888840000000  0.5944210000000 1.0
C      1  0.4959350000000  0.5075790000000  0.3892640000000 1.0
C      1  0.4888080000000  0.5381490000000  0.3947030000000 1.0
C      1  0.4733200000000  0.5045540000000  0.5066420000000 1.0
C      1  0.5135540000000  0.4924210000000  0.4999520000000 1.0
C      1  0.4964410000000  0.4340740000000  0.5182370000000 1.0
C      1  0.5215770000000  0.4339230000000  0.5000920000000 1.0
C      1  0.5482550000000  0.5193160000000  0.5553110000000 1.0
C      1  0.5059690000000  0.3842490000000  0.4929890000000 1.0
C      1  0.4661190000000  0.4331570000000  0.4524670000000 1.0
C      1  0.5011690000000  0.5706380000000  0.5786610000000 1.0
C      1  0.5732510000000  0.4174080000000  0.4755770000000 1.0
C      1  0.4309890000000  0.5341780000000  0.5050350000000 1.0
C      1  0.5471000000000  0.5396730000000  0.4752760000000 1.0
C      1  0.4536870000000  0.4061260000000  0.5285700000000 1.0
C      1  0.4204970000000  0.4562720000000  0.5201310000000 1.0
C      1  0.4848800000000  0.4708200000000  0.6009010000000 1.0
C      1  0.3972300000000  0.5343070000000  0.4993910000000 1.0
C      1  0.4972460000000  0.5719710000000  0.5114600000000 1.0
C      1  0.5474400000000  0.4197440000000  0.5171650000000 1.0
C      1  0.4017980000000  0.5294980000000  0.5316010000000 1.0
C      1  0.4489170000000  0.5658560000000  0.4894690000000 1.0
C      1  0.4977400000000  0.5478000000000  0.4658520000000 1.0
C      1  0.4383710000000  0.5361410000000  0.4205800000000 1.0
C      1  0.4549530000000  0.5952720000000  0.5594920000000 1.0
C      1  0.5498320000000  0.5631950000000  0.4342070000000 1.0
C      1  0.5772830000000  0.5526680000000  0.4447250000000 1.0
C      1  0.4942410000000  0.3998850000000  0.5186190000000 1.0
C      1  0.6093390000000  0.4884500000000  0.5283020000000 1.0
C      1  0.4793980000000  0.5565830000000  0.5910690000000 1.0
C      1  0.6015910000000  0.5349290000000  0.5107160000000 1.0
C      1  0.5720250000000  0.5019850000000  0.5260870000000 1.0
C      1  0.5851180000000  0.5115950000000  0.5742550000000 1.0
C      1  0.5498530000000  0.4990350000000  0.4131580000000 1.0
C      1  0.4656630000000  0.5038470000000  0.3978250000000 1.0
C      1  0.4734500000000  0.4837220000000  0.4313180000000 1.0
C      1  0.5279260000000  0.3976450000000  0.4803650000000 1.0
C      1  0.4745850000000  0.5445750000000  0.5396890000000 1.0
C      1  0.5776210000000  0.4787720000000  0.5063400000000 1.0
C      1  0.5687310000000  0.5866530000000  0.5134890000000 1.0
C      1  0.4437600000000  0.3971560000000  0.4809500000000 1.0
C      1  0.5285430000000  0.4551440000000  0.5616040000000 1.0
C      1  0.4816990000000  0.4254340000000  0.5706760000000 1.0
C      1  0.4491340000000  0.5844490000000  0.4402300000000 1.0
C      1  0.5368580000000  0.5414100000000  0.4122630000000 1.0
C      1  0.5774300000000  0.4521170000000  0.4419490000000 1.0
C      1  0.5491820000000  0.5181870000000  0.5154070000000 1.0
C      1  0.4579470000000  0.4700930000000  0.5543160000000 1.0
C      1  0.5946960000000  0.5136450000000  0.5470860000000 1.0
C      1  0.5529520000000  0.5673450000000  0.5637830000000 1.0
C      1  0.4612420000000  0.5151950000000  0.4273040000000 1.0
C      1  0.5978210000000  0.5728560000000  0.5224440000000 1.0
C      1  0.4726840000000  0.4542000000000  0.5086660000000 1.0
C      1  0.5303030000000  0.5645650000000  0.5826510000000 1.0
C      1  0.4541780000000  0.4602330000000  0.4198590000000 1.0
C      1  0.4197150000000  0.5031230000000  0.5393600000000 1.0
C      1  0.5106460000000  0.5544880000000  0.4014400000000 1.0
C      1  0.5148170000000  0.4550700000000  0.4284880000000 1.0
C      1  0.5811130000000  0.4435860000000  0.5440730000000 1.0
C      1  0.5822510000000  0.5450120000000  0.4932970000000 1.0
C      1  0.4349460000000  0.5959530000000  0.4988130000000 1.0
C      1  0.4138900000000  0.5067060000000  0.5724860000000 1.0
C      1  0.5766790000000  0.4906330000000  0.6071760000000 1.0
C      1  0.4310020000000  0.5641940000000  0.4600760000000 1.0
C      1  0.5827060000000  0.4757320000000  0.5457170000000 1.0
C      1  0.5154810000000  0.5274710000000  0.4364290000000 1.0
C      1  0.5390110000000  0.4605080000000  0.5030390000000 1.0
C      1  0.5645680000000  0.4285120000000  0.4500620000000 1.0
C      1  0.4801470000000  0.3824250000000  0.4735690000000 1.0
C      1  0.5679720000000  0.4471480000000  0.5150040000000 1.0
C      1  0.5249170000000  0.5801670000000  0.4825080000000 1.0
C      1  0.5400560000000  0.4744500000000  0.6182610000000 1.0
C      1  0.5449610000000  0.4905300000000  0.5526640000000 1.0
C      1  0.4694100000000  0.5830010000000  0.4146470000000 1.0
C      1  0.5195660000000  0.4253800000000  0.4679350000000 1.0
C      1  0.5057030000000  0.5972120000000  0.4641840000000 1.0
C      1  0.4474240000000  0.4421880000000  0.4789340000000 1.0
C      1  0.5079760000000  0.4057130000000  0.4297760000000 1.0
C      1  0.4736320000000  0.5249900000000  0.4577800000000 1.0
C      1  0.4188710000000  0.4754000000000  0.4512510000000 1.0
C      1  0.5639320000000  0.5169730000000  0.4563250000000 1.0
END
