TITL C-2778424-3986-368 0.00477234270991733 125000 -676.998004102792 0 0 117 (C1) n - 1
REM
REM in /home/nfs/bkarasulu/CARBON/AIRSS/Generating-Clusters/REBO/Only-C1/SD-CG/HFTN-CG
REM
REM
REM
REM
REM
REM ./C.cell (11c1c37f851c82e70ff6c80c92926a4b)
REM
REM compiler GCC version 9.2.1 20190827 (Red Hat 9.2.1-1)
REM options -cpp -mtune=generic -march=x86-64 -g -O0 -fpre-include=/usr/include/finclude/math-vector-fortran.h
REM seed 1438168533 561195424 2028904854 808701694 -575467713 1713404267 -1650342057 644316756 -1668544894 1829081175 -183657441 1802246950 1178954947 -905314927 -407247894 1514421833 1717107690 -1301434880 1850259247 1347290105 -7204918 272416236 -960708178 -1139615583 -484257790 -442733097 -1106576991 604784555 524812944 1438134976 1190441937 976418745 1694760196
REM
CELL 1.54180   50.00000   50.00000   50.00000   90.00000   90.00000   90.00000
LATT -1
SFAC C  
C      1  0.4281840000000  0.4512970000000  0.5157110000000 1.0
C      1  0.5230890000000  0.5826290000000  0.5422310000000 1.0
C      1  0.3843120000000  0.5363820000000  0.4567270000000 1.0
C      1  0.5763760000000  0.5557080000000  0.5458880000000 1.0
C      1  0.4585180000000  0.4667170000000  0.4692180000000 1.0
C      1  0.5955790000000  0.4647560000000  0.5236540000000 1.0
C      1  0.5625600000000  0.5597100000000  0.4688650000000 1.0
C      1  0.4585080000000  0.5176860000000  0.5726360000000 1.0
C      1  0.4306150000000  0.5193040000000  0.4232780000000 1.0
C      1  0.5156440000000  0.3909180000000  0.4823520000000 1.0
C      1  0.5064120000000  0.4275570000000  0.5525570000000 1.0
C      1  0.4185370000000  0.4890420000000  0.5493080000000 1.0
C      1  0.5271110000000  0.4877810000000  0.5269530000000 1.0
C      1  0.5046030000000  0.4512530000000  0.4878350000000 1.0
C      1  0.4390760000000  0.5115610000000  0.5502860000000 1.0
C      1  0.5203770000000  0.3997620000000  0.5085810000000 1.0
C      1  0.4423290000000  0.5740670000000  0.5140850000000 1.0
C      1  0.5586640000000  0.4988030000000  0.5342870000000 1.0
C      1  0.5212070000000  0.5833270000000  0.4553500000000 1.0
C      1  0.4508040000000  0.4351860000000  0.5329720000000 1.0
C      1  0.4876040000000  0.4750110000000  0.5324380000000 1.0
C      1  0.4738180000000  0.4224020000000  0.5543060000000 1.0
C      1  0.5489880000000  0.4287770000000  0.4702460000000 1.0
C      1  0.5061200000000  0.4269850000000  0.4422340000000 1.0
C      1  0.5323180000000  0.4368990000000  0.5349910000000 1.0
C      1  0.5176810000000  0.5918230000000  0.5143930000000 1.0
C      1  0.4783330000000  0.4989360000000  0.5775560000000 1.0
C      1  0.5166680000000  0.5032130000000  0.4983320000000 1.0
C      1  0.5609860000000  0.4247470000000  0.4971400000000 1.0
C      1  0.5350260000000  0.4820380000000  0.5591270000000 1.0
C      1  0.5207180000000  0.5819270000000  0.4865510000000 1.0
C      1  0.4427130000000  0.5528810000000  0.4408250000000 1.0
C      1  0.5828760000000  0.4474030000000  0.5001760000000 1.0
C      1  0.4578610000000  0.5557600000000  0.5379260000000 1.0
C      1  0.4088380000000  0.5399940000000  0.4784440000000 1.0
C      1  0.5148520000000  0.4870180000000  0.4491490000000 1.0
C      1  0.5180180000000  0.5263680000000  0.5732430000000 1.0
C      1  0.5768440000000  0.5316320000000  0.4705230000000 1.0
C      1  0.5423900000000  0.4158440000000  0.5157600000000 1.0
C      1  0.5645110000000  0.5256090000000  0.4988590000000 1.0
C      1  0.5848800000000  0.5301310000000  0.5251420000000 1.0
C      1  0.4967120000000  0.5056040000000  0.4156500000000 1.0
C      1  0.5768210000000  0.5613260000000  0.5139580000000 1.0
C      1  0.4675120000000  0.4576140000000  0.5167140000000 1.0
C      1  0.5443970000000  0.5647100000000  0.5531910000000 1.0
C      1  0.4606300000000  0.5797970000000  0.4485650000000 1.0
C      1  0.5178420000000  0.4872440000000  0.6017310000000 1.0
C      1  0.5247250000000  0.5379630000000  0.4461670000000 1.0
C      1  0.4128160000000  0.4691270000000  0.5357940000000 1.0
C      1  0.4211540000000  0.5385610000000  0.5100110000000 1.0
C      1  0.5028670000000  0.4515440000000  0.5730610000000 1.0
C      1  0.4471630000000  0.4714850000000  0.4972020000000 1.0
C      1  0.4818300000000  0.5335400000000  0.4740440000000 1.0
C      1  0.4831630000000  0.5844350000000  0.4731120000000 1.0
C      1  0.5563860000000  0.4497880000000  0.5496480000000 1.0
C      1  0.4774190000000  0.4679820000000  0.4323570000000 1.0
C      1  0.4700730000000  0.5016000000000  0.4714250000000 1.0
C      1  0.5410650000000  0.5254360000000  0.5252210000000 1.0
C      1  0.5452150000000  0.4611620000000  0.4212300000000 1.0
C      1  0.4970830000000  0.5225760000000  0.4388410000000 1.0
C      1  0.5552260000000  0.5643420000000  0.4961800000000 1.0
C      1  0.4652280000000  0.5448490000000  0.5762920000000 1.0
C      1  0.5487770000000  0.4991960000000  0.4956970000000 1.0
C      1  0.5671550000000  0.4589750000000  0.4379800000000 1.0
C      1  0.3592280000000  0.5340050000000  0.4521480000000 1.0
C      1  0.4805850000000  0.4723270000000  0.5626460000000 1.0
C      1  0.4665540000000  0.4934740000000  0.4406590000000 1.0
C      1  0.5248370000000  0.4680940000000  0.5815770000000 1.0
C      1  0.5116790000000  0.5502690000000  0.4751700000000 1.0
C      1  0.4585190000000  0.4107830000000  0.4937400000000 1.0
C      1  0.4155130000000  0.4308400000000  0.4959490000000 1.0
C      1  0.5684640000000  0.4781200000000  0.4979880000000 1.0
C      1  0.5420040000000  0.5634260000000  0.4498500000000 1.0
C      1  0.4915750000000  0.4747670000000  0.4708260000000 1.0
C      1  0.4152550000000  0.5380130000000  0.4449900000000 1.0
C      1  0.5144080000000  0.4587440000000  0.5192750000000 1.0
C      1  0.5072260000000  0.4733650000000  0.4184960000000 1.0
C      1  0.5292490000000  0.5473220000000  0.5042350000000 1.0
C      1  0.5209260000000  0.4426320000000  0.4203220000000 1.0
C      1  0.4755680000000  0.5454510000000  0.4349310000000 1.0
C      1  0.5028990000000  0.5084270000000  0.5893440000000 1.0
C      1  0.4637350000000  0.5889150000000  0.5328930000000 1.0
C      1  0.4800890000000  0.5665330000000  0.5700450000000 1.0
C      1  0.5077500000000  0.5112460000000  0.4702440000000 1.0
C      1  0.4580880000000  0.5171750000000  0.4267690000000 1.0
C      1  0.4977630000000  0.5552290000000  0.5117130000000 1.0
C      1  0.4647080000000  0.4054480000000  0.5261000000000 1.0
C      1  0.4823030000000  0.4328330000000  0.5030750000000 1.0
C      1  0.5372120000000  0.4895740000000  0.4139880000000 1.0
C      1  0.4314560000000  0.5380870000000  0.5349710000000 1.0
C      1  0.4331790000000  0.4130660000000  0.4845530000000 1.0
C      1  0.4913830000000  0.5043900000000  0.5211030000000 1.0
C      1  0.5727630000000  0.4707370000000  0.5431110000000 1.0
C      1  0.4972760000000  0.4117380000000  0.5239080000000 1.0
C      1  0.5764680000000  0.4470280000000  0.4678530000000 1.0
C      1  0.4415080000000  0.4562460000000  0.4490340000000 1.0
C      1  0.5215670000000  0.4344640000000  0.4689530000000 1.0
C      1  0.4807420000000  0.5361320000000  0.5270970000000 1.0
C      1  0.5893690000000  0.5021940000000  0.4579710000000 1.0
C      1  0.5893100000000  0.4750430000000  0.4547370000000 1.0
C      1  0.4930080000000  0.5738210000000  0.4422200000000 1.0
C      1  0.5886850000000  0.4976660000000  0.5183390000000 1.0
C      1  0.4355530000000  0.5582190000000  0.4886850000000 1.0
C      1  0.5328120000000  0.5362370000000  0.5532350000000 1.0
C      1  0.4403580000000  0.4481030000000  0.5843590000000 1.0
C      1  0.4585740000000  0.5531750000000  0.4702420000000 1.0
C      1  0.4833780000000  0.5777860000000  0.4999040000000 1.0
C      1  0.4777940000000  0.4415310000000  0.4413360000000 1.0
C      1  0.4584130000000  0.5109480000000  0.5237480000000 1.0
C      1  0.5090780000000  0.3984160000000  0.4571770000000 1.0
C      1  0.4995560000000  0.5812010000000  0.5583630000000 1.0
C      1  0.5656850000000  0.5164680000000  0.4440150000000 1.0
C      1  0.5374300000000  0.5104220000000  0.4381920000000 1.0
C      1  0.4870870000000  0.6024260000000  0.5196710000000 1.0
C      1  0.5698870000000  0.5726830000000  0.5743310000000 1.0
C      1  0.4618340000000  0.4477080000000  0.5692780000000 1.0
C      1  0.4439010000000  0.4993550000000  0.5024340000000 1.0
END
