TITL C-2778428-5639-1282 -0.00324567203970741 125000 -282.258667654207 0 0 50 (C1) n - 1
REM
REM in /home/nfs/bkarasulu/CARBON/AIRSS/Generating-Clusters/REBO/Only-C1/SD-CG/HFTN-CG
REM
REM
REM
REM
REM
REM ./C.cell (11c1c37f851c82e70ff6c80c92926a4b)
REM
REM compiler GCC version 9.2.1 20190827 (Red Hat 9.2.1-1)
REM options -cpp -mtune=generic -march=x86-64 -g -O0 -fpre-include=/usr/include/finclude/math-vector-fortran.h
REM seed -685306697 697960532 597224500 -1808472905 -616497723 629710634 782280751 732149106 -742120822 -1060382463 -1218958170 464936900 -1402391409 1374149402 -452088607 741806239 1028151132 -474062258 -1239311426 -365495304 190138602 -1983320922 1275360124 1984819944 1465282484 134525170 1331851964 940493616 -1274462500 629484868 -395034257 2134714375 -1783451382
REM
CELL 1.54180   50.00000   50.00000   50.00000   90.00000   90.00000   90.00000
LATT -1
SFAC C  
C      1  0.4524100000000  0.5333280000000  0.4586880000000 1.0
C      1  0.4385170000000  0.4894980000000  0.4422010000000 1.0
C      1  0.4957310000000  0.4856130000000  0.5487420000000 1.0
C      1  0.4820930000000  0.5313560000000  0.5279230000000 1.0
C      1  0.5008330000000  0.5170210000000  0.4571060000000 1.0
C      1  0.4962700000000  0.5198580000000  0.4224130000000 1.0
C      1  0.5627310000000  0.4480190000000  0.5151710000000 1.0
C      1  0.4501940000000  0.4663070000000  0.4643860000000 1.0
C      1  0.5405140000000  0.5572100000000  0.5371690000000 1.0
C      1  0.4809210000000  0.4969740000000  0.4380350000000 1.0
C      1  0.4932790000000  0.4463560000000  0.4784720000000 1.0
C      1  0.5341840000000  0.5375260000000  0.4895770000000 1.0
C      1  0.4674760000000  0.4563010000000  0.4881700000000 1.0
C      1  0.5560470000000  0.4958170000000  0.4582330000000 1.0
C      1  0.4826100000000  0.5383170000000  0.4990440000000 1.0
C      1  0.5431180000000  0.4874870000000  0.5003040000000 1.0
C      1  0.5057890000000  0.4438010000000  0.5241380000000 1.0
C      1  0.5709690000000  0.4976870000000  0.5133130000000 1.0
C      1  0.4389680000000  0.5112990000000  0.4998990000000 1.0
C      1  0.5523930000000  0.4705610000000  0.4654360000000 1.0
C      1  0.4739320000000  0.4709560000000  0.4430560000000 1.0
C      1  0.4688910000000  0.4799550000000  0.6000800000000 1.0
C      1  0.4507910000000  0.4920570000000  0.5168250000000 1.0
C      1  0.4962950000000  0.5310260000000  0.5571810000000 1.0
C      1  0.5720860000000  0.4689200000000  0.5299350000000 1.0
C      1  0.5413860000000  0.5384080000000  0.5571310000000 1.0
C      1  0.5152340000000  0.5026180000000  0.5363400000000 1.0
C      1  0.4148580000000  0.5018450000000  0.4864710000000 1.0
C      1  0.4868070000000  0.4632870000000  0.5325400000000 1.0
C      1  0.5415620000000  0.4555570000000  0.4923700000000 1.0
C      1  0.4206770000000  0.4819410000000  0.4673260000000 1.0
C      1  0.4669070000000  0.5184390000000  0.5536200000000 1.0
C      1  0.5374640000000  0.5544380000000  0.5103310000000 1.0
C      1  0.5580030000000  0.5258040000000  0.4744260000000 1.0
C      1  0.5623710000000  0.4958580000000  0.5454230000000 1.0
C      1  0.5060030000000  0.5228530000000  0.4857110000000 1.0
C      1  0.3900530000000  0.5111090000000  0.4923290000000 1.0
C      1  0.4871550000000  0.4892030000000  0.5745710000000 1.0
C      1  0.4658250000000  0.4684010000000  0.5138770000000 1.0
C      1  0.5194930000000  0.5023500000000  0.5074560000000 1.0
C      1  0.5243750000000  0.5274500000000  0.4347930000000 1.0
C      1  0.4946670000000  0.4521380000000  0.4503410000000 1.0
C      1  0.5806970000000  0.5199280000000  0.4950430000000 1.0
C      1  0.4561460000000  0.5295880000000  0.4863710000000 1.0
C      1  0.4458530000000  0.5161930000000  0.4383240000000 1.0
C      1  0.4876160000000  0.5059050000000  0.6026890000000 1.0
C      1  0.5143000000000  0.4438770000000  0.4970440000000 1.0
C      1  0.5389060000000  0.5104820000000  0.5520270000000 1.0
C      1  0.5502420000000  0.5226790000000  0.4425080000000 1.0
C      1  0.4863530000000  0.5663960000000  0.4954420000000 1.0
END
