TITL C-2778423-5760-1044 0.00423983835058745 125000 -803.397276093511 0 0 142 (C1) n - 1
REM
REM in /home/nfs/bkarasulu/CARBON/AIRSS/Generating-Clusters/REBO/Only-C1/SD-CG/HFTN-CG
REM
REM
REM
REM
REM
REM ./C.cell (11c1c37f851c82e70ff6c80c92926a4b)
REM
REM compiler GCC version 9.2.1 20190827 (Red Hat 9.2.1-1)
REM options -cpp -mtune=generic -march=x86-64 -g -O0 -fpre-include=/usr/include/finclude/math-vector-fortran.h
REM seed 772128858 -645488079 -1287323437 926535556 -779687734 -480550663 1927828310 1737639781 -206059317 -1153864247 -1936496258 -475843975 -560023591 12259929 1726490557 -896691014 1277912935 -1778544724 1871611666 783692209 -389868987 1373285240 1705361005 1903672917 1851743207 946876792 -990202662 -2109917456 -1348001651 777213290 -1463096748 1401539260 578713505
REM
CELL 1.54180   50.00000   50.00000   50.00000   90.00000   90.00000   90.00000
LATT -1
SFAC C  
C      1  0.4405650000000  0.4587450000000  0.5006700000000 1.0
C      1  0.4452670000000  0.4558500000000  0.5585670000000 1.0
C      1  0.4879500000000  0.4781140000000  0.5137980000000 1.0
C      1  0.4718780000000  0.5893610000000  0.4676650000000 1.0
C      1  0.5117880000000  0.5457500000000  0.5481990000000 1.0
C      1  0.4963350000000  0.4368740000000  0.4623630000000 1.0
C      1  0.4387740000000  0.4200290000000  0.5090600000000 1.0
C      1  0.4336240000000  0.4635960000000  0.4420920000000 1.0
C      1  0.4618670000000  0.4171330000000  0.4578580000000 1.0
C      1  0.5239760000000  0.4518030000000  0.4360390000000 1.0
C      1  0.5601260000000  0.4183380000000  0.4625360000000 1.0
C      1  0.5616320000000  0.5404360000000  0.5703320000000 1.0
C      1  0.5110780000000  0.4588690000000  0.3924910000000 1.0
C      1  0.5662440000000  0.4405350000000  0.5486640000000 1.0
C      1  0.4896350000000  0.4070100000000  0.5395650000000 1.0
C      1  0.4947190000000  0.4071020000000  0.4522110000000 1.0
C      1  0.5904490000000  0.4820550000000  0.5080550000000 1.0
C      1  0.4547460000000  0.4578160000000  0.4236160000000 1.0
C      1  0.5299700000000  0.4324930000000  0.4834950000000 1.0
C      1  0.5400400000000  0.4574080000000  0.4649540000000 1.0
C      1  0.5085210000000  0.5973560000000  0.5502690000000 1.0
C      1  0.4878100000000  0.6121870000000  0.5275690000000 1.0
C      1  0.5523920000000  0.4680080000000  0.4341330000000 1.0
C      1  0.4836490000000  0.6041890000000  0.4946160000000 1.0
C      1  0.5813280000000  0.5205130000000  0.5551880000000 1.0
C      1  0.4792780000000  0.4745300000000  0.5973750000000 1.0
C      1  0.5475560000000  0.5658170000000  0.5573870000000 1.0
C      1  0.5625000000000  0.5354410000000  0.5026160000000 1.0
C      1  0.4803470000000  0.5434340000000  0.5434780000000 1.0
C      1  0.5195090000000  0.5761350000000  0.5724230000000 1.0
C      1  0.4979340000000  0.5188680000000  0.5747320000000 1.0
C      1  0.5578540000000  0.4165670000000  0.4958470000000 1.0
C      1  0.4610660000000  0.5941080000000  0.5182480000000 1.0
C      1  0.4376210000000  0.5796530000000  0.5020460000000 1.0
C      1  0.5873160000000  0.5166810000000  0.5052520000000 1.0
C      1  0.4668380000000  0.4139930000000  0.4896910000000 1.0
C      1  0.4765300000000  0.5419530000000  0.5831410000000 1.0
C      1  0.5762890000000  0.4702760000000  0.4541690000000 1.0
C      1  0.5106220000000  0.4542900000000  0.5359600000000 1.0
C      1  0.5647020000000  0.5413600000000  0.5978320000000 1.0
C      1  0.5622920000000  0.5678260000000  0.5089350000000 1.0
C      1  0.4035170000000  0.5073080000000  0.4724440000000 1.0
C      1  0.4593740000000  0.5557060000000  0.4974380000000 1.0
C      1  0.5556050000000  0.4669760000000  0.5671570000000 1.0
C      1  0.4929920000000  0.5054320000000  0.4785610000000 1.0
C      1  0.5490030000000  0.4925360000000  0.5846260000000 1.0
C      1  0.4172280000000  0.4535920000000  0.4771430000000 1.0
C      1  0.4514330000000  0.5427480000000  0.5615870000000 1.0
C      1  0.4454230000000  0.5299060000000  0.5244730000000 1.0
C      1  0.4590970000000  0.4013330000000  0.5264930000000 1.0
C      1  0.4684980000000  0.5003140000000  0.3873820000000 1.0
C      1  0.4889760000000  0.5599700000000  0.4245600000000 1.0
C      1  0.5820710000000  0.5019890000000  0.5343420000000 1.0
C      1  0.4697970000000  0.4963430000000  0.4966180000000 1.0
C      1  0.5372910000000  0.5140450000000  0.5877480000000 1.0
C      1  0.4757380000000  0.5554520000000  0.5192510000000 1.0
C      1  0.4715250000000  0.5823850000000  0.5485200000000 1.0
C      1  0.5332460000000  0.4152770000000  0.5191130000000 1.0
C      1  0.5049520000000  0.4239180000000  0.5039220000000 1.0
C      1  0.4701790000000  0.5161310000000  0.4364810000000 1.0
C      1  0.5324470000000  0.5377480000000  0.4073700000000 1.0
C      1  0.4228260000000  0.5378920000000  0.5474870000000 1.0
C      1  0.4616370000000  0.5467020000000  0.4346030000000 1.0
C      1  0.4219590000000  0.5219440000000  0.4575970000000 1.0
C      1  0.4330670000000  0.4246280000000  0.4754570000000 1.0
C      1  0.5149550000000  0.5038510000000  0.5283450000000 1.0
C      1  0.5345060000000  0.5609270000000  0.4480080000000 1.0
C      1  0.5355650000000  0.4394810000000  0.5639580000000 1.0
C      1  0.5270400000000  0.4121960000000  0.4569130000000 1.0
C      1  0.4162290000000  0.5043990000000  0.5456100000000 1.0
C      1  0.5484940000000  0.4682620000000  0.5087770000000 1.0
C      1  0.4104930000000  0.5133990000000  0.5145820000000 1.0
C      1  0.5838580000000  0.5196090000000  0.4718870000000 1.0
C      1  0.5164790000000  0.4734730000000  0.5715510000000 1.0
C      1  0.4517970000000  0.5054450000000  0.4598080000000 1.0
C      1  0.5598090000000  0.4803170000000  0.5364680000000 1.0
C      1  0.4641100000000  0.4482340000000  0.4828730000000 1.0
C      1  0.5036840000000  0.4924250000000  0.5887750000000 1.0
C      1  0.4869560000000  0.3965710000000  0.5072360000000 1.0
C      1  0.5333680000000  0.5602920000000  0.5268020000000 1.0
C      1  0.5613150000000  0.5567690000000  0.4766630000000 1.0
C      1  0.4954700000000  0.4828260000000  0.4586500000000 1.0
C      1  0.5926540000000  0.4375940000000  0.5273650000000 1.0
C      1  0.5216910000000  0.5427630000000  0.5801490000000 1.0
C      1  0.5428850000000  0.4856560000000  0.4811840000000 1.0
C      1  0.5172450000000  0.4656530000000  0.5042600000000 1.0
C      1  0.5778890000000  0.4443770000000  0.4752940000000 1.0
C      1  0.5667310000000  0.5792730000000  0.5368510000000 1.0
C      1  0.5889670000000  0.4510830000000  0.5026140000000 1.0
C      1  0.4376010000000  0.4888300000000  0.5638480000000 1.0
C      1  0.5395580000000  0.5226010000000  0.5154720000000 1.0
C      1  0.5134300000000  0.4412960000000  0.4109630000000 1.0
C      1  0.5400480000000  0.5277080000000  0.5481640000000 1.0
C      1  0.5536040000000  0.5214220000000  0.4221480000000 1.0
C      1  0.5394850000000  0.5825710000000  0.4713880000000 1.0
C      1  0.5163450000000  0.4877670000000  0.4027160000000 1.0
C      1  0.5099110000000  0.5996640000000  0.4734760000000 1.0
C      1  0.4636730000000  0.5070880000000  0.5268020000000 1.0
C      1  0.5180230000000  0.4880210000000  0.4367070000000 1.0
C      1  0.4068820000000  0.4621780000000  0.4394800000000 1.0
C      1  0.4290150000000  0.4451180000000  0.5301390000000 1.0
C      1  0.4158120000000  0.4763930000000  0.5259450000000 1.0
C      1  0.4242400000000  0.5565460000000  0.5190360000000 1.0
C      1  0.4407550000000  0.5755670000000  0.4683820000000 1.0
C      1  0.5334600000000  0.5059840000000  0.4577950000000 1.0
C      1  0.4497200000000  0.5285260000000  0.4847550000000 1.0
C      1  0.4752890000000  0.5560080000000  0.4713930000000 1.0
C      1  0.4984040000000  0.5790750000000  0.4489030000000 1.0
C      1  0.5189930000000  0.5055210000000  0.4949940000000 1.0
C      1  0.4865590000000  0.5025650000000  0.4105200000000 1.0
C      1  0.4837610000000  0.4447460000000  0.5079910000000 1.0
C      1  0.5134560000000  0.5938260000000  0.5191660000000 1.0
C      1  0.4563710000000  0.5145350000000  0.5770410000000 1.0
C      1  0.5721130000000  0.5029150000000  0.4441930000000 1.0
C      1  0.5809270000000  0.4881040000000  0.4792980000000 1.0
C      1  0.4498740000000  0.4737440000000  0.4651390000000 1.0
C      1  0.4811350000000  0.4749030000000  0.4299450000000 1.0
C      1  0.4359560000000  0.5000800000000  0.4960410000000 1.0
C      1  0.5647160000000  0.5363850000000  0.4507060000000 1.0
C      1  0.5229760000000  0.5628940000000  0.4219410000000 1.0
C      1  0.4500670000000  0.4787090000000  0.5265530000000 1.0
C      1  0.5238140000000  0.5731830000000  0.4996150000000 1.0
C      1  0.4384330000000  0.5510410000000  0.4521480000000 1.0
C      1  0.5216130000000  0.5331570000000  0.4614600000000 1.0
C      1  0.5015220000000  0.5328510000000  0.4081260000000 1.0
C      1  0.4858190000000  0.5717440000000  0.5709110000000 1.0
C      1  0.5277250000000  0.4811480000000  0.5424680000000 1.0
C      1  0.5034890000000  0.4458990000000  0.5742040000000 1.0
C      1  0.4195150000000  0.5362250000000  0.4949070000000 1.0
C      1  0.4905390000000  0.5126750000000  0.5425860000000 1.0
C      1  0.5140880000000  0.4237950000000  0.5428470000000 1.0
C      1  0.4761160000000  0.4390670000000  0.4370050000000 1.0
C      1  0.5017920000000  0.4595550000000  0.4757110000000 1.0
C      1  0.5071950000000  0.5600090000000  0.4766040000000 1.0
C      1  0.4678700000000  0.4501180000000  0.5336230000000 1.0
C      1  0.5541060000000  0.4400430000000  0.5188250000000 1.0
C      1  0.4847580000000  0.4736350000000  0.5473570000000 1.0
C      1  0.5480070000000  0.4912510000000  0.4139740000000 1.0
C      1  0.4701170000000  0.4869050000000  0.5681470000000 1.0
C      1  0.4082430000000  0.4805820000000  0.4929360000000 1.0
C      1  0.4726310000000  0.4483710000000  0.5776440000000 1.0
C      1  0.4877620000000  0.5298050000000  0.4597280000000 1.0
END
