TITL C-2778422-5617-1211 -0.0242671597142153 125000 -598.768316668789 0 0 104 (C1) n - 1
REM
REM in /home/nfs/bkarasulu/CARBON/AIRSS/Generating-Clusters/REBO/Only-C1/SD-CG/HFTN-CG
REM
REM
REM
REM
REM
REM ./C.cell (11c1c37f851c82e70ff6c80c92926a4b)
REM
REM compiler GCC version 9.2.1 20190827 (Red Hat 9.2.1-1)
REM options -cpp -mtune=generic -march=x86-64 -g -O0 -fpre-include=/usr/include/finclude/math-vector-fortran.h
REM seed -1897109336 1259034069 1314767907 -935852989 452827587 -763966560 -328134576 -2139161039 880237228 -458555931 -440267168 -212249989 -1181101346 275669258 907471121 617206900 -974144275 1840168455 -368326878 -1165048674 -453056667 -1962026489 846354289 -1968682678 -1039495181 -1743291219 -1195694018 -873499475 -1743909470 814081259 -256046094 164800785 1706398709
REM
CELL 1.54180   50.00000   50.00000   50.00000   90.00000   90.00000   90.00000
LATT -1
SFAC C  
C      1  0.5221160000000  0.4985230000000  0.4083630000000 1.0
C      1  0.5359070000000  0.4988150000000  0.5229300000000 1.0
C      1  0.5880980000000  0.5432130000000  0.4635180000000 1.0
C      1  0.5444470000000  0.5457500000000  0.5753090000000 1.0
C      1  0.4450890000000  0.5431230000000  0.4682070000000 1.0
C      1  0.4795000000000  0.5296630000000  0.5357230000000 1.0
C      1  0.5673420000000  0.4765390000000  0.5332390000000 1.0
C      1  0.4827650000000  0.4093480000000  0.4854940000000 1.0
C      1  0.5182370000000  0.4625580000000  0.4477990000000 1.0
C      1  0.4408110000000  0.4223990000000  0.5160220000000 1.0
C      1  0.5123330000000  0.4533860000000  0.4769700000000 1.0
C      1  0.4418180000000  0.5096750000000  0.4202810000000 1.0
C      1  0.5756490000000  0.4662060000000  0.4479210000000 1.0
C      1  0.4565870000000  0.5847460000000  0.5281700000000 1.0
C      1  0.5937150000000  0.4788360000000  0.4640090000000 1.0
C      1  0.5478370000000  0.4878400000000  0.5532840000000 1.0
C      1  0.5468740000000  0.4867140000000  0.4131730000000 1.0
C      1  0.4919890000000  0.5154780000000  0.5930850000000 1.0
C      1  0.4900030000000  0.5474350000000  0.4313000000000 1.0
C      1  0.5527400000000  0.4812590000000  0.4405770000000 1.0
C      1  0.5814510000000  0.4957820000000  0.4894410000000 1.0
C      1  0.4940590000000  0.5335220000000  0.4604130000000 1.0
C      1  0.4276240000000  0.4692760000000  0.5442700000000 1.0
C      1  0.4760440000000  0.4811050000000  0.4580160000000 1.0
C      1  0.5408860000000  0.5351980000000  0.4389960000000 1.0
C      1  0.4564070000000  0.5554430000000  0.5327800000000 1.0
C      1  0.5336720000000  0.4627920000000  0.4967710000000 1.0
C      1  0.5148260000000  0.5889240000000  0.5060140000000 1.0
C      1  0.5399540000000  0.5668750000000  0.5084910000000 1.0
C      1  0.5169190000000  0.4249850000000  0.5173490000000 1.0
C      1  0.4696510000000  0.5551170000000  0.5645860000000 1.0
C      1  0.4260870000000  0.5164420000000  0.5507190000000 1.0
C      1  0.5158340000000  0.5551000000000  0.5737940000000 1.0
C      1  0.4679700000000  0.4183990000000  0.5090520000000 1.0
C      1  0.5341400000000  0.5835170000000  0.4795380000000 1.0
C      1  0.4840180000000  0.4335640000000  0.5544870000000 1.0
C      1  0.5035700000000  0.4883400000000  0.5022160000000 1.0
C      1  0.4177090000000  0.4946360000000  0.5334140000000 1.0
C      1  0.5193690000000  0.5363380000000  0.5458440000000 1.0
C      1  0.4252840000000  0.5272790000000  0.4899000000000 1.0
C      1  0.4835770000000  0.5553680000000  0.4795520000000 1.0
C      1  0.4622620000000  0.4503080000000  0.4145810000000 1.0
C      1  0.5192100000000  0.4697570000000  0.5268920000000 1.0
C      1  0.4695990000000  0.5181410000000  0.4959870000000 1.0
C      1  0.4285550000000  0.4736150000000  0.4854060000000 1.0
C      1  0.4844740000000  0.5911280000000  0.4966550000000 1.0
C      1  0.4468140000000  0.5052180000000  0.4464030000000 1.0
C      1  0.4641150000000  0.4519310000000  0.4452590000000 1.0
C      1  0.5110690000000  0.4908820000000  0.5687350000000 1.0
C      1  0.4274990000000  0.5436720000000  0.5434240000000 1.0
C      1  0.4724050000000  0.5234480000000  0.5689060000000 1.0
C      1  0.4207090000000  0.4108790000000  0.5017140000000 1.0
C      1  0.4596190000000  0.4642590000000  0.4924220000000 1.0
C      1  0.5370990000000  0.4959220000000  0.4635460000000 1.0
C      1  0.5497130000000  0.4920440000000  0.4924970000000 1.0
C      1  0.4467210000000  0.5065260000000  0.5685960000000 1.0
C      1  0.4519860000000  0.5444200000000  0.5016950000000 1.0
C      1  0.5310890000000  0.4352790000000  0.4467520000000 1.0
C      1  0.5370800000000  0.4745940000000  0.5801770000000 1.0
C      1  0.4552020000000  0.4469620000000  0.5624640000000 1.0
C      1  0.4995670000000  0.5214040000000  0.5092520000000 1.0
C      1  0.5696030000000  0.5524150000000  0.4406910000000 1.0
C      1  0.4539460000000  0.4683870000000  0.3961610000000 1.0
C      1  0.4353610000000  0.4407670000000  0.5369080000000 1.0
C      1  0.4990610000000  0.5758960000000  0.4446240000000 1.0
C      1  0.4842340000000  0.4487200000000  0.4796730000000 1.0
C      1  0.4220560000000  0.4995530000000  0.5030580000000 1.0
C      1  0.4590640000000  0.5455420000000  0.4454680000000 1.0
C      1  0.4910970000000  0.5680350000000  0.5755440000000 1.0
C      1  0.4789810000000  0.5834610000000  0.4659560000000 1.0
C      1  0.5819060000000  0.5515820000000  0.4884220000000 1.0
C      1  0.4541950000000  0.4936010000000  0.5080890000000 1.0
C      1  0.5917440000000  0.5115230000000  0.4615210000000 1.0
C      1  0.4456910000000  0.4784740000000  0.5678910000000 1.0
C      1  0.4870360000000  0.4832850000000  0.5925450000000 1.0
C      1  0.5074240000000  0.4929840000000  0.4371160000000 1.0
C      1  0.4427180000000  0.4747910000000  0.4577470000000 1.0
C      1  0.5285010000000  0.4172890000000  0.4676440000000 1.0
C      1  0.4448550000000  0.4941160000000  0.3979900000000 1.0
C      1  0.5092720000000  0.5045930000000  0.5437090000000 1.0
C      1  0.5552400000000  0.4540480000000  0.5195410000000 1.0
C      1  0.5235310000000  0.5264820000000  0.4648810000000 1.0
C      1  0.4844190000000  0.4612000000000  0.5726410000000 1.0
C      1  0.5123140000000  0.4126020000000  0.4906420000000 1.0
C      1  0.5780110000000  0.4995250000000  0.5196720000000 1.0
C      1  0.4815340000000  0.4658780000000  0.5156590000000 1.0
C      1  0.5211630000000  0.4988210000000  0.5994710000000 1.0
C      1  0.4735640000000  0.4255980000000  0.4608460000000 1.0
C      1  0.5370310000000  0.4438540000000  0.5655030000000 1.0
C      1  0.5708210000000  0.5192670000000  0.4371860000000 1.0
C      1  0.5137430000000  0.5568230000000  0.5240740000000 1.0
C      1  0.4718050000000  0.5135000000000  0.4657280000000 1.0
C      1  0.5102690000000  0.4551750000000  0.5513050000000 1.0
C      1  0.5396620000000  0.4342950000000  0.5343450000000 1.0
C      1  0.5130860000000  0.5249800000000  0.4263600000000 1.0
C      1  0.5270360000000  0.5317040000000  0.4953790000000 1.0
C      1  0.5668730000000  0.5243450000000  0.5276750000000 1.0
C      1  0.4785390000000  0.4959890000000  0.5317700000000 1.0
C      1  0.5579370000000  0.5422900000000  0.5050830000000 1.0
C      1  0.5047180000000  0.4918390000000  0.4711710000000 1.0
C      1  0.4880870000000  0.4361840000000  0.5241610000000 1.0
C      1  0.4880220000000  0.5598590000000  0.5088620000000 1.0
C      1  0.5255830000000  0.5811560000000  0.4539640000000 1.0
C      1  0.5525730000000  0.5296750000000  0.5509440000000 1.0
END
