TITL C-2778431-5191-223 0.00171717749346895 125000 -1101.84864837318 0 0 189 (C1) n - 1
REM
REM in /home/nfs/bkarasulu/CARBON/AIRSS/Generating-Clusters/REBO/Only-C1/SD-CG/HFTN-CG
REM
REM
REM
REM
REM
REM ./C.cell (11c1c37f851c82e70ff6c80c92926a4b)
REM
REM compiler GCC version 9.2.1 20190827 (Red Hat 9.2.1-1)
REM options -cpp -mtune=generic -march=x86-64 -g -O0 -fpre-include=/usr/include/finclude/math-vector-fortran.h
REM seed 418196535 -2001786383 1889763553 1424566978 -443486439 927635966 -1264741713 1770052854 1903081037 -1826631181 301763306 -1042276219 1820187102 -385126615 2073332539 1432525022 752443913 15705947 115480617 -1990520623 1885271664 1155729831 249764963 -1791259572 -1577279835 652216837 1634614856 -1274292073 -965535089 1659189086 1738378018 1696885443 -1167140617
REM
CELL 1.54180   50.00000   50.00000   50.00000   90.00000   90.00000   90.00000
LATT -1
SFAC C  
C      1  0.4351530000000  0.4724320000000  0.5834270000000 1.0
C      1  0.4963230000000  0.4213850000000  0.5116790000000 1.0
C      1  0.3944180000000  0.4606420000000  0.5103490000000 1.0
C      1  0.5250580000000  0.4601580000000  0.5508790000000 1.0
C      1  0.5833530000000  0.5756950000000  0.5406520000000 1.0
C      1  0.3903760000000  0.5187540000000  0.4157970000000 1.0
C      1  0.4897860000000  0.4098610000000  0.4295910000000 1.0
C      1  0.4017090000000  0.5359610000000  0.5076280000000 1.0
C      1  0.4792520000000  0.6471240000000  0.5008820000000 1.0
C      1  0.4393100000000  0.5823470000000  0.4455710000000 1.0
C      1  0.5233740000000  0.5868930000000  0.4248350000000 1.0
C      1  0.4088130000000  0.5114740000000  0.4897290000000 1.0
C      1  0.4455610000000  0.4079080000000  0.4525200000000 1.0
C      1  0.5374110000000  0.4295170000000  0.5612030000000 1.0
C      1  0.5532940000000  0.4523350000000  0.4855910000000 1.0
C      1  0.4817530000000  0.4647190000000  0.6049220000000 1.0
C      1  0.4895230000000  0.4980990000000  0.5844200000000 1.0
C      1  0.5065980000000  0.5196920000000  0.4564600000000 1.0
C      1  0.5678050000000  0.4746940000000  0.5736120000000 1.0
C      1  0.4843150000000  0.5146390000000  0.3801660000000 1.0
C      1  0.5081220000000  0.5518080000000  0.4515170000000 1.0
C      1  0.5524790000000  0.5867630000000  0.5461910000000 1.0
C      1  0.4327070000000  0.4517790000000  0.4343850000000 1.0
C      1  0.4741550000000  0.6227630000000  0.5118350000000 1.0
C      1  0.4136590000000  0.4411280000000  0.5184660000000 1.0
C      1  0.5452130000000  0.4230740000000  0.4597820000000 1.0
C      1  0.4442780000000  0.5298200000000  0.5912920000000 1.0
C      1  0.5628180000000  0.5099550000000  0.4182560000000 1.0
C      1  0.4656770000000  0.5573220000000  0.4816660000000 1.0
C      1  0.4453680000000  0.4002130000000  0.5049320000000 1.0
C      1  0.4616580000000  0.5095780000000  0.6001950000000 1.0
C      1  0.5283650000000  0.5043720000000  0.5911300000000 1.0
C      1  0.4699000000000  0.4539480000000  0.4719060000000 1.0
C      1  0.3702940000000  0.5042410000000  0.4582070000000 1.0
C      1  0.5335460000000  0.5023500000000  0.4341510000000 1.0
C      1  0.4943260000000  0.3960230000000  0.5357160000000 1.0
C      1  0.5335140000000  0.4020100000000  0.5325900000000 1.0
C      1  0.4207370000000  0.4153760000000  0.5070400000000 1.0
C      1  0.4925340000000  0.5444420000000  0.5939950000000 1.0
C      1  0.4914480000000  0.5388470000000  0.4871450000000 1.0
C      1  0.4320470000000  0.5172070000000  0.4678500000000 1.0
C      1  0.4392450000000  0.4962740000000  0.4916020000000 1.0
C      1  0.5224310000000  0.4492370000000  0.4997800000000 1.0
C      1  0.5549460000000  0.4478960000000  0.5839020000000 1.0
C      1  0.6073340000000  0.5234000000000  0.5252630000000 1.0
C      1  0.5023430000000  0.4402390000000  0.5342820000000 1.0
C      1  0.4523270000000  0.4380440000000  0.4158940000000 1.0
C      1  0.4403300000000  0.4651430000000  0.4961850000000 1.0
C      1  0.5828650000000  0.5662450000000  0.4799080000000 1.0
C      1  0.5132790000000  0.4166830000000  0.4146850000000 1.0
C      1  0.5693600000000  0.5277640000000  0.5514180000000 1.0
C      1  0.5723270000000  0.5072780000000  0.4689560000000 1.0
C      1  0.5951770000000  0.4823280000000  0.4902880000000 1.0
C      1  0.4862460000000  0.4378020000000  0.4496920000000 1.0
C      1  0.5022700000000  0.5045990000000  0.5533620000000 1.0
C      1  0.5606830000000  0.4191200000000  0.4886150000000 1.0
C      1  0.5227630000000  0.5586870000000  0.5884890000000 1.0
C      1  0.5957650000000  0.5093690000000  0.5497350000000 1.0
C      1  0.4165330000000  0.5255000000000  0.4132910000000 1.0
C      1  0.5320600000000  0.4901610000000  0.4645910000000 1.0
C      1  0.5498390000000  0.4524590000000  0.5284570000000 1.0
C      1  0.5226520000000  0.5139760000000  0.4877190000000 1.0
C      1  0.4154030000000  0.5117700000000  0.5547240000000 1.0
C      1  0.4476850000000  0.6118270000000  0.5130450000000 1.0
C      1  0.5799240000000  0.4223360000000  0.5166160000000 1.0
C      1  0.5757560000000  0.4880610000000  0.5180260000000 1.0
C      1  0.4393380000000  0.5261500000000  0.4373870000000 1.0
C      1  0.5389150000000  0.5406650000000  0.4441970000000 1.0
C      1  0.6002090000000  0.5498510000000  0.4646350000000 1.0
C      1  0.5878350000000  0.4778110000000  0.5477400000000 1.0
C      1  0.5629930000000  0.5508800000000  0.5325420000000 1.0
C      1  0.5890870000000  0.5421200000000  0.4397990000000 1.0
C      1  0.5058290000000  0.4713420000000  0.4711140000000 1.0
C      1  0.5090590000000  0.5831300000000  0.4763760000000 1.0
C      1  0.4920560000000  0.5288760000000  0.6174810000000 1.0
C      1  0.5033290000000  0.4424020000000  0.6012410000000 1.0
C      1  0.5315110000000  0.4540240000000  0.6037920000000 1.0
C      1  0.4431430000000  0.5471450000000  0.4640920000000 1.0
C      1  0.4972430000000  0.4898990000000  0.4451220000000 1.0
C      1  0.5114030000000  0.4183680000000  0.4618980000000 1.0
C      1  0.4578930000000  0.4790130000000  0.5995470000000 1.0
C      1  0.5442610000000  0.5311360000000  0.3995840000000 1.0
C      1  0.4843190000000  0.5714290000000  0.4610560000000 1.0
C      1  0.3892820000000  0.5099910000000  0.5245700000000 1.0
C      1  0.5114130000000  0.4813260000000  0.6034910000000 1.0
C      1  0.5896280000000  0.5765790000000  0.5075440000000 1.0
C      1  0.5651090000000  0.5380440000000  0.5051100000000 1.0
C      1  0.4893870000000  0.5861500000000  0.5437940000000 1.0
C      1  0.4711180000000  0.4579040000000  0.4072710000000 1.0
C      1  0.4724400000000  0.4286540000000  0.4920520000000 1.0
C      1  0.5401810000000  0.4872600000000  0.5648710000000 1.0
C      1  0.3992840000000  0.4542600000000  0.4561990000000 1.0
C      1  0.5422860000000  0.4824630000000  0.5202250000000 1.0
C      1  0.5653270000000  0.5548790000000  0.4313550000000 1.0
C      1  0.5419820000000  0.5630510000000  0.4116080000000 1.0
C      1  0.5061800000000  0.5784080000000  0.5084770000000 1.0
C      1  0.5782880000000  0.5189720000000  0.5970420000000 1.0
C      1  0.4726260000000  0.4906840000000  0.4099180000000 1.0
C      1  0.4600240000000  0.4320730000000  0.5239070000000 1.0
C      1  0.5312810000000  0.5927180000000  0.4558270000000 1.0
C      1  0.5945210000000  0.4124310000000  0.5863620000000 1.0
C      1  0.5729460000000  0.4632540000000  0.4351470000000 1.0
C      1  0.4936230000000  0.5747780000000  0.4224010000000 1.0
C      1  0.4760810000000  0.5311950000000  0.5671810000000 1.0
C      1  0.5817940000000  0.4527670000000  0.5004980000000 1.0
C      1  0.5404220000000  0.4265820000000  0.5132210000000 1.0
C      1  0.5616940000000  0.5350110000000  0.5817940000000 1.0
C      1  0.5030150000000  0.4966210000000  0.3954040000000 1.0
C      1  0.4601810000000  0.5756160000000  0.5419730000000 1.0
C      1  0.4730020000000  0.5386530000000  0.5339020000000 1.0
C      1  0.4604170000000  0.4135270000000  0.4285270000000 1.0
C      1  0.5431740000000  0.5105550000000  0.5394650000000 1.0
C      1  0.5570900000000  0.5852810000000  0.5122210000000 1.0
C      1  0.4958350000000  0.5280630000000  0.5159490000000 1.0
C      1  0.5180960000000  0.5295210000000  0.4199950000000 1.0
C      1  0.4784850000000  0.5389850000000  0.3915310000000 1.0
C      1  0.5889260000000  0.4986230000000  0.5813950000000 1.0
C      1  0.3894350000000  0.4830790000000  0.5273740000000 1.0
C      1  0.4145840000000  0.5416810000000  0.5384250000000 1.0
C      1  0.5137050000000  0.4057340000000  0.5600170000000 1.0
C      1  0.4382360000000  0.5880570000000  0.5250590000000 1.0
C      1  0.6150860000000  0.5298100000000  0.4786470000000 1.0
C      1  0.5058480000000  0.5384790000000  0.5565910000000 1.0
C      1  0.4948510000000  0.5479570000000  0.4126370000000 1.0
C      1  0.5337910000000  0.5768900000000  0.5646480000000 1.0
C      1  0.5237300000000  0.4491530000000  0.4560610000000 1.0
C      1  0.4524430000000  0.5687010000000  0.5703290000000 1.0
C      1  0.4517000000000  0.5175940000000  0.5390880000000 1.0
C      1  0.4687210000000  0.4619440000000  0.5134740000000 1.0
C      1  0.4287980000000  0.5361990000000  0.5689160000000 1.0
C      1  0.5218560000000  0.5534970000000  0.4817920000000 1.0
C      1  0.4198840000000  0.4865370000000  0.5654530000000 1.0
C      1  0.4538060000000  0.4374350000000  0.5650310000000 1.0
C      1  0.5648110000000  0.4339060000000  0.4396240000000 1.0
C      1  0.4407100000000  0.5021020000000  0.4130820000000 1.0
C      1  0.5851630000000  0.5119640000000  0.4384820000000 1.0
C      1  0.4220460000000  0.4770560000000  0.4186080000000 1.0
C      1  0.4636850000000  0.4995130000000  0.5616810000000 1.0
C      1  0.4934690000000  0.4999620000000  0.4988980000000 1.0
C      1  0.4707030000000  0.4866480000000  0.4822960000000 1.0
C      1  0.5908470000000  0.4830570000000  0.4563500000000 1.0
C      1  0.3806340000000  0.4977760000000  0.4326150000000 1.0
C      1  0.5558430000000  0.4794450000000  0.4103730000000 1.0
C      1  0.5112620000000  0.4918340000000  0.5245690000000 1.0
C      1  0.6110160000000  0.5109420000000  0.4997670000000 1.0
C      1  0.4623280000000  0.4015720000000  0.4774640000000 1.0
C      1  0.5279740000000  0.5300920000000  0.5175390000000 1.0
C      1  0.5812760000000  0.4516580000000  0.5335520000000 1.0
C      1  0.5194530000000  0.4430650000000  0.4167830000000 1.0
C      1  0.4210480000000  0.4277570000000  0.4555460000000 1.0
C      1  0.5258000000000  0.6109150000000  0.4096080000000 1.0
C      1  0.4805930000000  0.4413130000000  0.5596540000000 1.0
C      1  0.5630720000000  0.4148550000000  0.5437770000000 1.0
C      1  0.4988930000000  0.4259390000000  0.5788190000000 1.0
C      1  0.5711700000000  0.5130120000000  0.4992740000000 1.0
C      1  0.5467930000000  0.5951360000000  0.4818810000000 1.0
C      1  0.5296380000000  0.5349810000000  0.6055040000000 1.0
C      1  0.4671460000000  0.5824490000000  0.4377500000000 1.0
C      1  0.5325490000000  0.5265630000000  0.5668290000000 1.0
C      1  0.4756470000000  0.5642180000000  0.5134550000000 1.0
C      1  0.5553140000000  0.4710120000000  0.4629040000000 1.0
C      1  0.4927760000000  0.4727110000000  0.5542290000000 1.0
C      1  0.5482430000000  0.5263230000000  0.4694750000000 1.0
C      1  0.4968750000000  0.4605670000000  0.5003470000000 1.0
C      1  0.3965580000000  0.4741470000000  0.4327890000000 1.0
C      1  0.5080690000000  0.5677820000000  0.5525810000000 1.0
C      1  0.4504590000000  0.4701870000000  0.4523790000000 1.0
C      1  0.4948220000000  0.6062040000000  0.5225610000000 1.0
C      1  0.4255520000000  0.4523440000000  0.4779440000000 1.0
C      1  0.5332000000000  0.5621910000000  0.5195330000000 1.0
C      1  0.4601880000000  0.4721950000000  0.5447200000000 1.0
C      1  0.4962120000000  0.3982560000000  0.4793500000000 1.0
C      1  0.4640780000000  0.4011630000000  0.5296970000000 1.0
C      1  0.4074070000000  0.5650100000000  0.4918430000000 1.0
C      1  0.5743190000000  0.4231110000000  0.5735030000000 1.0
C      1  0.4209960000000  0.5691510000000  0.4674760000000 1.0
C      1  0.4946500000000  0.4610880000000  0.4285720000000 1.0
C      1  0.4359390000000  0.4511920000000  0.5333320000000 1.0
C      1  0.3889020000000  0.4672280000000  0.4834530000000 1.0
C      1  0.5126160000000  0.3919900000000  0.5074170000000 1.0
C      1  0.4761530000000  0.5159540000000  0.4667670000000 1.0
C      1  0.6024510000000  0.5513700000000  0.5260450000000 1.0
C      1  0.5535380000000  0.5557440000000  0.4818030000000 1.0
C      1  0.4667350000000  0.5628600000000  0.5896480000000 1.0
C      1  0.4653530000000  0.4945010000000  0.4430470000000 1.0
C      1  0.4178480000000  0.5699400000000  0.5201260000000 1.0
C      1  0.5337020000000  0.4680850000000  0.4315160000000 1.0
C      1  0.3852800000000  0.4952820000000  0.4803690000000 1.0
C      1  0.5325910000000  0.4992700000000  0.3947390000000 1.0
END
