TITL C-2778423-5760-221 0.0173479246323534 125000 -1139.96098985885 0 0 198 (C1) n - 1
REM
REM in /home/nfs/bkarasulu/CARBON/AIRSS/Generating-Clusters/REBO/Only-C1/SD-CG/HFTN-CG
REM
REM
REM
REM
REM
REM ./C.cell (11c1c37f851c82e70ff6c80c92926a4b)
REM
REM compiler GCC version 9.2.1 20190827 (Red Hat 9.2.1-1)
REM options -cpp -mtune=generic -march=x86-64 -g -O0 -fpre-include=/usr/include/finclude/math-vector-fortran.h
REM seed 1253292792 -1085356331 1510920345 831587380 -1937822878 -937515712 1938891304 877453088 -1248907233 -2110285030 2490299 -518647898 -1980848967 -1103724919 -1207549241 -1111045841 594313311 -1073159633 -260176377 -65510674 -1516332527 805880182 -1500724397 -2066417857 -371127752 1310201951 916427548 2113927544 -1893447432 -1040990501 1589661264 -333376708 -519051196
REM
CELL 1.54180   50.00000   50.00000   50.00000   90.00000   90.00000   90.00000
LATT -1
SFAC C  
C      1  0.4560750000000  0.4930260000000  0.3947830000000 1.0
C      1  0.4744220000000  0.4676830000000  0.3841150000000 1.0
C      1  0.4387530000000  0.5218130000000  0.5275970000000 1.0
C      1  0.4155610000000  0.5804890000000  0.4922440000000 1.0
C      1  0.5857460000000  0.5310430000000  0.4098060000000 1.0
C      1  0.4507630000000  0.4647140000000  0.4678770000000 1.0
C      1  0.5550860000000  0.5844830000000  0.5401510000000 1.0
C      1  0.5942900000000  0.5462280000000  0.5125740000000 1.0
C      1  0.5116300000000  0.4396410000000  0.5329510000000 1.0
C      1  0.4948160000000  0.4490250000000  0.4040340000000 1.0
C      1  0.6073000000000  0.4801850000000  0.5521370000000 1.0
C      1  0.5044880000000  0.5436370000000  0.5095320000000 1.0
C      1  0.3753020000000  0.5300020000000  0.4884460000000 1.0
C      1  0.4161410000000  0.5561610000000  0.5165340000000 1.0
C      1  0.4421490000000  0.4600810000000  0.5896510000000 1.0
C      1  0.5530300000000  0.4431860000000  0.4197080000000 1.0
C      1  0.5165380000000  0.4276450000000  0.5620940000000 1.0
C      1  0.5996410000000  0.4736570000000  0.4614790000000 1.0
C      1  0.5163830000000  0.5144060000000  0.4852170000000 1.0
C      1  0.4362850000000  0.5069520000000  0.5759920000000 1.0
C      1  0.5929480000000  0.4518840000000  0.4784380000000 1.0
C      1  0.4297290000000  0.4973730000000  0.4159750000000 1.0
C      1  0.4608940000000  0.5611930000000  0.5740270000000 1.0
C      1  0.4277180000000  0.5533250000000  0.5728850000000 1.0
C      1  0.5319760000000  0.4918610000000  0.4991090000000 1.0
C      1  0.4240920000000  0.4363940000000  0.5511600000000 1.0
C      1  0.5769290000000  0.4924490000000  0.4450120000000 1.0
C      1  0.5790170000000  0.4904410000000  0.4988410000000 1.0
C      1  0.5095060000000  0.5005940000000  0.5523720000000 1.0
C      1  0.4762110000000  0.4828970000000  0.4206250000000 1.0
C      1  0.4033090000000  0.5099890000000  0.4326230000000 1.0
C      1  0.4138540000000  0.5449340000000  0.5486470000000 1.0
C      1  0.4975520000000  0.5885770000000  0.4379690000000 1.0
C      1  0.6086160000000  0.4512030000000  0.5044690000000 1.0
C      1  0.4049940000000  0.4892480000000  0.5586200000000 1.0
C      1  0.4526000000000  0.4680680000000  0.5461570000000 1.0
C      1  0.5297800000000  0.5946300000000  0.5239380000000 1.0
C      1  0.3912390000000  0.5357880000000  0.5095620000000 1.0
C      1  0.4225400000000  0.4825940000000  0.5862960000000 1.0
C      1  0.5612270000000  0.4457170000000  0.4895420000000 1.0
C      1  0.4860920000000  0.5575340000000  0.5317460000000 1.0
C      1  0.4064840000000  0.4609040000000  0.4539280000000 1.0
C      1  0.5602350000000  0.4275030000000  0.4496400000000 1.0
C      1  0.5208710000000  0.4357610000000  0.4184440000000 1.0
C      1  0.4346560000000  0.5499630000000  0.4330320000000 1.0
C      1  0.4730790000000  0.4680720000000  0.4912770000000 1.0
C      1  0.4863330000000  0.5585450000000  0.6047020000000 1.0
C      1  0.5104200000000  0.4051140000000  0.4254750000000 1.0
C      1  0.4441920000000  0.5903980000000  0.5024270000000 1.0
C      1  0.5547590000000  0.5308790000000  0.4806880000000 1.0
C      1  0.5385230000000  0.5793140000000  0.4351910000000 1.0
C      1  0.5858620000000  0.5716830000000  0.5338980000000 1.0
C      1  0.5575000000000  0.4098290000000  0.4729960000000 1.0
C      1  0.5002800000000  0.5322260000000  0.5501110000000 1.0
C      1  0.5329820000000  0.4371620000000  0.5064310000000 1.0
C      1  0.4446030000000  0.4376930000000  0.5708080000000 1.0
C      1  0.5464550000000  0.5068540000000  0.5389700000000 1.0
C      1  0.4064180000000  0.5395020000000  0.4452510000000 1.0
C      1  0.5594390000000  0.4723910000000  0.5754730000000 1.0
C      1  0.5055960000000  0.5083010000000  0.6234500000000 1.0
C      1  0.4980580000000  0.4705550000000  0.5287910000000 1.0
C      1  0.5388270000000  0.4978350000000  0.5693710000000 1.0
C      1  0.4759360000000  0.5860150000000  0.5151420000000 1.0
C      1  0.6235210000000  0.4959530000000  0.4840570000000 1.0
C      1  0.5296640000000  0.4716360000000  0.4337540000000 1.0
C      1  0.5818320000000  0.4295210000000  0.5904340000000 1.0
C      1  0.5175380000000  0.5422110000000  0.4717970000000 1.0
C      1  0.4727840000000  0.4968990000000  0.5078300000000 1.0
C      1  0.4386760000000  0.5491020000000  0.4918580000000 1.0
C      1  0.5216090000000  0.4163420000000  0.4532540000000 1.0
C      1  0.5295460000000  0.4778210000000  0.5362970000000 1.0
C      1  0.5032120000000  0.6144610000000  0.5457690000000 1.0
C      1  0.4567570000000  0.5572270000000  0.4518280000000 1.0
C      1  0.5608570000000  0.5162820000000  0.4035220000000 1.0
C      1  0.5203950000000  0.3917700000000  0.5419920000000 1.0
C      1  0.4231940000000  0.4731950000000  0.5359550000000 1.0
C      1  0.4854880000000  0.5214930000000  0.4957310000000 1.0
C      1  0.5657100000000  0.4599560000000  0.4464460000000 1.0
C      1  0.4916910000000  0.3917970000000  0.5273790000000 1.0
C      1  0.5065130000000  0.5805210000000  0.5431660000000 1.0
C      1  0.5643680000000  0.4404920000000  0.5712830000000 1.0
C      1  0.4791300000000  0.4358380000000  0.5338460000000 1.0
C      1  0.4889690000000  0.5601660000000  0.4751560000000 1.0
C      1  0.5220230000000  0.5398830000000  0.3947630000000 1.0
C      1  0.4170390000000  0.4307140000000  0.4456860000000 1.0
C      1  0.5443480000000  0.5445430000000  0.5067720000000 1.0
C      1  0.3894460000000  0.5162040000000  0.4633150000000 1.0
C      1  0.5293360000000  0.6207130000000  0.4741880000000 1.0
C      1  0.5778920000000  0.5194370000000  0.4992880000000 1.0
C      1  0.4393150000000  0.5315380000000  0.5897570000000 1.0
C      1  0.5439750000000  0.4923050000000  0.4537780000000 1.0
C      1  0.4003490000000  0.4558490000000  0.5534750000000 1.0
C      1  0.5178860000000  0.4069440000000  0.5110830000000 1.0
C      1  0.4510560000000  0.5702990000000  0.5458880000000 1.0
C      1  0.5619680000000  0.5693830000000  0.5104020000000 1.0
C      1  0.5335140000000  0.3910420000000  0.4720910000000 1.0
C      1  0.5280150000000  0.5294900000000  0.5297440000000 1.0
C      1  0.5369180000000  0.4681410000000  0.4018370000000 1.0
C      1  0.5467680000000  0.5955540000000  0.4610290000000 1.0
C      1  0.4802850000000  0.4409320000000  0.4557890000000 1.0
C      1  0.5034340000000  0.4892330000000  0.4270740000000 1.0
C      1  0.5102170000000  0.4937700000000  0.4605230000000 1.0
C      1  0.5645620000000  0.5470030000000  0.5710310000000 1.0
C      1  0.4432890000000  0.4938770000000  0.4971530000000 1.0
C      1  0.4914060000000  0.4064760000000  0.5991250000000 1.0
C      1  0.5233620000000  0.4900690000000  0.6052960000000 1.0
C      1  0.5274270000000  0.5505190000000  0.4434840000000 1.0
C      1  0.4466290000000  0.5380420000000  0.4071690000000 1.0
C      1  0.4196910000000  0.4919990000000  0.4541110000000 1.0
C      1  0.5268700000000  0.5243520000000  0.6026770000000 1.0
C      1  0.4024690000000  0.5195860000000  0.5516070000000 1.0
C      1  0.4673500000000  0.3914830000000  0.5140750000000 1.0
C      1  0.5940960000000  0.5229400000000  0.5371570000000 1.0
C      1  0.4851300000000  0.6021870000000  0.4626860000000 1.0
C      1  0.5549860000000  0.5225150000000  0.5861690000000 1.0
C      1  0.5018120000000  0.5941580000000  0.5731470000000 1.0
C      1  0.4875790000000  0.5187530000000  0.4551520000000 1.0
C      1  0.4638560000000  0.4269590000000  0.4779650000000 1.0
C      1  0.4694350000000  0.4910570000000  0.4588460000000 1.0
C      1  0.4627510000000  0.4419300000000  0.5085920000000 1.0
C      1  0.5648500000000  0.5425580000000  0.4550170000000 1.0
C      1  0.4348240000000  0.4314780000000  0.5231600000000 1.0
C      1  0.4802990000000  0.3963710000000  0.4185500000000 1.0
C      1  0.4331200000000  0.4378450000000  0.4724950000000 1.0
C      1  0.5163540000000  0.5681360000000  0.4914360000000 1.0
C      1  0.5014230000000  0.4134870000000  0.4773250000000 1.0
C      1  0.4662410000000  0.5664250000000  0.4916550000000 1.0
C      1  0.5633670000000  0.5720960000000  0.4153130000000 1.0
C      1  0.5134330000000  0.5521310000000  0.5980680000000 1.0
C      1  0.5162180000000  0.4636520000000  0.5013700000000 1.0
C      1  0.4006070000000  0.4974710000000  0.4889830000000 1.0
C      1  0.4798690000000  0.4953680000000  0.5384410000000 1.0
C      1  0.5881770000000  0.4370930000000  0.5234950000000 1.0
C      1  0.5230230000000  0.4471630000000  0.4512220000000 1.0
C      1  0.4317400000000  0.4682630000000  0.4329120000000 1.0
C      1  0.4614990000000  0.5312590000000  0.4733150000000 1.0
C      1  0.6078720000000  0.4808980000000  0.5014350000000 1.0
C      1  0.4807610000000  0.5160670000000  0.6302930000000 1.0
C      1  0.5279620000000  0.5079850000000  0.4183990000000 1.0
C      1  0.4137920000000  0.4352590000000  0.4976270000000 1.0
C      1  0.4829800000000  0.4276400000000  0.4266870000000 1.0
C      1  0.5767780000000  0.5011390000000  0.5371860000000 1.0
C      1  0.5830810000000  0.5629410000000  0.4847140000000 1.0
C      1  0.4023420000000  0.4636040000000  0.4844970000000 1.0
C      1  0.5462520000000  0.5299630000000  0.4309640000000 1.0
C      1  0.4738580000000  0.4675400000000  0.5665060000000 1.0
C      1  0.5044100000000  0.3807670000000  0.4813320000000 1.0
C      1  0.4741130000000  0.3964880000000  0.4849980000000 1.0
C      1  0.5008110000000  0.6142820000000  0.4831240000000 1.0
C      1  0.4744920000000  0.5208050000000  0.3973890000000 1.0
C      1  0.4728480000000  0.5099580000000  0.5916250000000 1.0
C      1  0.5475930000000  0.5690680000000  0.5664400000000 1.0
C      1  0.5062430000000  0.4770760000000  0.3890950000000 1.0
C      1  0.4409280000000  0.3981870000000  0.5198820000000 1.0
C      1  0.4208550000000  0.4772710000000  0.5080830000000 1.0
C      1  0.6021050000000  0.4954880000000  0.5743820000000 1.0
C      1  0.5707120000000  0.5754880000000  0.4586220000000 1.0
C      1  0.5847440000000  0.4684920000000  0.5316060000000 1.0
C      1  0.5607130000000  0.4751960000000  0.4768830000000 1.0
C      1  0.4147330000000  0.5163470000000  0.5136990000000 1.0
C      1  0.5972770000000  0.5336400000000  0.4766340000000 1.0
C      1  0.4654400000000  0.5367340000000  0.6104540000000 1.0
C      1  0.4367380000000  0.5079380000000  0.4731530000000 1.0
C      1  0.4415010000000  0.5925490000000  0.5340660000000 1.0
C      1  0.5383640000000  0.4993980000000  0.3879360000000 1.0
C      1  0.4955270000000  0.5570990000000  0.4420360000000 1.0
C      1  0.4782820000000  0.5345440000000  0.5727650000000 1.0
C      1  0.5472760000000  0.4067930000000  0.5281460000000 1.0
C      1  0.4800420000000  0.5340250000000  0.4279130000000 1.0
C      1  0.5756390000000  0.4969200000000  0.5841910000000 1.0
C      1  0.4196580000000  0.5598050000000  0.4654910000000 1.0
C      1  0.5674650000000  0.4170460000000  0.5049180000000 1.0
C      1  0.5054590000000  0.5111550000000  0.3867790000000 1.0
C      1  0.4701440000000  0.4282520000000  0.5601740000000 1.0
C      1  0.4139590000000  0.4123120000000  0.4279280000000 1.0
C      1  0.5862580000000  0.5465760000000  0.5530050000000 1.0
C      1  0.4542050000000  0.5453590000000  0.5284360000000 1.0
C      1  0.5010050000000  0.4629290000000  0.4721120000000 1.0
C      1  0.4623290000000  0.5837160000000  0.4559540000000 1.0
C      1  0.5343420000000  0.5612080000000  0.4057160000000 1.0
C      1  0.4925180000000  0.4185990000000  0.5749450000000 1.0
C      1  0.6040550000000  0.5076740000000  0.4591300000000 1.0
C      1  0.4777010000000  0.5831550000000  0.5890350000000 1.0
C      1  0.4146270000000  0.4024480000000  0.5054010000000 1.0
C      1  0.5803300000000  0.5522240000000  0.4268940000000 1.0
C      1  0.4649330000000  0.4833370000000  0.5908000000000 1.0
C      1  0.5102680000000  0.6010290000000  0.4170290000000 1.0
C      1  0.5242290000000  0.5717830000000  0.5805740000000 1.0
C      1  0.5015670000000  0.4641940000000  0.5680900000000 1.0
C      1  0.4989700000000  0.6057310000000  0.5130690000000 1.0
C      1  0.5340450000000  0.4421570000000  0.5785890000000 1.0
C      1  0.4487410000000  0.5017940000000  0.5481460000000 1.0
C      1  0.5552840000000  0.4751200000000  0.5164310000000 1.0
C      1  0.5329750000000  0.5922800000000  0.4920350000000 1.0
C      1  0.5223460000000  0.4673620000000  0.5893550000000 1.0
C      1  0.5665350000000  0.4263080000000  0.5438150000000 1.0
C      1  0.4615840000000  0.4599350000000  0.4355030000000 1.0
C      1  0.4576960000000  0.5083100000000  0.4314250000000 1.0
END
