TITL C-2778437-8639-271 0.00281990387077495 125000 -999.309475045842 0 0 175 (C1) n - 1
REM
REM in /home/nfs/bkarasulu/CARBON/AIRSS/Generating-Clusters/REBO/Only-C1/SD-CG/HFTN-CG
REM
REM
REM
REM
REM
REM ./C.cell (11c1c37f851c82e70ff6c80c92926a4b)
REM
REM compiler GCC version 9.2.1 20190827 (Red Hat 9.2.1-1)
REM options -cpp -mtune=generic -march=x86-64 -g -O0 -fpre-include=/usr/include/finclude/math-vector-fortran.h
REM seed 639823045 1639093290 -392365249 -947435473 1973444706 395397139 208791668 -23394334 -1281508366 1667833024 1581187829 482976468 152906495 -1425328683 660637517 471204311 192088123 470966628 -1492839464 -711139760 283335899 174183975 -626205622 -497729248 -124602926 1889396259 1668288964 2050789537 2146576921 -381091467 -1970536282 -1754758414 -475257845
REM
CELL 1.54180   50.00000   50.00000   50.00000   90.00000   90.00000   90.00000
LATT -1
SFAC C  
C      1  0.5134580000000  0.6073550000000  0.5230000000000 1.0
C      1  0.4595360000000  0.6147670000000  0.5310280000000 1.0
C      1  0.4305030000000  0.4366670000000  0.5453340000000 1.0
C      1  0.4592200000000  0.5956380000000  0.4783110000000 1.0
C      1  0.6043250000000  0.5371530000000  0.5005390000000 1.0
C      1  0.4757060000000  0.5399520000000  0.4926940000000 1.0
C      1  0.5830590000000  0.4619180000000  0.5116080000000 1.0
C      1  0.5845260000000  0.4970280000000  0.4733580000000 1.0
C      1  0.4484840000000  0.5001460000000  0.5903970000000 1.0
C      1  0.5438510000000  0.4705090000000  0.5587750000000 1.0
C      1  0.5223570000000  0.5259270000000  0.5246810000000 1.0
C      1  0.5138200000000  0.3985610000000  0.5001250000000 1.0
C      1  0.4027070000000  0.5442330000000  0.4656370000000 1.0
C      1  0.5718710000000  0.4806930000000  0.4392470000000 1.0
C      1  0.5063870000000  0.5656460000000  0.4151960000000 1.0
C      1  0.4714350000000  0.4770260000000  0.5910100000000 1.0
C      1  0.5516140000000  0.5675580000000  0.5122130000000 1.0
C      1  0.4627030000000  0.5303440000000  0.5945170000000 1.0
C      1  0.5102720000000  0.5581480000000  0.6024530000000 1.0
C      1  0.4356200000000  0.5090860000000  0.4207760000000 1.0
C      1  0.4577300000000  0.4470420000000  0.5852380000000 1.0
C      1  0.5219260000000  0.3940800000000  0.4673810000000 1.0
C      1  0.4123800000000  0.4797410000000  0.5403190000000 1.0
C      1  0.4569920000000  0.5573740000000  0.4516070000000 1.0
C      1  0.5619840000000  0.4955090000000  0.5074130000000 1.0
C      1  0.4260390000000  0.4853740000000  0.5100840000000 1.0
C      1  0.5198020000000  0.4450240000000  0.4878870000000 1.0
C      1  0.4902050000000  0.4528130000000  0.4925990000000 1.0
C      1  0.4226090000000  0.5174230000000  0.5764430000000 1.0
C      1  0.5770810000000  0.4540180000000  0.4470180000000 1.0
C      1  0.5815660000000  0.5128850000000  0.4458090000000 1.0
C      1  0.5389790000000  0.4341290000000  0.5120940000000 1.0
C      1  0.5701570000000  0.4501230000000  0.5516170000000 1.0
C      1  0.5206460000000  0.4433110000000  0.4466610000000 1.0
C      1  0.4228940000000  0.5586310000000  0.4815220000000 1.0
C      1  0.4825260000000  0.5926280000000  0.5239750000000 1.0
C      1  0.4664650000000  0.5604930000000  0.5500990000000 1.0
C      1  0.5238760000000  0.5005990000000  0.4830260000000 1.0
C      1  0.4634640000000  0.5245300000000  0.4085660000000 1.0
C      1  0.4022040000000  0.4973340000000  0.4905090000000 1.0
C      1  0.4577760000000  0.4145870000000  0.5087210000000 1.0
C      1  0.3757490000000  0.4890190000000  0.5088160000000 1.0
C      1  0.4965020000000  0.4560750000000  0.5942920000000 1.0
C      1  0.5695420000000  0.5873710000000  0.4500100000000 1.0
C      1  0.4398690000000  0.5332400000000  0.5217620000000 1.0
C      1  0.5979060000000  0.4865990000000  0.5225010000000 1.0
C      1  0.6013770000000  0.5662860000000  0.4873160000000 1.0
C      1  0.6072300000000  0.5033240000000  0.4969230000000 1.0
C      1  0.5970730000000  0.4511660000000  0.4677200000000 1.0
C      1  0.4874020000000  0.5453770000000  0.3953740000000 1.0
C      1  0.5396250000000  0.4515820000000  0.3931840000000 1.0
C      1  0.4495450000000  0.6026520000000  0.5038260000000 1.0
C      1  0.4670770000000  0.5216550000000  0.5385810000000 1.0
C      1  0.5339790000000  0.5620870000000  0.5607620000000 1.0
C      1  0.4682700000000  0.4937520000000  0.4036120000000 1.0
C      1  0.5276240000000  0.4729030000000  0.4069950000000 1.0
C      1  0.4753930000000  0.4429420000000  0.4137700000000 1.0
C      1  0.5018360000000  0.5152210000000  0.4028750000000 1.0
C      1  0.5363690000000  0.5947200000000  0.4556960000000 1.0
C      1  0.5959150000000  0.4686820000000  0.5487540000000 1.0
C      1  0.4728200000000  0.4443860000000  0.4660180000000 1.0
C      1  0.5405050000000  0.5617120000000  0.4585420000000 1.0
C      1  0.4268960000000  0.4847710000000  0.5686940000000 1.0
C      1  0.4436210000000  0.4174170000000  0.4389200000000 1.0
C      1  0.5248200000000  0.4813020000000  0.5038850000000 1.0
C      1  0.5240400000000  0.4732230000000  0.6051980000000 1.0
C      1  0.4876960000000  0.5956570000000  0.4694590000000 1.0
C      1  0.5020280000000  0.4972390000000  0.4634940000000 1.0
C      1  0.4071440000000  0.4519610000000  0.5245950000000 1.0
C      1  0.5428010000000  0.5222290000000  0.4538040000000 1.0
C      1  0.4749030000000  0.5094930000000  0.5078280000000 1.0
C      1  0.5286990000000  0.4450900000000  0.5884690000000 1.0
C      1  0.5684260000000  0.5676810000000  0.5417280000000 1.0
C      1  0.5525560000000  0.4320020000000  0.4433770000000 1.0
C      1  0.5232710000000  0.5393600000000  0.4098790000000 1.0
C      1  0.5151440000000  0.4549690000000  0.5590420000000 1.0
C      1  0.4238330000000  0.5160010000000  0.5441920000000 1.0
C      1  0.4820590000000  0.3924340000000  0.5086770000000 1.0
C      1  0.4122760000000  0.4196610000000  0.5244690000000 1.0
C      1  0.5435430000000  0.5997530000000  0.5110500000000 1.0
C      1  0.5316410000000  0.4981420000000  0.5516890000000 1.0
C      1  0.4869940000000  0.5811030000000  0.5657190000000 1.0
C      1  0.4482890000000  0.4616700000000  0.5558470000000 1.0
C      1  0.5062100000000  0.5866560000000  0.4421760000000 1.0
C      1  0.4976150000000  0.4778840000000  0.5459940000000 1.0
C      1  0.5763370000000  0.5061920000000  0.5365200000000 1.0
C      1  0.4054790000000  0.5382540000000  0.5194850000000 1.0
C      1  0.4600910000000  0.4883470000000  0.5380470000000 1.0
C      1  0.4821440000000  0.4782900000000  0.4310990000000 1.0
C      1  0.4282970000000  0.4129760000000  0.5021080000000 1.0
C      1  0.5096530000000  0.4637540000000  0.4322440000000 1.0
C      1  0.5483110000000  0.4047640000000  0.4286190000000 1.0
C      1  0.5476400000000  0.5513720000000  0.4873400000000 1.0
C      1  0.5669080000000  0.5599900000000  0.4374560000000 1.0
C      1  0.5677240000000  0.4759050000000  0.5823830000000 1.0
C      1  0.5073770000000  0.4154720000000  0.5284200000000 1.0
C      1  0.4792550000000  0.4949450000000  0.5654710000000 1.0
C      1  0.4806790000000  0.5224260000000  0.4639520000000 1.0
C      1  0.4581570000000  0.4232390000000  0.5605160000000 1.0
C      1  0.5108340000000  0.5939960000000  0.5540390000000 1.0
C      1  0.4139460000000  0.5288730000000  0.4378340000000 1.0
C      1  0.4399830000000  0.5800900000000  0.5278130000000 1.0
C      1  0.4884860000000  0.5270640000000  0.5644020000000 1.0
C      1  0.5478870000000  0.5252340000000  0.4128780000000 1.0
C      1  0.4825730000000  0.5344380000000  0.4321160000000 1.0
C      1  0.5731830000000  0.5237740000000  0.5008150000000 1.0
C      1  0.5140530000000  0.5112910000000  0.5762670000000 1.0
C      1  0.4898260000000  0.4342410000000  0.5689490000000 1.0
C      1  0.5874900000000  0.4340880000000  0.4929530000000 1.0
C      1  0.5476150000000  0.4519910000000  0.4768580000000 1.0
C      1  0.5840200000000  0.5867650000000  0.4778390000000 1.0
C      1  0.5061480000000  0.4225300000000  0.4690490000000 1.0
C      1  0.4613490000000  0.5028240000000  0.4426230000000 1.0
C      1  0.4821860000000  0.4358420000000  0.5179890000000 1.0
C      1  0.5045630000000  0.5704790000000  0.5115040000000 1.0
C      1  0.4478290000000  0.4984170000000  0.4908930000000 1.0
C      1  0.4883120000000  0.5605740000000  0.4502660000000 1.0
C      1  0.4787740000000  0.4522930000000  0.5429300000000 1.0
C      1  0.5872400000000  0.5369360000000  0.5290740000000 1.0
C      1  0.5711690000000  0.4328570000000  0.5230190000000 1.0
C      1  0.5300710000000  0.5264330000000  0.4942630000000 1.0
C      1  0.4994630000000  0.4845730000000  0.3941300000000 1.0
C      1  0.5428980000000  0.5901640000000  0.5437210000000 1.0
C      1  0.5686090000000  0.5334570000000  0.4698050000000 1.0
C      1  0.4778200000000  0.4036510000000  0.5408570000000 1.0
C      1  0.5465570000000  0.4313760000000  0.5657150000000 1.0
C      1  0.5315510000000  0.5651590000000  0.5909030000000 1.0
C      1  0.5698970000000  0.5346900000000  0.4272040000000 1.0
C      1  0.5124960000000  0.4953850000000  0.5267310000000 1.0
C      1  0.4498780000000  0.5454740000000  0.5696620000000 1.0
C      1  0.4209840000000  0.5496310000000  0.5651520000000 1.0
C      1  0.5329560000000  0.4151510000000  0.5467580000000 1.0
C      1  0.4737040000000  0.4844220000000  0.4736980000000 1.0
C      1  0.3954700000000  0.4639060000000  0.4965290000000 1.0
C      1  0.5048610000000  0.4992280000000  0.6038420000000 1.0
C      1  0.4141570000000  0.4665690000000  0.4682180000000 1.0
C      1  0.5053630000000  0.5963520000000  0.4916580000000 1.0
C      1  0.4445240000000  0.4600200000000  0.5014470000000 1.0
C      1  0.4186180000000  0.4898570000000  0.4433430000000 1.0
C      1  0.5079910000000  0.5135630000000  0.4363130000000 1.0
C      1  0.4734650000000  0.4753050000000  0.5107460000000 1.0
C      1  0.5472010000000  0.4024100000000  0.5214440000000 1.0
C      1  0.4235710000000  0.4364260000000  0.4548480000000 1.0
C      1  0.5397780000000  0.5305330000000  0.5528900000000 1.0
C      1  0.4540060000000  0.4658480000000  0.4139370000000 1.0
C      1  0.4482030000000  0.4666170000000  0.4625660000000 1.0
C      1  0.4956880000000  0.4511840000000  0.3969690000000 1.0
C      1  0.4859790000000  0.5531590000000  0.5841180000000 1.0
C      1  0.5172630000000  0.5435060000000  0.4491760000000 1.0
C      1  0.5493210000000  0.4649420000000  0.5142610000000 1.0
C      1  0.5572990000000  0.4795520000000  0.4777160000000 1.0
C      1  0.4322580000000  0.4616580000000  0.4333190000000 1.0
C      1  0.4431690000000  0.5294680000000  0.4538480000000 1.0
C      1  0.3951230000000  0.5069630000000  0.5286110000000 1.0
C      1  0.4789410000000  0.4156660000000  0.4833270000000 1.0
C      1  0.5705970000000  0.5390660000000  0.5579280000000 1.0
C      1  0.5675380000000  0.5067690000000  0.5685560000000 1.0
C      1  0.5330860000000  0.3877310000000  0.4397440000000 1.0
C      1  0.5253710000000  0.5578440000000  0.5280570000000 1.0
C      1  0.5458180000000  0.4972870000000  0.4103680000000 1.0
C      1  0.4430360000000  0.5315740000000  0.4880760000000 1.0
C      1  0.6096260000000  0.4766490000000  0.4755490000000 1.0
C      1  0.5458240000000  0.4026240000000  0.4884390000000 1.0
C      1  0.4043770000000  0.5102630000000  0.4651870000000 1.0
C      1  0.4695180000000  0.4283340000000  0.4378260000000 1.0
C      1  0.4674910000000  0.5626950000000  0.5161710000000 1.0
C      1  0.5423070000000  0.4976150000000  0.5899420000000 1.0
C      1  0.5628440000000  0.4241010000000  0.4750000000000 1.0
C      1  0.4572100000000  0.5928520000000  0.5548120000000 1.0
C      1  0.5462720000000  0.4947110000000  0.4505520000000 1.0
C      1  0.4342370000000  0.4372410000000  0.4858240000000 1.0
C      1  0.4806410000000  0.5095020000000  0.6124320000000 1.0
C      1  0.4165380000000  0.5607540000000  0.5387380000000 1.0
C      1  0.4427850000000  0.5755060000000  0.4672000000000 1.0
C      1  0.5553700000000  0.6016100000000  0.4831040000000 1.0
END
