TITL C-2778426-5645-468 0.00450654698597717 125000 -786.970386415481 0 0 138 (C1) n - 1
REM
REM in /home/nfs/bkarasulu/CARBON/AIRSS/Generating-Clusters/REBO/Only-C1/SD-CG/HFTN-CG
REM
REM
REM
REM
REM
REM ./C.cell (11c1c37f851c82e70ff6c80c92926a4b)
REM
REM compiler GCC version 9.2.1 20190827 (Red Hat 9.2.1-1)
REM options -cpp -mtune=generic -march=x86-64 -g -O0 -fpre-include=/usr/include/finclude/math-vector-fortran.h
REM seed -804519522 -1437880524 1746625852 -1223844892 -1455957549 -1975573935 -1136148354 -256141751 -952005717 521427358 -312920877 1063129209 2128421934 570178682 -1318663872 356552607 -2000675266 -34348578 1270402639 297957746 1689508007 -1729235756 -1957864857 -842032733 -1188121960 1181149181 -627946766 2010576923 -1945370060 1920675921 -1033968888 -1942503947 -1808943866
REM
CELL 1.54180   50.00000   50.00000   50.00000   90.00000   90.00000   90.00000
LATT -1
SFAC C  
C      1  0.4040750000000  0.4691780000000  0.5153950000000 1.0
C      1  0.4575640000000  0.5956310000000  0.4453340000000 1.0
C      1  0.5799120000000  0.5448080000000  0.5259920000000 1.0
C      1  0.5017110000000  0.4712160000000  0.5286730000000 1.0
C      1  0.5162350000000  0.5399060000000  0.5084140000000 1.0
C      1  0.4351750000000  0.4419530000000  0.4413380000000 1.0
C      1  0.5092170000000  0.4307930000000  0.4919490000000 1.0
C      1  0.4309930000000  0.5001080000000  0.5693620000000 1.0
C      1  0.5733650000000  0.5689580000000  0.5042860000000 1.0
C      1  0.5471600000000  0.4710770000000  0.4738140000000 1.0
C      1  0.4120390000000  0.5169040000000  0.5568660000000 1.0
C      1  0.4146410000000  0.5056810000000  0.5037670000000 1.0
C      1  0.4709090000000  0.4487210000000  0.4826770000000 1.0
C      1  0.5707700000000  0.4821100000000  0.5199160000000 1.0
C      1  0.5423540000000  0.4816390000000  0.5594290000000 1.0
C      1  0.5082690000000  0.5135840000000  0.4902970000000 1.0
C      1  0.5451870000000  0.5704580000000  0.5684050000000 1.0
C      1  0.4919220000000  0.4429330000000  0.5167250000000 1.0
C      1  0.5997930000000  0.4746330000000  0.5061240000000 1.0
C      1  0.5352500000000  0.4990080000000  0.4088980000000 1.0
C      1  0.5882540000000  0.4465080000000  0.5176430000000 1.0
C      1  0.5055280000000  0.4441420000000  0.5787090000000 1.0
C      1  0.4204570000000  0.4873700000000  0.4274590000000 1.0
C      1  0.4756190000000  0.4090570000000  0.5420460000000 1.0
C      1  0.5498610000000  0.5117780000000  0.4487420000000 1.0
C      1  0.4620940000000  0.4721310000000  0.5677310000000 1.0
C      1  0.4619650000000  0.4298390000000  0.4578400000000 1.0
C      1  0.4333600000000  0.4540330000000  0.4704740000000 1.0
C      1  0.5303300000000  0.4442590000000  0.4711900000000 1.0
C      1  0.4824260000000  0.4434770000000  0.4126700000000 1.0
C      1  0.5497620000000  0.4810340000000  0.4413990000000 1.0
C      1  0.4433710000000  0.4833350000000  0.4713990000000 1.0
C      1  0.5172020000000  0.5641270000000  0.5824200000000 1.0
C      1  0.5103600000000  0.5633760000000  0.5502280000000 1.0
C      1  0.4872230000000  0.4299590000000  0.5615340000000 1.0
C      1  0.5183310000000  0.3998900000000  0.5033690000000 1.0
C      1  0.4859920000000  0.4714750000000  0.4769960000000 1.0
C      1  0.4883250000000  0.5019260000000  0.4024170000000 1.0
C      1  0.6020370000000  0.4252080000000  0.5242050000000 1.0
C      1  0.3939540000000  0.4870160000000  0.4924160000000 1.0
C      1  0.5406410000000  0.5914160000000  0.5419780000000 1.0
C      1  0.4863040000000  0.5408260000000  0.5728630000000 1.0
C      1  0.5327140000000  0.4704990000000  0.5159950000000 1.0
C      1  0.5191260000000  0.4953130000000  0.5453500000000 1.0
C      1  0.4225710000000  0.4994120000000  0.4529240000000 1.0
C      1  0.5134540000000  0.5327520000000  0.5917760000000 1.0
C      1  0.6122220000000  0.5019910000000  0.5162500000000 1.0
C      1  0.5647970000000  0.5479300000000  0.5753860000000 1.0
C      1  0.5837750000000  0.5141710000000  0.4277160000000 1.0
C      1  0.4607770000000  0.5190060000000  0.4577000000000 1.0
C      1  0.4247470000000  0.4886200000000  0.5316290000000 1.0
C      1  0.5244040000000  0.5386240000000  0.5362290000000 1.0
C      1  0.4470060000000  0.5170330000000  0.4265790000000 1.0
C      1  0.4530290000000  0.5024350000000  0.4932230000000 1.0
C      1  0.4330540000000  0.5582720000000  0.5399870000000 1.0
C      1  0.4656600000000  0.4883860000000  0.4465380000000 1.0
C      1  0.5598770000000  0.5119690000000  0.5072290000000 1.0
C      1  0.5341050000000  0.5090190000000  0.5870900000000 1.0
C      1  0.4891530000000  0.5493040000000  0.4496300000000 1.0
C      1  0.5063010000000  0.4616790000000  0.4244070000000 1.0
C      1  0.5431610000000  0.4207440000000  0.5146500000000 1.0
C      1  0.4640140000000  0.3989000000000  0.4827180000000 1.0
C      1  0.4967570000000  0.5623320000000  0.5020090000000 1.0
C      1  0.4299180000000  0.4381540000000  0.5490580000000 1.0
C      1  0.4759730000000  0.5928040000000  0.4667360000000 1.0
C      1  0.5569900000000  0.5178390000000  0.5682650000000 1.0
C      1  0.5229530000000  0.5977170000000  0.4845070000000 1.0
C      1  0.4843480000000  0.5250100000000  0.4259620000000 1.0
C      1  0.4515780000000  0.5753540000000  0.4273490000000 1.0
C      1  0.5787920000000  0.4627830000000  0.4826550000000 1.0
C      1  0.4173140000000  0.5755800000000  0.5149940000000 1.0
C      1  0.4238450000000  0.5295260000000  0.5355460000000 1.0
C      1  0.5752900000000  0.4442910000000  0.4601080000000 1.0
C      1  0.4767090000000  0.5249490000000  0.4838070000000 1.0
C      1  0.4293750000000  0.5312760000000  0.4523620000000 1.0
C      1  0.5260160000000  0.4519130000000  0.5964010000000 1.0
C      1  0.4477900000000  0.4111130000000  0.5378180000000 1.0
C      1  0.4864330000000  0.5749210000000  0.5718170000000 1.0
C      1  0.4312250000000  0.4238590000000  0.5121170000000 1.0
C      1  0.4843160000000  0.4118130000000  0.4507920000000 1.0
C      1  0.5976340000000  0.5245920000000  0.5106110000000 1.0
C      1  0.5035830000000  0.5208330000000  0.5517610000000 1.0
C      1  0.5195690000000  0.5530250000000  0.4510430000000 1.0
C      1  0.5062840000000  0.4163310000000  0.5292530000000 1.0
C      1  0.4510160000000  0.4845050000000  0.4167840000000 1.0
C      1  0.4990430000000  0.4230320000000  0.4294250000000 1.0
C      1  0.5099120000000  0.4840040000000  0.4026840000000 1.0
C      1  0.4710140000000  0.5212230000000  0.5419230000000 1.0
C      1  0.4931290000000  0.4867690000000  0.4998880000000 1.0
C      1  0.4692610000000  0.5946110000000  0.5232860000000 1.0
C      1  0.5355000000000  0.4926700000000  0.4941090000000 1.0
C      1  0.4967230000000  0.4827390000000  0.4467340000000 1.0
C      1  0.5686430000000  0.5713680000000  0.5435220000000 1.0
C      1  0.5656240000000  0.5954780000000  0.5193600000000 1.0
C      1  0.5472740000000  0.5456580000000  0.4028880000000 1.0
C      1  0.5796070000000  0.5184920000000  0.4576840000000 1.0
C      1  0.4573970000000  0.5117090000000  0.5700030000000 1.0
C      1  0.4496890000000  0.5725640000000  0.5158680000000 1.0
C      1  0.4618520000000  0.5577360000000  0.5553290000000 1.0
C      1  0.4644190000000  0.5514010000000  0.4272250000000 1.0
C      1  0.4482940000000  0.5108590000000  0.5240830000000 1.0
C      1  0.4403970000000  0.4232420000000  0.4833980000000 1.0
C      1  0.5129000000000  0.5093590000000  0.4330670000000 1.0
C      1  0.5255310000000  0.4394540000000  0.4389170000000 1.0
C      1  0.4320910000000  0.4697500000000  0.5571490000000 1.0
C      1  0.5544090000000  0.5615080000000  0.4850080000000 1.0
C      1  0.4801480000000  0.5636900000000  0.4747380000000 1.0
C      1  0.5532370000000  0.5276500000000  0.5370910000000 1.0
C      1  0.5387630000000  0.4755500000000  0.5916420000000 1.0
C      1  0.5643280000000  0.4966480000000  0.4149630000000 1.0
C      1  0.5600920000000  0.4017610000000  0.4695470000000 1.0
C      1  0.5339070000000  0.5751600000000  0.4700760000000 1.0
C      1  0.4760100000000  0.4956390000000  0.5859630000000 1.0
C      1  0.5564950000000  0.4505880000000  0.5192340000000 1.0
C      1  0.4080320000000  0.4422990000000  0.5233610000000 1.0
C      1  0.5398200000000  0.4497900000000  0.5589210000000 1.0
C      1  0.5337030000000  0.6026160000000  0.5104750000000 1.0
C      1  0.4980360000000  0.6083320000000  0.4753060000000 1.0
C      1  0.4060030000000  0.5696700000000  0.4906400000000 1.0
C      1  0.5838670000000  0.5211950000000  0.4840920000000 1.0
C      1  0.4601870000000  0.4406160000000  0.5134960000000 1.0
C      1  0.5417740000000  0.5353410000000  0.4916970000000 1.0
C      1  0.4963230000000  0.4023410000000  0.4785040000000 1.0
C      1  0.5320760000000  0.4281310000000  0.5449760000000 1.0
C      1  0.5559930000000  0.4498600000000  0.4411990000000 1.0
C      1  0.4856200000000  0.5504220000000  0.5319000000000 1.0
C      1  0.4337830000000  0.5295780000000  0.4919990000000 1.0
C      1  0.4159340000000  0.5496950000000  0.4748620000000 1.0
C      1  0.5356670000000  0.5342290000000  0.4277260000000 1.0
C      1  0.5465110000000  0.4195780000000  0.4832110000000 1.0
C      1  0.4608060000000  0.4578030000000  0.4046340000000 1.0
C      1  0.5052860000000  0.4945460000000  0.5824000000000 1.0
C      1  0.4630830000000  0.4467310000000  0.5468800000000 1.0
C      1  0.5285560000000  0.5255190000000  0.4657620000000 1.0
C      1  0.4934230000000  0.5897090000000  0.5174720000000 1.0
C      1  0.4941350000000  0.4693020000000  0.5621710000000 1.0
C      1  0.5692520000000  0.4930450000000  0.5490320000000 1.0
C      1  0.4588500000000  0.5512770000000  0.4963310000000 1.0
END
