TITL C-2778422-5617-697 0.00282885430263525 125000 -634.727323225896 0 0 106 (C1) n - 1
REM
REM in /home/nfs/bkarasulu/CARBON/AIRSS/Generating-Clusters/REBO/Only-C1/SD-CG/HFTN-CG
REM
REM
REM
REM
REM
REM ./C.cell (11c1c37f851c82e70ff6c80c92926a4b)
REM
REM compiler GCC version 9.2.1 20190827 (Red Hat 9.2.1-1)
REM options -cpp -mtune=generic -march=x86-64 -g -O0 -fpre-include=/usr/include/finclude/math-vector-fortran.h
REM seed -490479944 -706388012 349099885 2132142251 156079948 870769345 -185804323 -1503230196 1788362533 1437326626 -1315041427 595889049 80484577 1497782013 1834253881 -1407779790 -1965631128 -1677154846 578499696 -934971823 1883911089 -129918367 -1986145358 1721583536 -1896933650 -413257845 1857465044 1305463961 905016753 -1241650137 -322703072 1973254543 407235366
REM
CELL 1.54180   50.00000   50.00000   50.00000   90.00000   90.00000   90.00000
LATT -1
SFAC C  
C      1  0.5773820000000  0.5270980000000  0.5289460000000 1.0
C      1  0.5139090000000  0.4883980000000  0.4725420000000 1.0
C      1  0.4799450000000  0.4565740000000  0.4735040000000 1.0
C      1  0.4832190000000  0.4377760000000  0.4266960000000 1.0
C      1  0.5040750000000  0.4345470000000  0.4782090000000 1.0
C      1  0.5139900000000  0.4489460000000  0.4219230000000 1.0
C      1  0.5181490000000  0.4508610000000  0.5037160000000 1.0
C      1  0.5666660000000  0.4356700000000  0.4785350000000 1.0
C      1  0.4426170000000  0.4411960000000  0.5510270000000 1.0
C      1  0.5886530000000  0.5409980000000  0.5483420000000 1.0
C      1  0.5141610000000  0.4636100000000  0.5784710000000 1.0
C      1  0.4782150000000  0.5439320000000  0.4441490000000 1.0
C      1  0.5365650000000  0.5487090000000  0.5507860000000 1.0
C      1  0.5037240000000  0.4218260000000  0.4491430000000 1.0
C      1  0.4708490000000  0.4287070000000  0.4570910000000 1.0
C      1  0.5420190000000  0.4602330000000  0.4815560000000 1.0
C      1  0.5671360000000  0.5401210000000  0.5033070000000 1.0
C      1  0.5273620000000  0.4989080000000  0.5497150000000 1.0
C      1  0.4851320000000  0.5780770000000  0.4824650000000 1.0
C      1  0.4992470000000  0.4418290000000  0.5641410000000 1.0
C      1  0.4877440000000  0.5748220000000  0.5452180000000 1.0
C      1  0.4522810000000  0.5192910000000  0.5201620000000 1.0
C      1  0.4572780000000  0.4715790000000  0.5557880000000 1.0
C      1  0.3933800000000  0.5065060000000  0.4939410000000 1.0
C      1  0.4376830000000  0.5586370000000  0.4759230000000 1.0
C      1  0.5028580000000  0.4930080000000  0.5293420000000 1.0
C      1  0.5265740000000  0.4348460000000  0.5536920000000 1.0
C      1  0.4603000000000  0.5721400000000  0.5360300000000 1.0
C      1  0.5265420000000  0.4945120000000  0.3983950000000 1.0
C      1  0.4558280000000  0.4265340000000  0.4864160000000 1.0
C      1  0.5176620000000  0.4904460000000  0.4988320000000 1.0
C      1  0.4400190000000  0.4663150000000  0.5167160000000 1.0
C      1  0.5790980000000  0.4593320000000  0.4963000000000 1.0
C      1  0.4627970000000  0.4997210000000  0.4633370000000 1.0
C      1  0.5616660000000  0.4731400000000  0.5517740000000 1.0
C      1  0.5529150000000  0.4323370000000  0.5090810000000 1.0
C      1  0.4937710000000  0.4651570000000  0.5190680000000 1.0
C      1  0.5173950000000  0.5419390000000  0.5720750000000 1.0
C      1  0.4690710000000  0.4669070000000  0.5003280000000 1.0
C      1  0.4142320000000  0.5267190000000  0.5981330000000 1.0
C      1  0.4291190000000  0.5155930000000  0.5783280000000 1.0
C      1  0.4880160000000  0.4824430000000  0.4581280000000 1.0
C      1  0.4549760000000  0.5224490000000  0.4495010000000 1.0
C      1  0.4710560000000  0.4158020000000  0.5086580000000 1.0
C      1  0.5272120000000  0.5442790000000  0.4395270000000 1.0
C      1  0.5805680000000  0.5361070000000  0.4722290000000 1.0
C      1  0.4619530000000  0.4257630000000  0.5335860000000 1.0
C      1  0.4693940000000  0.4637700000000  0.4166480000000 1.0
C      1  0.5347060000000  0.5256450000000  0.5338550000000 1.0
C      1  0.4582880000000  0.5144440000000  0.5796010000000 1.0
C      1  0.5941730000000  0.4827790000000  0.5118970000000 1.0
C      1  0.5341530000000  0.4255820000000  0.4365420000000 1.0
C      1  0.4706110000000  0.4883310000000  0.5784250000000 1.0
C      1  0.3891470000000  0.5249830000000  0.5156930000000 1.0
C      1  0.5572040000000  0.4755060000000  0.4353700000000 1.0
C      1  0.5113710000000  0.5875760000000  0.4960710000000 1.0
C      1  0.5417110000000  0.4886320000000  0.5211490000000 1.0
C      1  0.3947050000000  0.5147180000000  0.5416000000000 1.0
C      1  0.4495390000000  0.4884840000000  0.4851200000000 1.0
C      1  0.6088200000000  0.4976970000000  0.4932940000000 1.0
C      1  0.4575280000000  0.5349710000000  0.4905300000000 1.0
C      1  0.5736010000000  0.4970890000000  0.5303490000000 1.0
C      1  0.5374130000000  0.4942670000000  0.4536820000000 1.0
C      1  0.4915750000000  0.5530030000000  0.5650620000000 1.0
C      1  0.5676000000000  0.5065990000000  0.4453250000000 1.0
C      1  0.5337860000000  0.4731220000000  0.4133290000000 1.0
C      1  0.5370440000000  0.5712090000000  0.5328560000000 1.0
C      1  0.4248170000000  0.5595510000000  0.5045270000000 1.0
C      1  0.5259070000000  0.4251890000000  0.5243190000000 1.0
C      1  0.5081400000000  0.5291380000000  0.4850590000000 1.0
C      1  0.4442250000000  0.5518090000000  0.5241200000000 1.0
C      1  0.5271820000000  0.4557110000000  0.4525330000000 1.0
C      1  0.5291660000000  0.5244090000000  0.4646060000000 1.0
C      1  0.4852580000000  0.5413670000000  0.5235810000000 1.0
C      1  0.5103110000000  0.5832010000000  0.5269370000000 1.0
C      1  0.4840610000000  0.5604910000000  0.5061140000000 1.0
C      1  0.5645060000000  0.4859190000000  0.4816210000000 1.0
C      1  0.4109930000000  0.5168090000000  0.4685780000000 1.0
C      1  0.4667740000000  0.5683770000000  0.4632450000000 1.0
C      1  0.5092290000000  0.5162640000000  0.4006890000000 1.0
C      1  0.5594280000000  0.4445220000000  0.4492070000000 1.0
C      1  0.3981610000000  0.5515310000000  0.5097350000000 1.0
C      1  0.5434450000000  0.4591990000000  0.5679050000000 1.0
C      1  0.5160170000000  0.5124880000000  0.5761160000000 1.0
C      1  0.5206040000000  0.5287220000000  0.5100040000000 1.0
C      1  0.5547570000000  0.5168630000000  0.4817110000000 1.0
C      1  0.5368120000000  0.5763520000000  0.4854250000000 1.0
C      1  0.5024850000000  0.5389980000000  0.4250790000000 1.0
C      1  0.4358920000000  0.4450930000000  0.4961630000000 1.0
C      1  0.5513410000000  0.5658360000000  0.5079590000000 1.0
C      1  0.5426470000000  0.5647890000000  0.4608420000000 1.0
C      1  0.4237210000000  0.4961480000000  0.4893240000000 1.0
C      1  0.5905450000000  0.5047910000000  0.4690070000000 1.0
C      1  0.5602260000000  0.4605940000000  0.5219960000000 1.0
C      1  0.5605410000000  0.5399450000000  0.4455380000000 1.0
C      1  0.4836370000000  0.5114560000000  0.4178500000000 1.0
C      1  0.4302190000000  0.5341460000000  0.4576460000000 1.0
C      1  0.4802280000000  0.4508140000000  0.5432500000000 1.0
C      1  0.4730540000000  0.5310200000000  0.5612520000000 1.0
C      1  0.4395310000000  0.4924780000000  0.5357970000000 1.0
C      1  0.4996080000000  0.4881310000000  0.5825850000000 1.0
C      1  0.4776980000000  0.4869020000000  0.4285820000000 1.0
C      1  0.4996140000000  0.4159750000000  0.5047270000000 1.0
C      1  0.4184130000000  0.5060290000000  0.5539010000000 1.0
C      1  0.4810710000000  0.5122650000000  0.5350370000000 1.0
C      1  0.4823590000000  0.5339310000000  0.4762640000000 1.0
END
