TITL C-2778435-5768-1420 -0.0479924548366564 125000 -386.629702384148 0 0 67 (C1) n - 1
REM
REM in /home/nfs/bkarasulu/CARBON/AIRSS/Generating-Clusters/REBO/Only-C1/SD-CG/HFTN-CG
REM
REM
REM
REM
REM
REM ./C.cell (11c1c37f851c82e70ff6c80c92926a4b)
REM
REM compiler GCC version 9.2.1 20190827 (Red Hat 9.2.1-1)
REM options -cpp -mtune=generic -march=x86-64 -g -O0 -fpre-include=/usr/include/finclude/math-vector-fortran.h
REM seed 1199744695 177850280 -84724493 -1677065559 1278346189 1615079505 44736521 38182458 -1572219935 848243292 -2076807026 -1436016375 -1304735842 -803782627 1473720311 1886930403 1153430596 -828468980 -352358564 -437601142 470818873 -1648373051 -1269750790 -1068983660 1452854404 -1434780822 -1586572439 1943951523 1545308570 -1818110328 1305749887 1280218366 -783426106
REM
CELL 1.54180   50.00000   50.00000   50.00000   90.00000   90.00000   90.00000
LATT -1
SFAC C  
C      1  0.5236840000000  0.4551360000000  0.4706460000000 1.0
C      1  0.4182970000000  0.4903830000000  0.5103440000000 1.0
C      1  0.4380490000000  0.5115980000000  0.4648990000000 1.0
C      1  0.5215030000000  0.5373320000000  0.4809770000000 1.0
C      1  0.5472530000000  0.4443170000000  0.5364020000000 1.0
C      1  0.5132220000000  0.5208990000000  0.5071990000000 1.0
C      1  0.5548390000000  0.5067490000000  0.5578600000000 1.0
C      1  0.4300840000000  0.4890860000000  0.4852170000000 1.0
C      1  0.4277390000000  0.6081680000000  0.5026650000000 1.0
C      1  0.5322780000000  0.4799850000000  0.4850520000000 1.0
C      1  0.4471360000000  0.4621730000000  0.4743300000000 1.0
C      1  0.5164620000000  0.4262840000000  0.4830800000000 1.0
C      1  0.4512480000000  0.5357980000000  0.4699950000000 1.0
C      1  0.5671450000000  0.4557880000000  0.4926720000000 1.0
C      1  0.4285690000000  0.4830220000000  0.5345420000000 1.0
C      1  0.4669570000000  0.5360620000000  0.5682530000000 1.0
C      1  0.4735360000000  0.5521640000000  0.4757620000000 1.0
C      1  0.4924700000000  0.4229970000000  0.4616690000000 1.0
C      1  0.5435580000000  0.5217650000000  0.4661390000000 1.0
C      1  0.4936670000000  0.4773420000000  0.5050960000000 1.0
C      1  0.4491900000000  0.5920860000000  0.5074230000000 1.0
C      1  0.5458510000000  0.4837150000000  0.4542860000000 1.0
C      1  0.4543490000000  0.4723050000000  0.5370160000000 1.0
C      1  0.5270200000000  0.4708160000000  0.4214520000000 1.0
C      1  0.5163790000000  0.4573340000000  0.4421400000000 1.0
C      1  0.5025470000000  0.5388760000000  0.5319500000000 1.0
C      1  0.5694590000000  0.5135550000000  0.5075300000000 1.0
C      1  0.5666670000000  0.4640120000000  0.5209740000000 1.0
C      1  0.4572420000000  0.5483560000000  0.5455080000000 1.0
C      1  0.4803740000000  0.5145180000000  0.5095100000000 1.0
C      1  0.4464150000000  0.5639130000000  0.5200510000000 1.0
C      1  0.4977860000000  0.5450120000000  0.4634820000000 1.0
C      1  0.4897260000000  0.4447100000000  0.4443940000000 1.0
C      1  0.4805120000000  0.6039240000000  0.5110700000000 1.0
C      1  0.5047540000000  0.5061840000000  0.4329820000000 1.0
C      1  0.4781680000000  0.4901830000000  0.5313550000000 1.0
C      1  0.4936500000000  0.4957450000000  0.5563230000000 1.0
C      1  0.4753610000000  0.5743840000000  0.4945900000000 1.0
C      1  0.4888130000000  0.4498390000000  0.4996590000000 1.0
C      1  0.5416540000000  0.5466500000000  0.5309370000000 1.0
C      1  0.5053130000000  0.5818690000000  0.5086080000000 1.0
C      1  0.5495070000000  0.4320080000000  0.4902250000000 1.0
C      1  0.5318800000000  0.4961730000000  0.5104230000000 1.0
C      1  0.5301310000000  0.5761550000000  0.5311590000000 1.0
C      1  0.5008960000000  0.4481680000000  0.5575880000000 1.0
C      1  0.5702970000000  0.4773340000000  0.4733700000000 1.0
C      1  0.4636790000000  0.5376900000000  0.5155030000000 1.0
C      1  0.4923420000000  0.4974540000000  0.4825490000000 1.0
C      1  0.5343640000000  0.5074810000000  0.4413140000000 1.0
C      1  0.5000310000000  0.4965890000000  0.4070580000000 1.0
C      1  0.5363960000000  0.4260280000000  0.5175160000000 1.0
C      1  0.4975460000000  0.5360490000000  0.4378060000000 1.0
C      1  0.5516470000000  0.5195570000000  0.5310370000000 1.0
C      1  0.5644150000000  0.5072560000000  0.4806840000000 1.0
C      1  0.4891730000000  0.4914140000000  0.4553040000000 1.0
C      1  0.4843310000000  0.5154840000000  0.5720010000000 1.0
C      1  0.4608130000000  0.4457660000000  0.5277040000000 1.0
C      1  0.4968700000000  0.5556400000000  0.5503450000000 1.0
C      1  0.5049460000000  0.4249570000000  0.5140730000000 1.0
C      1  0.5160150000000  0.4757800000000  0.5593080000000 1.0
C      1  0.4868060000000  0.4361120000000  0.5371670000000 1.0
C      1  0.5274280000000  0.5579490000000  0.5025340000000 1.0
C      1  0.5419630000000  0.4902900000000  0.5721110000000 1.0
C      1  0.5381310000000  0.4768410000000  0.5347540000000 1.0
C      1  0.4588510000000  0.4449320000000  0.4962370000000 1.0
C      1  0.4702670000000  0.4672370000000  0.4497910000000 1.0
C      1  0.4423500000000  0.4846250000000  0.4483990000000 1.0
END
