TITL C-2778425-5191-1236 -0.00025522959223135 125000 -1163.86139421208 0 0 199 (C1) n - 1
REM
REM in /home/nfs/bkarasulu/CARBON/AIRSS/Generating-Clusters/REBO/Only-C1/SD-CG/HFTN-CG
REM
REM
REM
REM
REM
REM ./C.cell (11c1c37f851c82e70ff6c80c92926a4b)
REM
REM compiler GCC version 9.2.1 20190827 (Red Hat 9.2.1-1)
REM options -cpp -mtune=generic -march=x86-64 -g -O0 -fpre-include=/usr/include/finclude/math-vector-fortran.h
REM seed 281734886 -1308712070 -1226520429 -1124736715 -1232857470 1037275415 -1027714472 2121435537 1178353622 -154627774 -1039223620 -1518577235 432717935 1704328523 2102523685 -937214682 -1515515696 -510028518 109282279 95797299 321096189 -262528566 -1744666777 1151189218 1998923017 -884636448 1242536659 159836001 1400484294 -323959830 -1090521404 1761156217 -1288512244
REM
CELL 1.54180   50.00000   50.00000   50.00000   90.00000   90.00000   90.00000
LATT -1
SFAC C  
C      1  0.5213040000000  0.4414130000000  0.4599710000000 1.0
C      1  0.5253500000000  0.3961690000000  0.5060650000000 1.0
C      1  0.5872570000000  0.4286120000000  0.4719190000000 1.0
C      1  0.4292060000000  0.5731680000000  0.4447630000000 1.0
C      1  0.5243570000000  0.5164880000000  0.5592630000000 1.0
C      1  0.4253800000000  0.5878520000000  0.4969000000000 1.0
C      1  0.5384670000000  0.5305720000000  0.5162480000000 1.0
C      1  0.3868860000000  0.4729670000000  0.4688770000000 1.0
C      1  0.4718000000000  0.5294390000000  0.5068910000000 1.0
C      1  0.5254220000000  0.4246590000000  0.5830940000000 1.0
C      1  0.5363460000000  0.5401390000000  0.4069130000000 1.0
C      1  0.4562150000000  0.4505180000000  0.4793230000000 1.0
C      1  0.4721200000000  0.5724740000000  0.5356000000000 1.0
C      1  0.5068350000000  0.4906520000000  0.6218250000000 1.0
C      1  0.5878300000000  0.4824290000000  0.5552860000000 1.0
C      1  0.5227460000000  0.4156840000000  0.4404950000000 1.0
C      1  0.5735770000000  0.5491950000000  0.5138420000000 1.0
C      1  0.3875310000000  0.4932660000000  0.5187060000000 1.0
C      1  0.6055960000000  0.5386330000000  0.5346380000000 1.0
C      1  0.5870770000000  0.4531430000000  0.5664440000000 1.0
C      1  0.5762090000000  0.4918400000000  0.4572020000000 1.0
C      1  0.4606610000000  0.4113970000000  0.4851330000000 1.0
C      1  0.5493180000000  0.5000110000000  0.4498840000000 1.0
C      1  0.4779190000000  0.3849780000000  0.5401140000000 1.0
C      1  0.4618790000000  0.5577170000000  0.4621480000000 1.0
C      1  0.5574290000000  0.5547970000000  0.4292150000000 1.0
C      1  0.3902710000000  0.5550890000000  0.4738590000000 1.0
C      1  0.4338150000000  0.5261390000000  0.5746890000000 1.0
C      1  0.5043760000000  0.4935120000000  0.5708570000000 1.0
C      1  0.5939720000000  0.4388620000000  0.5867640000000 1.0
C      1  0.5000800000000  0.5616480000000  0.4828610000000 1.0
C      1  0.4989700000000  0.5143250000000  0.6240260000000 1.0
C      1  0.4708000000000  0.4755770000000  0.5105480000000 1.0
C      1  0.5289340000000  0.5880520000000  0.5839710000000 1.0
C      1  0.4300530000000  0.5538860000000  0.4705840000000 1.0
C      1  0.4102230000000  0.5048480000000  0.5493320000000 1.0
C      1  0.6145480000000  0.4837680000000  0.5255620000000 1.0
C      1  0.5666300000000  0.4142230000000  0.4886690000000 1.0
C      1  0.4265780000000  0.4908690000000  0.5264840000000 1.0
C      1  0.5717100000000  0.4723190000000  0.4226890000000 1.0
C      1  0.5191060000000  0.4805400000000  0.5427840000000 1.0
C      1  0.5063050000000  0.5731300000000  0.5068730000000 1.0
C      1  0.5213160000000  0.6071470000000  0.4924780000000 1.0
C      1  0.5958350000000  0.5182690000000  0.4571760000000 1.0
C      1  0.5987580000000  0.5118550000000  0.4890560000000 1.0
C      1  0.4869990000000  0.5429080000000  0.3993630000000 1.0
C      1  0.4843800000000  0.4404910000000  0.3929600000000 1.0
C      1  0.4723580000000  0.4273730000000  0.5878940000000 1.0
C      1  0.4565210000000  0.5209960000000  0.4476300000000 1.0
C      1  0.4426250000000  0.5278170000000  0.5468160000000 1.0
C      1  0.5722040000000  0.4504550000000  0.5371370000000 1.0
C      1  0.4984880000000  0.6023760000000  0.5166810000000 1.0
C      1  0.5496150000000  0.4112370000000  0.5111270000000 1.0
C      1  0.5519170000000  0.4467890000000  0.4711180000000 1.0
C      1  0.5728560000000  0.5861420000000  0.4991730000000 1.0
C      1  0.5039110000000  0.5055650000000  0.4905360000000 1.0
C      1  0.5389990000000  0.4735950000000  0.5695560000000 1.0
C      1  0.5656130000000  0.4830550000000  0.5297810000000 1.0
C      1  0.5965230000000  0.5077130000000  0.5357620000000 1.0
C      1  0.4569760000000  0.4542150000000  0.5946240000000 1.0
C      1  0.4606670000000  0.5159110000000  0.4801260000000 1.0
C      1  0.4496440000000  0.4023480000000  0.5376100000000 1.0
C      1  0.5049740000000  0.4405100000000  0.4147220000000 1.0
C      1  0.5390050000000  0.5818770000000  0.4386860000000 1.0
C      1  0.4289480000000  0.4906230000000  0.4064450000000 1.0
C      1  0.4778260000000  0.4877050000000  0.3918750000000 1.0
C      1  0.4124190000000  0.4234740000000  0.4915230000000 1.0
C      1  0.4254710000000  0.4453220000000  0.5562600000000 1.0
C      1  0.4530740000000  0.4360920000000  0.5381510000000 1.0
C      1  0.4568900000000  0.4441980000000  0.4124510000000 1.0
C      1  0.4847470000000  0.5740760000000  0.5736990000000 1.0
C      1  0.4449040000000  0.4425170000000  0.5045770000000 1.0
C      1  0.5696140000000  0.5860410000000  0.5283140000000 1.0
C      1  0.4946470000000  0.4612220000000  0.4821420000000 1.0
C      1  0.4481330000000  0.4137460000000  0.4591740000000 1.0
C      1  0.4753270000000  0.5431670000000  0.4375880000000 1.0
C      1  0.5220450000000  0.5748240000000  0.5596430000000 1.0
C      1  0.4923240000000  0.4136660000000  0.4507320000000 1.0
C      1  0.4877910000000  0.4278440000000  0.4876760000000 1.0
C      1  0.5021980000000  0.4112170000000  0.5496230000000 1.0
C      1  0.5258750000000  0.5616170000000  0.5222270000000 1.0
C      1  0.5735530000000  0.5249430000000  0.4247110000000 1.0
C      1  0.5289510000000  0.4542980000000  0.5867360000000 1.0
C      1  0.5763600000000  0.4992660000000  0.4179960000000 1.0
C      1  0.4371380000000  0.4472610000000  0.4400370000000 1.0
C      1  0.5230090000000  0.5001390000000  0.5166760000000 1.0
C      1  0.5080850000000  0.5776020000000  0.4276920000000 1.0
C      1  0.4554690000000  0.5038100000000  0.5176570000000 1.0
C      1  0.4582520000000  0.5562150000000  0.5119350000000 1.0
C      1  0.5419080000000  0.4945620000000  0.4889020000000 1.0
C      1  0.4456970000000  0.5919180000000  0.5240350000000 1.0
C      1  0.4621930000000  0.5752510000000  0.4892670000000 1.0
C      1  0.3854450000000  0.4746210000000  0.5408930000000 1.0
C      1  0.5730950000000  0.4913480000000  0.4985200000000 1.0
C      1  0.6210080000000  0.4667780000000  0.4779510000000 1.0
C      1  0.5692880000000  0.5226960000000  0.5293980000000 1.0
C      1  0.4826930000000  0.5953050000000  0.4312690000000 1.0
C      1  0.4699760000000  0.6042310000000  0.5037830000000 1.0
C      1  0.5575980000000  0.5395670000000  0.5838560000000 1.0
C      1  0.5079190000000  0.3897800000000  0.5267540000000 1.0
C      1  0.4812850000000  0.5334650000000  0.6021230000000 1.0
C      1  0.3924330000000  0.5140410000000  0.4975680000000 1.0
C      1  0.4231780000000  0.5251140000000  0.4437530000000 1.0
C      1  0.4692530000000  0.4850780000000  0.5545230000000 1.0
C      1  0.5255580000000  0.5085970000000  0.3989670000000 1.0
C      1  0.4790470000000  0.5033200000000  0.5913510000000 1.0
C      1  0.5053330000000  0.4643650000000  0.6056070000000 1.0
C      1  0.5840140000000  0.5403420000000  0.5620350000000 1.0
C      1  0.5009890000000  0.4895600000000  0.4241040000000 1.0
C      1  0.5095820000000  0.5577810000000  0.4521080000000 1.0
C      1  0.4511820000000  0.4907310000000  0.5798210000000 1.0
C      1  0.3861620000000  0.5019280000000  0.4705250000000 1.0
C      1  0.4950680000000  0.4562650000000  0.5148500000000 1.0
C      1  0.4694820000000  0.4799600000000  0.6127100000000 1.0
C      1  0.5397730000000  0.5217810000000  0.4711560000000 1.0
C      1  0.4111770000000  0.4788430000000  0.5000610000000 1.0
C      1  0.4937060000000  0.4597810000000  0.4341050000000 1.0
C      1  0.4392980000000  0.5692030000000  0.4186320000000 1.0
C      1  0.4516150000000  0.5438370000000  0.5891460000000 1.0
C      1  0.5029880000000  0.5326710000000  0.4824160000000 1.0
C      1  0.5879720000000  0.5658450000000  0.5412870000000 1.0
C      1  0.4912480000000  0.5026270000000  0.4587770000000 1.0
C      1  0.5106080000000  0.4046900000000  0.4780350000000 1.0
C      1  0.5374110000000  0.5514130000000  0.4642920000000 1.0
C      1  0.4640900000000  0.4186500000000  0.4326300000000 1.0
C      1  0.4567820000000  0.4777190000000  0.4118710000000 1.0
C      1  0.4928130000000  0.5135940000000  0.4012450000000 1.0
C      1  0.4907680000000  0.6071030000000  0.4777200000000 1.0
C      1  0.4368450000000  0.5771790000000  0.5533780000000 1.0
C      1  0.5200910000000  0.4465090000000  0.5439720000000 1.0
C      1  0.4388930000000  0.4733750000000  0.4517840000000 1.0
C      1  0.5210680000000  0.4335050000000  0.4928350000000 1.0
C      1  0.5010120000000  0.5554850000000  0.5896370000000 1.0
C      1  0.4564220000000  0.5686880000000  0.5738310000000 1.0
C      1  0.4712560000000  0.5153600000000  0.5440250000000 1.0
C      1  0.4191600000000  0.4955090000000  0.5781940000000 1.0
C      1  0.4870230000000  0.4383610000000  0.5401470000000 1.0
C      1  0.4310150000000  0.5432320000000  0.5205820000000 1.0
C      1  0.4386660000000  0.4101650000000  0.5089920000000 1.0
C      1  0.4846310000000  0.4662920000000  0.5784960000000 1.0
C      1  0.4174210000000  0.5095850000000  0.4176330000000 1.0
C      1  0.4869730000000  0.5417810000000  0.5355620000000 1.0
C      1  0.5230320000000  0.4741200000000  0.4701480000000 1.0
C      1  0.5491370000000  0.4128620000000  0.4617490000000 1.0
C      1  0.4978200000000  0.4676260000000  0.3862500000000 1.0
C      1  0.5436170000000  0.5811280000000  0.5370520000000 1.0
C      1  0.5489820000000  0.4299780000000  0.5362310000000 1.0
C      1  0.3955450000000  0.5298580000000  0.4606980000000 1.0
C      1  0.4169020000000  0.5353750000000  0.4960210000000 1.0
C      1  0.5946470000000  0.4432270000000  0.5161790000000 1.0
C      1  0.4962410000000  0.5904030000000  0.5470270000000 1.0
C      1  0.5358700000000  0.4323000000000  0.4149000000000 1.0
C      1  0.4246520000000  0.4848860000000  0.4741020000000 1.0
C      1  0.6243080000000  0.4973980000000  0.4893820000000 1.0
C      1  0.5403680000000  0.4135220000000  0.5624620000000 1.0
C      1  0.5831630000000  0.5107280000000  0.5733040000000 1.0
C      1  0.6101140000000  0.4876120000000  0.4533510000000 1.0
C      1  0.4134170000000  0.4503200000000  0.5099470000000 1.0
C      1  0.4509430000000  0.4689800000000  0.5356090000000 1.0
C      1  0.5033030000000  0.5269410000000  0.4429430000000 1.0
C      1  0.5301410000000  0.5487000000000  0.5888120000000 1.0
C      1  0.4715200000000  0.4856760000000  0.4803320000000 1.0
C      1  0.5247070000000  0.4779290000000  0.3931460000000 1.0
C      1  0.4988010000000  0.4315290000000  0.5982620000000 1.0
C      1  0.5289330000000  0.4556330000000  0.5131710000000 1.0
C      1  0.5877950000000  0.5629840000000  0.4791300000000 1.0
C      1  0.4702350000000  0.6020710000000  0.4553680000000 1.0
C      1  0.5430240000000  0.4629530000000  0.4139770000000 1.0
C      1  0.5122940000000  0.5426550000000  0.5537730000000 1.0
C      1  0.5295800000000  0.5180330000000  0.4304940000000 1.0
C      1  0.3971540000000  0.4483940000000  0.4733150000000 1.0
C      1  0.4028120000000  0.5312640000000  0.5478110000000 1.0
C      1  0.5609570000000  0.5761280000000  0.4627090000000 1.0
C      1  0.5531470000000  0.4570420000000  0.4968230000000 1.0
C      1  0.5423130000000  0.5857650000000  0.4887580000000 1.0
C      1  0.5481410000000  0.5070780000000  0.5469090000000 1.0
C      1  0.5188120000000  0.5993860000000  0.4594380000000 1.0
C      1  0.4711150000000  0.4099000000000  0.5632970000000 1.0
C      1  0.6127580000000  0.4623040000000  0.5089960000000 1.0
C      1  0.5573980000000  0.4353660000000  0.4390350000000 1.0
C      1  0.4746560000000  0.4430840000000  0.4532050000000 1.0
C      1  0.6012080000000  0.5402240000000  0.5006890000000 1.0
C      1  0.5513760000000  0.5528980000000  0.4934390000000 1.0
C      1  0.4642690000000  0.4902480000000  0.4413940000000 1.0
C      1  0.4040170000000  0.4522750000000  0.5388360000000 1.0
C      1  0.4020930000000  0.5734170000000  0.4914060000000 1.0
C      1  0.4196560000000  0.4272790000000  0.4589890000000 1.0
C      1  0.5107480000000  0.5583980000000  0.4036820000000 1.0
C      1  0.4165080000000  0.5578440000000  0.5459550000000 1.0
C      1  0.5581310000000  0.4889600000000  0.5810070000000 1.0
C      1  0.4421800000000  0.5918710000000  0.4675730000000 1.0
C      1  0.5830280000000  0.5458160000000  0.4500920000000 1.0
C      1  0.5628320000000  0.5137460000000  0.6000010000000 1.0
C      1  0.5284380000000  0.4788180000000  0.4375040000000 1.0
C      1  0.4622550000000  0.5544010000000  0.4112800000000 1.0
C      1  0.4306060000000  0.4633810000000  0.5800150000000 1.0
C      1  0.4292450000000  0.5145710000000  0.4755120000000 1.0
C      1  0.5869580000000  0.4677760000000  0.4784850000000 1.0
C      1  0.5836600000000  0.4530290000000  0.4480460000000 1.0
END
