TITL C-2778433-5640-1415 -0.00151708333590748 125000 -532.273973156287 0 0 91 (C1) n - 1
REM
REM in /home/nfs/bkarasulu/CARBON/AIRSS/Generating-Clusters/REBO/Only-C1/SD-CG/HFTN-CG
REM
REM
REM
REM
REM
REM ./C.cell (11c1c37f851c82e70ff6c80c92926a4b)
REM
REM compiler GCC version 9.2.1 20190827 (Red Hat 9.2.1-1)
REM options -cpp -mtune=generic -march=x86-64 -g -O0 -fpre-include=/usr/include/finclude/math-vector-fortran.h
REM seed -545959476 555842352 -2033401372 1642702015 1111266926 1467148065 -164109916 142091929 -122807813 -928513768 736450148 1789524675 1705552508 507888690 -962575710 363366012 -840372499 1570485339 -1079419255 -362216209 -2057205229 2052657795 1694593097 1447182047 1714039130 -2035061722 -1420487085 -859610554 2110357852 1470047472 655766805 -180446090 -1935942482
REM
CELL 1.54180   50.00000   50.00000   50.00000   90.00000   90.00000   90.00000
LATT -1
SFAC C  
C      1  0.4820130000000  0.4912090000000  0.5811010000000 1.0
C      1  0.5526530000000  0.5118870000000  0.4649940000000 1.0
C      1  0.4530510000000  0.5708500000000  0.4844770000000 1.0
C      1  0.4534890000000  0.5691500000000  0.5139450000000 1.0
C      1  0.4383490000000  0.5022040000000  0.4460010000000 1.0
C      1  0.4690690000000  0.4292500000000  0.5087220000000 1.0
C      1  0.4353530000000  0.4965970000000  0.5474490000000 1.0
C      1  0.4457310000000  0.5438890000000  0.4189740000000 1.0
C      1  0.5498170000000  0.4793260000000  0.4424570000000 1.0
C      1  0.5309740000000  0.4794970000000  0.5276750000000 1.0
C      1  0.5600010000000  0.5826590000000  0.5031640000000 1.0
C      1  0.5026110000000  0.5698790000000  0.5545690000000 1.0
C      1  0.5346060000000  0.5224740000000  0.5075280000000 1.0
C      1  0.4731780000000  0.5084830000000  0.4772180000000 1.0
C      1  0.5294740000000  0.5199850000000  0.5408200000000 1.0
C      1  0.5000570000000  0.4836080000000  0.5416330000000 1.0
C      1  0.4616000000000  0.4824900000000  0.5593000000000 1.0
C      1  0.4959520000000  0.4639300000000  0.5675860000000 1.0
C      1  0.4864220000000  0.5327620000000  0.4943940000000 1.0
C      1  0.4671180000000  0.4373970000000  0.4812140000000 1.0
C      1  0.4619490000000  0.4550650000000  0.4217720000000 1.0
C      1  0.4516460000000  0.4791460000000  0.4332310000000 1.0
C      1  0.5506560000000  0.4484000000000  0.4858770000000 1.0
C      1  0.5281930000000  0.5607620000000  0.4398180000000 1.0
C      1  0.5069000000000  0.5127810000000  0.5783570000000 1.0
C      1  0.5451800000000  0.5394770000000  0.4799980000000 1.0
C      1  0.5271220000000  0.4665610000000  0.5652790000000 1.0
C      1  0.5307050000000  0.4960850000000  0.5639800000000 1.0
C      1  0.5598780000000  0.5401870000000  0.5218150000000 1.0
C      1  0.4354870000000  0.4474770000000  0.5408580000000 1.0
C      1  0.5096050000000  0.5092640000000  0.4930500000000 1.0
C      1  0.4871110000000  0.4482410000000  0.4336730000000 1.0
C      1  0.4905000000000  0.4299740000000  0.5285000000000 1.0
C      1  0.4833670000000  0.5701680000000  0.5304340000000 1.0
C      1  0.4785010000000  0.5820530000000  0.4772350000000 1.0
C      1  0.4241560000000  0.4732440000000  0.5319980000000 1.0
C      1  0.5309340000000  0.5708230000000  0.5500450000000 1.0
C      1  0.4240110000000  0.4753050000000  0.5040920000000 1.0
C      1  0.4485240000000  0.5265120000000  0.5374180000000 1.0
C      1  0.4447910000000  0.5086350000000  0.5110150000000 1.0
C      1  0.4570170000000  0.4526940000000  0.5586520000000 1.0
C      1  0.5716390000000  0.4273580000000  0.5231540000000 1.0
C      1  0.4869410000000  0.4546940000000  0.4644170000000 1.0
C      1  0.4491390000000  0.5288600000000  0.5695340000000 1.0
C      1  0.4965630000000  0.4876250000000  0.5091190000000 1.0
C      1  0.4231680000000  0.4639090000000  0.4750860000000 1.0
C      1  0.5483610000000  0.4275960000000  0.5056170000000 1.0
C      1  0.5358730000000  0.4834030000000  0.4733100000000 1.0
C      1  0.4737420000000  0.5233160000000  0.5826730000000 1.0
C      1  0.5003040000000  0.5316060000000  0.5437300000000 1.0
C      1  0.5438590000000  0.5448260000000  0.5579610000000 1.0
C      1  0.4420120000000  0.5500830000000  0.4684590000000 1.0
C      1  0.5184010000000  0.4838770000000  0.4367200000000 1.0
C      1  0.5503750000000  0.4760350000000  0.5014810000000 1.0
C      1  0.5778340000000  0.5126900000000  0.4848850000000 1.0
C      1  0.4219020000000  0.4937730000000  0.4677340000000 1.0
C      1  0.4966900000000  0.5828380000000  0.5041870000000 1.0
C      1  0.5775800000000  0.4903850000000  0.5011280000000 1.0
C      1  0.5462060000000  0.5120610000000  0.4333610000000 1.0
C      1  0.5119710000000  0.4638180000000  0.4786950000000 1.0
C      1  0.5292630000000  0.4477680000000  0.3729740000000 1.0
C      1  0.5675550000000  0.4461720000000  0.5447870000000 1.0
C      1  0.4763570000000  0.5378720000000  0.5237340000000 1.0
C      1  0.5378580000000  0.4445370000000  0.5511770000000 1.0
C      1  0.4217140000000  0.5124320000000  0.4895420000000 1.0
C      1  0.5123220000000  0.5150770000000  0.4251040000000 1.0
C      1  0.5088390000000  0.4603230000000  0.4211430000000 1.0
C      1  0.4402360000000  0.4414920000000  0.4713080000000 1.0
C      1  0.5113080000000  0.4583890000000  0.5095470000000 1.0
C      1  0.4841200000000  0.5232980000000  0.4422600000000 1.0
C      1  0.4189320000000  0.5388770000000  0.4806450000000 1.0
C      1  0.4702290000000  0.4941850000000  0.5284040000000 1.0
C      1  0.5022710000000  0.5011180000000  0.4608130000000 1.0
C      1  0.5726900000000  0.4992150000000  0.5503860000000 1.0
C      1  0.5680040000000  0.5264690000000  0.5492570000000 1.0
C      1  0.4427060000000  0.4278760000000  0.5212270000000 1.0
C      1  0.5235940000000  0.5550950000000  0.4660090000000 1.0
C      1  0.4534150000000  0.4849360000000  0.4905350000000 1.0
C      1  0.4668830000000  0.4790410000000  0.4617220000000 1.0
C      1  0.5193150000000  0.4538830000000  0.3964360000000 1.0
C      1  0.5501830000000  0.5700180000000  0.5271470000000 1.0
C      1  0.5807950000000  0.5373860000000  0.4978830000000 1.0
C      1  0.5327890000000  0.5404270000000  0.4223720000000 1.0
C      1  0.4967310000000  0.5450210000000  0.5737760000000 1.0
C      1  0.4994880000000  0.5579310000000  0.4820450000000 1.0
C      1  0.4531040000000  0.5310350000000  0.4435900000000 1.0
C      1  0.5684260000000  0.5623280000000  0.4847070000000 1.0
C      1  0.5223750000000  0.4325790000000  0.5246620000000 1.0
C      1  0.4823270000000  0.4383740000000  0.5547870000000 1.0
C      1  0.5602360000000  0.4760090000000  0.5413250000000 1.0
C      1  0.5556260000000  0.4517080000000  0.4591300000000 1.0
END
