TITL C-2778431-5191-89 0.00112709962305909 125000 -978.380249810854 0 0 168 (C1) n - 1
REM
REM in /home/nfs/bkarasulu/CARBON/AIRSS/Generating-Clusters/REBO/Only-C1/SD-CG/HFTN-CG
REM
REM
REM
REM
REM
REM ./C.cell (11c1c37f851c82e70ff6c80c92926a4b)
REM
REM compiler GCC version 9.2.1 20190827 (Red Hat 9.2.1-1)
REM options -cpp -mtune=generic -march=x86-64 -g -O0 -fpre-include=/usr/include/finclude/math-vector-fortran.h
REM seed 2013071313 650890328 -872588256 -1346532606 -424965082 -1373584531 916748133 1509409788 -1937930393 468492893 -601817514 -626722431 -1007752990 -1291195088 -203986619 -205897420 -932155606 250617131 -873419769 -1924637998 1541427931 -1392073967 -177706053 652480103 -817163893 -1508491626 -1870661669 -1444718814 2099717462 -173036931 -1111349525 290599551 -920064414
REM
CELL 1.54180   50.00000   50.00000   50.00000   90.00000   90.00000   90.00000
LATT -1
SFAC C  
C      1  0.4291920000000  0.5411540000000  0.4312880000000 1.0
C      1  0.4990560000000  0.5785100000000  0.4435970000000 1.0
C      1  0.5113060000000  0.4763200000000  0.4919730000000 1.0
C      1  0.4694810000000  0.5216360000000  0.5227620000000 1.0
C      1  0.4463350000000  0.4670610000000  0.4180570000000 1.0
C      1  0.4520800000000  0.4596080000000  0.5111910000000 1.0
C      1  0.4648710000000  0.5425220000000  0.3936770000000 1.0
C      1  0.5305490000000  0.5371020000000  0.4600630000000 1.0
C      1  0.4124740000000  0.5188420000000  0.4403790000000 1.0
C      1  0.5570150000000  0.4641690000000  0.4111390000000 1.0
C      1  0.5407280000000  0.5675110000000  0.5753820000000 1.0
C      1  0.4824200000000  0.5668800000000  0.4792880000000 1.0
C      1  0.4858030000000  0.4937380000000  0.4791550000000 1.0
C      1  0.4150310000000  0.5587940000000  0.4971510000000 1.0
C      1  0.5264890000000  0.5283840000000  0.3993950000000 1.0
C      1  0.4763570000000  0.5955960000000  0.4521570000000 1.0
C      1  0.5425570000000  0.6340470000000  0.5195420000000 1.0
C      1  0.4198380000000  0.4591880000000  0.5657460000000 1.0
C      1  0.5229230000000  0.5122460000000  0.4784960000000 1.0
C      1  0.5135010000000  0.6032320000000  0.4817690000000 1.0
C      1  0.5482180000000  0.5636390000000  0.4720920000000 1.0
C      1  0.4402370000000  0.5322100000000  0.6002400000000 1.0
C      1  0.4885050000000  0.5027030000000  0.5522270000000 1.0
C      1  0.4898620000000  0.5357720000000  0.5450280000000 1.0
C      1  0.5124260000000  0.5766390000000  0.5657850000000 1.0
C      1  0.5183990000000  0.3983300000000  0.4444840000000 1.0
C      1  0.4773050000000  0.4422330000000  0.5011710000000 1.0
C      1  0.5665670000000  0.4332320000000  0.4650320000000 1.0
C      1  0.5852080000000  0.5519740000000  0.4527350000000 1.0
C      1  0.5800160000000  0.5705350000000  0.4775610000000 1.0
C      1  0.5298270000000  0.4363820000000  0.4799450000000 1.0
C      1  0.4847130000000  0.5627540000000  0.5739430000000 1.0
C      1  0.4102870000000  0.4437330000000  0.5418740000000 1.0
C      1  0.4639320000000  0.5707890000000  0.5481500000000 1.0
C      1  0.4762260000000  0.5619830000000  0.5182490000000 1.0
C      1  0.4113340000000  0.5313840000000  0.4895630000000 1.0
C      1  0.4186220000000  0.4587870000000  0.4364390000000 1.0
C      1  0.5714560000000  0.4964820000000  0.5649010000000 1.0
C      1  0.5286370000000  0.5861550000000  0.4585390000000 1.0
C      1  0.4701260000000  0.4920370000000  0.5944290000000 1.0
C      1  0.4954860000000  0.5357210000000  0.3968580000000 1.0
C      1  0.4682950000000  0.4126320000000  0.4868030000000 1.0
C      1  0.4636510000000  0.5058300000000  0.4256410000000 1.0
C      1  0.4521860000000  0.5877430000000  0.4415730000000 1.0
C      1  0.4777270000000  0.4901080000000  0.5122710000000 1.0
C      1  0.5348890000000  0.4599890000000  0.5268350000000 1.0
C      1  0.4068870000000  0.4871150000000  0.4513840000000 1.0
C      1  0.5853930000000  0.5548140000000  0.5035920000000 1.0
C      1  0.4661450000000  0.4643440000000  0.6115360000000 1.0
C      1  0.4700620000000  0.4491260000000  0.4303800000000 1.0
C      1  0.4673650000000  0.4834960000000  0.5631260000000 1.0
C      1  0.5888190000000  0.5968840000000  0.4764710000000 1.0
C      1  0.5606240000000  0.5242950000000  0.4830380000000 1.0
C      1  0.4558540000000  0.5427660000000  0.5037920000000 1.0
C      1  0.5787090000000  0.4676800000000  0.4298920000000 1.0
C      1  0.5154290000000  0.5307460000000  0.5953190000000 1.0
C      1  0.6007300000000  0.4945010000000  0.5474910000000 1.0
C      1  0.3944650000000  0.4574800000000  0.4916410000000 1.0
C      1  0.5212270000000  0.5004760000000  0.5539610000000 1.0
C      1  0.5061220000000  0.4570480000000  0.5987900000000 1.0
C      1  0.5135720000000  0.4161170000000  0.5245650000000 1.0
C      1  0.4736610000000  0.4755830000000  0.4016670000000 1.0
C      1  0.5451300000000  0.4818080000000  0.5798250000000 1.0
C      1  0.5628930000000  0.5335920000000  0.4501520000000 1.0
C      1  0.6012460000000  0.4521860000000  0.4709390000000 1.0
C      1  0.4491970000000  0.5316650000000  0.4134400000000 1.0
C      1  0.4662210000000  0.4880690000000  0.4518020000000 1.0
C      1  0.5647530000000  0.4556530000000  0.5701560000000 1.0
C      1  0.5862890000000  0.4439110000000  0.5175390000000 1.0
C      1  0.5310720000000  0.6146540000000  0.5074280000000 1.0
C      1  0.4827280000000  0.4446740000000  0.4680460000000 1.0
C      1  0.4818890000000  0.4664550000000  0.5367800000000 1.0
C      1  0.4415450000000  0.5584070000000  0.4525750000000 1.0
C      1  0.5051150000000  0.5985620000000  0.5457170000000 1.0
C      1  0.4666960000000  0.5218730000000  0.5998500000000 1.0
C      1  0.4761200000000  0.4239230000000  0.4224980000000 1.0
C      1  0.5253030000000  0.4558010000000  0.5750470000000 1.0
C      1  0.5036170000000  0.5575460000000  0.5022370000000 1.0
C      1  0.5862150000000  0.5051130000000  0.4735490000000 1.0
C      1  0.4315280000000  0.5340650000000  0.5238220000000 1.0
C      1  0.4567910000000  0.5347620000000  0.4717450000000 1.0
C      1  0.5609750000000  0.5650120000000  0.5557940000000 1.0
C      1  0.6144720000000  0.4994380000000  0.5167910000000 1.0
C      1  0.5404210000000  0.4214590000000  0.4512680000000 1.0
C      1  0.3967050000000  0.4588290000000  0.5220370000000 1.0
C      1  0.5013080000000  0.4209510000000  0.4768950000000 1.0
C      1  0.5063520000000  0.5061820000000  0.5237720000000 1.0
C      1  0.5050030000000  0.3881510000000  0.4687450000000 1.0
C      1  0.4647430000000  0.4419780000000  0.5940730000000 1.0
C      1  0.5107600000000  0.4456430000000  0.5068580000000 1.0
C      1  0.4913480000000  0.4664140000000  0.4489030000000 1.0
C      1  0.5429470000000  0.4139350000000  0.5155150000000 1.0
C      1  0.5688670000000  0.5332240000000  0.5494810000000 1.0
C      1  0.4368790000000  0.5776500000000  0.4999480000000 1.0
C      1  0.4438370000000  0.4771760000000  0.5392930000000 1.0
C      1  0.5289790000000  0.4577410000000  0.4124880000000 1.0
C      1  0.4575150000000  0.5394150000000  0.5562000000000 1.0
C      1  0.5816720000000  0.5158910000000  0.5307820000000 1.0
C      1  0.5102680000000  0.4242440000000  0.5560000000000 1.0
C      1  0.5889060000000  0.4449790000000  0.4446470000000 1.0
C      1  0.5095690000000  0.4565860000000  0.5452820000000 1.0
C      1  0.5199120000000  0.5014450000000  0.5880820000000 1.0
C      1  0.3937950000000  0.4832690000000  0.4788390000000 1.0
C      1  0.5572560000000  0.4748280000000  0.5424310000000 1.0
C      1  0.4452770000000  0.4476870000000  0.5719900000000 1.0
C      1  0.5067280000000  0.4745950000000  0.4070310000000 1.0
C      1  0.5054960000000  0.5567830000000  0.4180510000000 1.0
C      1  0.4423480000000  0.4154750000000  0.4668260000000 1.0
C      1  0.4900920000000  0.5919130000000  0.5267140000000 1.0
C      1  0.5182750000000  0.5493910000000  0.5475770000000 1.0
C      1  0.4138920000000  0.5410520000000  0.5520900000000 1.0
C      1  0.5030950000000  0.5459110000000  0.4499410000000 1.0
C      1  0.4527540000000  0.4441830000000  0.4682340000000 1.0
C      1  0.4035140000000  0.5160950000000  0.5331310000000 1.0
C      1  0.4151070000000  0.4844700000000  0.5125370000000 1.0
C      1  0.4650220000000  0.6060580000000  0.5003700000000 1.0
C      1  0.4994150000000  0.4839950000000  0.6018540000000 1.0
C      1  0.5964890000000  0.5234610000000  0.5005130000000 1.0
C      1  0.5890590000000  0.4769640000000  0.5136270000000 1.0
C      1  0.4611420000000  0.4406410000000  0.5448890000000 1.0
C      1  0.5366950000000  0.5610920000000  0.5243950000000 1.0
C      1  0.4557580000000  0.5738120000000  0.4786220000000 1.0
C      1  0.4863420000000  0.3877660000000  0.4928710000000 1.0
C      1  0.5228740000000  0.5824560000000  0.5059530000000 1.0
C      1  0.4357640000000  0.5151540000000  0.4834480000000 1.0
C      1  0.5431970000000  0.4309320000000  0.5619100000000 1.0
C      1  0.5829000000000  0.4742630000000  0.4823420000000 1.0
C      1  0.5618040000000  0.5242920000000  0.5811730000000 1.0
C      1  0.4981340000000  0.3901880000000  0.5174940000000 1.0
C      1  0.4177710000000  0.4318550000000  0.4535010000000 1.0
C      1  0.4829650000000  0.6067780000000  0.4776560000000 1.0
C      1  0.5076740000000  0.5065330000000  0.4483790000000 1.0
C      1  0.4338950000000  0.4303730000000  0.5311560000000 1.0
C      1  0.4127380000000  0.4372080000000  0.4825550000000 1.0
C      1  0.3946090000000  0.5080650000000  0.5011330000000 1.0
C      1  0.4444810000000  0.4902370000000  0.5015350000000 1.0
C      1  0.4326760000000  0.4950470000000  0.4300340000000 1.0
C      1  0.5622700000000  0.3926720000000  0.5009770000000 1.0
C      1  0.5587450000000  0.4363170000000  0.5321490000000 1.0
C      1  0.5891630000000  0.4643370000000  0.5496350000000 1.0
C      1  0.5311030000000  0.5127800000000  0.4273970000000 1.0
C      1  0.5371300000000  0.5268520000000  0.5569540000000 1.0
C      1  0.4424730000000  0.4680990000000  0.4576560000000 1.0
C      1  0.5345010000000  0.5715990000000  0.4283660000000 1.0
C      1  0.4318530000000  0.5413800000000  0.5751070000000 1.0
C      1  0.4123220000000  0.4862910000000  0.5465590000000 1.0
C      1  0.5419590000000  0.4889280000000  0.4892500000000 1.0
C      1  0.5698510000000  0.5648410000000  0.5254060000000 1.0
C      1  0.5729280000000  0.4900610000000  0.4471510000000 1.0
C      1  0.5691540000000  0.4241960000000  0.4955440000000 1.0
C      1  0.4501670000000  0.5911580000000  0.5244720000000 1.0
C      1  0.5176020000000  0.4773640000000  0.4598090000000 1.0
C      1  0.5454750000000  0.5424700000000  0.4234750000000 1.0
C      1  0.5648700000000  0.5001520000000  0.5068880000000 1.0
C      1  0.5408190000000  0.5435960000000  0.4979670000000 1.0
C      1  0.4822300000000  0.5233040000000  0.4624000000000 1.0
C      1  0.6071650000000  0.4361610000000  0.4929790000000 1.0
C      1  0.5529250000000  0.4610650000000  0.4787860000000 1.0
C      1  0.5399250000000  0.5446860000000  0.5925090000000 1.0
C      1  0.5015450000000  0.4123340000000  0.4226880000000 1.0
C      1  0.4337400000000  0.4329660000000  0.5015320000000 1.0
C      1  0.4810760000000  0.4301240000000  0.5692380000000 1.0
C      1  0.5134200000000  0.5269090000000  0.5044050000000 1.0
C      1  0.5443060000000  0.4920160000000  0.4472430000000 1.0
C      1  0.4880870000000  0.5398860000000  0.5914960000000 1.0
C      1  0.4904540000000  0.5046950000000  0.4068830000000 1.0
C      1  0.4459720000000  0.5099800000000  0.5426300000000 1.0
C      1  0.5247430000000  0.4321080000000  0.4244260000000 1.0
END
