TITL C-2778434-4341-582 0.00182248047363065 125000 -1042.3557074132 0 0 181 (C1) n - 1
REM
REM in /home/nfs/bkarasulu/CARBON/AIRSS/Generating-Clusters/REBO/Only-C1/SD-CG/HFTN-CG
REM
REM
REM
REM
REM
REM ./C.cell (11c1c37f851c82e70ff6c80c92926a4b)
REM
REM compiler GCC version 9.2.1 20190827 (Red Hat 9.2.1-1)
REM options -cpp -mtune=generic -march=x86-64 -g -O0 -fpre-include=/usr/include/finclude/math-vector-fortran.h
REM seed -988621667 419993311 2146650959 -1862719541 162304540 1360052158 -1183084839 2053974340 453086021 803427538 2023350268 1278084177 -572245044 -1894820117 -355525951 -1122935023 -1749430523 1365596641 -1301173574 -716560787 -48522178 -983770393 1591885298 1360546659 1530801179 1643488837 -1333698738 -752926580 1540306362 364375314 661072966 -216774845 -533899553
REM
CELL 1.54180   50.00000   50.00000   50.00000   90.00000   90.00000   90.00000
LATT -1
SFAC C  
C      1  0.5800240000000  0.5677480000000  0.5208930000000 1.0
C      1  0.5386360000000  0.5375300000000  0.5420430000000 1.0
C      1  0.4349600000000  0.4996510000000  0.5022050000000 1.0
C      1  0.5734160000000  0.4407580000000  0.4731750000000 1.0
C      1  0.5340680000000  0.4345760000000  0.4316330000000 1.0
C      1  0.4580000000000  0.4243040000000  0.4721490000000 1.0
C      1  0.4642430000000  0.5117720000000  0.5573780000000 1.0
C      1  0.4721700000000  0.5434430000000  0.5499170000000 1.0
C      1  0.5627070000000  0.4525490000000  0.5693690000000 1.0
C      1  0.4446180000000  0.5151630000000  0.5845510000000 1.0
C      1  0.4679540000000  0.4956910000000  0.4804210000000 1.0
C      1  0.4619240000000  0.4513960000000  0.4863380000000 1.0
C      1  0.5379910000000  0.5232670000000  0.4579410000000 1.0
C      1  0.5049500000000  0.5377050000000  0.5414860000000 1.0
C      1  0.4364390000000  0.4681380000000  0.4890600000000 1.0
C      1  0.5078770000000  0.3873240000000  0.4821940000000 1.0
C      1  0.4696450000000  0.4587590000000  0.4377630000000 1.0
C      1  0.5058580000000  0.5486970000000  0.5032100000000 1.0
C      1  0.4464020000000  0.4985460000000  0.4127860000000 1.0
C      1  0.4996740000000  0.5671900000000  0.4811820000000 1.0
C      1  0.4256130000000  0.5185990000000  0.5499780000000 1.0
C      1  0.5667570000000  0.5640490000000  0.4472140000000 1.0
C      1  0.5648450000000  0.5345040000000  0.5720200000000 1.0
C      1  0.5483200000000  0.5635540000000  0.5237260000000 1.0
C      1  0.5522600000000  0.5062000000000  0.5864560000000 1.0
C      1  0.4356640000000  0.5276780000000  0.4165420000000 1.0
C      1  0.4225600000000  0.4860740000000  0.5603520000000 1.0
C      1  0.4502240000000  0.4637920000000  0.5558890000000 1.0
C      1  0.5972430000000  0.5423290000000  0.5217660000000 1.0
C      1  0.4571860000000  0.4662990000000  0.4086660000000 1.0
C      1  0.4463120000000  0.4820750000000  0.5826780000000 1.0
C      1  0.4196750000000  0.5315140000000  0.4798050000000 1.0
C      1  0.4557720000000  0.4019730000000  0.5417740000000 1.0
C      1  0.4337760000000  0.5897880000000  0.4704160000000 1.0
C      1  0.4995920000000  0.4725290000000  0.6028910000000 1.0
C      1  0.4962030000000  0.5121010000000  0.5696350000000 1.0
C      1  0.4343580000000  0.5335940000000  0.5994680000000 1.0
C      1  0.4766000000000  0.4488140000000  0.5939160000000 1.0
C      1  0.4951100000000  0.4273770000000  0.4284170000000 1.0
C      1  0.3887290000000  0.5215940000000  0.4779870000000 1.0
C      1  0.6015630000000  0.5102220000000  0.5124620000000 1.0
C      1  0.4836600000000  0.5258290000000  0.5054760000000 1.0
C      1  0.5623190000000  0.4493770000000  0.5360210000000 1.0
C      1  0.5875410000000  0.5241890000000  0.5488400000000 1.0
C      1  0.4277070000000  0.5450140000000  0.5166430000000 1.0
C      1  0.4707870000000  0.5688350000000  0.4266190000000 1.0
C      1  0.5303870000000  0.5107670000000  0.5073390000000 1.0
C      1  0.5824230000000  0.4639710000000  0.4499510000000 1.0
C      1  0.5589750000000  0.4879250000000  0.5513190000000 1.0
C      1  0.4085300000000  0.4410080000000  0.4806660000000 1.0
C      1  0.5191380000000  0.4672760000000  0.5770330000000 1.0
C      1  0.5697250000000  0.5248320000000  0.4538800000000 1.0
C      1  0.5118060000000  0.4398340000000  0.4955990000000 1.0
C      1  0.5504870000000  0.4888600000000  0.4419850000000 1.0
C      1  0.5125440000000  0.4504320000000  0.4102820000000 1.0
C      1  0.4661240000000  0.5383800000000  0.4146390000000 1.0
C      1  0.4969950000000  0.5986980000000  0.4926270000000 1.0
C      1  0.4059430000000  0.4789710000000  0.4488220000000 1.0
C      1  0.4794730000000  0.5008760000000  0.4116110000000 1.0
C      1  0.5284260000000  0.5998290000000  0.4983080000000 1.0
C      1  0.5535640000000  0.5557950000000  0.4229580000000 1.0
C      1  0.5370600000000  0.4600450000000  0.4504000000000 1.0
C      1  0.4901480000000  0.4723620000000  0.4005280000000 1.0
C      1  0.4881590000000  0.5003340000000  0.4423050000000 1.0
C      1  0.5428820000000  0.4145480000000  0.5154690000000 1.0
C      1  0.6049460000000  0.5348150000000  0.4891880000000 1.0
C      1  0.5593980000000  0.5152330000000  0.5342790000000 1.0
C      1  0.4235430000000  0.5465940000000  0.4337080000000 1.0
C      1  0.5687790000000  0.4338890000000  0.5062180000000 1.0
C      1  0.4366870000000  0.4247810000000  0.5427480000000 1.0
C      1  0.4576610000000  0.4876110000000  0.4422820000000 1.0
C      1  0.5540400000000  0.4883170000000  0.5134870000000 1.0
C      1  0.4464820000000  0.4000000000000  0.4900220000000 1.0
C      1  0.4500580000000  0.5566980000000  0.4857800000000 1.0
C      1  0.5195110000000  0.5829220000000  0.4219420000000 1.0
C      1  0.5368650000000  0.5492870000000  0.4994950000000 1.0
C      1  0.4643820000000  0.4194450000000  0.4406990000000 1.0
C      1  0.4909200000000  0.4806930000000  0.5649400000000 1.0
C      1  0.6041220000000  0.4792420000000  0.5123100000000 1.0
C      1  0.5444980000000  0.5531130000000  0.4683790000000 1.0
C      1  0.5062960000000  0.5545510000000  0.5930570000000 1.0
C      1  0.5501100000000  0.4959680000000  0.4114290000000 1.0
C      1  0.5174290000000  0.4080660000000  0.4437930000000 1.0
C      1  0.5248020000000  0.4893270000000  0.4743230000000 1.0
C      1  0.5550830000000  0.5623150000000  0.5686520000000 1.0
C      1  0.4479840000000  0.4993160000000  0.5327840000000 1.0
C      1  0.4884030000000  0.4027900000000  0.4589130000000 1.0
C      1  0.5244850000000  0.5222380000000  0.3959820000000 1.0
C      1  0.4321360000000  0.4318580000000  0.5708930000000 1.0
C      1  0.5122020000000  0.4000510000000  0.5108510000000 1.0
C      1  0.4855300000000  0.4673080000000  0.4732990000000 1.0
C      1  0.4924360000000  0.5903340000000  0.4341270000000 1.0
C      1  0.5874820000000  0.4715200000000  0.5409430000000 1.0
C      1  0.4491310000000  0.4430660000000  0.5904870000000 1.0
C      1  0.4674510000000  0.5647640000000  0.5233430000000 1.0
C      1  0.5150400000000  0.5629750000000  0.4569530000000 1.0
C      1  0.4530470000000  0.5287640000000  0.5031030000000 1.0
C      1  0.5721190000000  0.5776330000000  0.5523780000000 1.0
C      1  0.5482110000000  0.5917480000000  0.4779000000000 1.0
C      1  0.5383750000000  0.4447540000000  0.5832040000000 1.0
C      1  0.4842540000000  0.4678310000000  0.5360870000000 1.0
C      1  0.5449860000000  0.4558020000000  0.4816980000000 1.0
C      1  0.4209430000000  0.5621150000000  0.4769830000000 1.0
C      1  0.5434590000000  0.4643530000000  0.4071360000000 1.0
C      1  0.5783180000000  0.5052760000000  0.4874950000000 1.0
C      1  0.5749840000000  0.5138250000000  0.4228640000000 1.0
C      1  0.4470570000000  0.5816180000000  0.5525130000000 1.0
C      1  0.5352190000000  0.5876450000000  0.4509270000000 1.0
C      1  0.4920350000000  0.5288000000000  0.4006080000000 1.0
C      1  0.3998400000000  0.4601340000000  0.5026410000000 1.0
C      1  0.4866410000000  0.4203280000000  0.4881420000000 1.0
C      1  0.5272270000000  0.5223420000000  0.5703380000000 1.0
C      1  0.5147510000000  0.5256760000000  0.6022090000000 1.0
C      1  0.4421870000000  0.4433350000000  0.4303070000000 1.0
C      1  0.5134260000000  0.5078300000000  0.5338880000000 1.0
C      1  0.5283060000000  0.4867560000000  0.5523480000000 1.0
C      1  0.4451850000000  0.5685430000000  0.4463570000000 1.0
C      1  0.5360880000000  0.4545750000000  0.5145320000000 1.0
C      1  0.5139990000000  0.5186890000000  0.4785050000000 1.0
C      1  0.4990190000000  0.5509530000000  0.4331060000000 1.0
C      1  0.4740720000000  0.4901290000000  0.5939680000000 1.0
C      1  0.4855440000000  0.4189910000000  0.5217780000000 1.0
C      1  0.5245080000000  0.4161190000000  0.4764260000000 1.0
C      1  0.4811940000000  0.4000890000000  0.5574600000000 1.0
C      1  0.4699620000000  0.4760780000000  0.5087680000000 1.0
C      1  0.4855810000000  0.5982170000000  0.4606570000000 1.0
C      1  0.4033580000000  0.4890400000000  0.4952580000000 1.0
C      1  0.4010230000000  0.5073780000000  0.5321520000000 1.0
C      1  0.4736670000000  0.5971000000000  0.5142420000000 1.0
C      1  0.4732070000000  0.4402490000000  0.5455720000000 1.0
C      1  0.5288160000000  0.5353680000000  0.4316560000000 1.0
C      1  0.5554010000000  0.5327580000000  0.4024410000000 1.0
C      1  0.4023130000000  0.5266750000000  0.5087530000000 1.0
C      1  0.4170430000000  0.4503140000000  0.4522580000000 1.0
C      1  0.4443530000000  0.5982740000000  0.4968190000000 1.0
C      1  0.4243360000000  0.4190270000000  0.4928600000000 1.0
C      1  0.4359630000000  0.4681030000000  0.5282090000000 1.0
C      1  0.5759490000000  0.4670700000000  0.5031510000000 1.0
C      1  0.5739380000000  0.4820100000000  0.5800890000000 1.0
C      1  0.4337450000000  0.4416890000000  0.5129260000000 1.0
C      1  0.4905820000000  0.4287240000000  0.5732670000000 1.0
C      1  0.5155940000000  0.4365790000000  0.5516440000000 1.0
C      1  0.4747220000000  0.5518500000000  0.5817360000000 1.0
C      1  0.4844500000000  0.5216140000000  0.4658940000000 1.0
C      1  0.5253160000000  0.4949760000000  0.6042110000000 1.0
C      1  0.5572070000000  0.4866290000000  0.4737990000000 1.0
C      1  0.4437030000000  0.5159430000000  0.4667720000000 1.0
C      1  0.5202250000000  0.4883040000000  0.3978290000000 1.0
C      1  0.5207510000000  0.4232660000000  0.5889480000000 1.0
C      1  0.5343750000000  0.5902700000000  0.5245070000000 1.0
C      1  0.5295940000000  0.4131070000000  0.5437810000000 1.0
C      1  0.4982660000000  0.5652620000000  0.5289340000000 1.0
C      1  0.4366610000000  0.5768590000000  0.5204280000000 1.0
C      1  0.4909350000000  0.5803940000000  0.5768280000000 1.0
C      1  0.4598660000000  0.5374710000000  0.4484300000000 1.0
C      1  0.5987110000000  0.4723210000000  0.4788270000000 1.0
C      1  0.4784730000000  0.5939820000000  0.5481680000000 1.0
C      1  0.4340710000000  0.4850550000000  0.4622830000000 1.0
C      1  0.4932070000000  0.4978790000000  0.5117260000000 1.0
C      1  0.5705860000000  0.5750940000000  0.4889680000000 1.0
C      1  0.5248600000000  0.5736060000000  0.5726120000000 1.0
C      1  0.5054710000000  0.3918200000000  0.5432800000000 1.0
C      1  0.4044420000000  0.4757270000000  0.5328410000000 1.0
C      1  0.4977790000000  0.4536500000000  0.4472430000000 1.0
C      1  0.3890030000000  0.4936070000000  0.4678750000000 1.0
C      1  0.4812790000000  0.5231250000000  0.5981510000000 1.0
C      1  0.5143610000000  0.5550180000000  0.4024960000000 1.0
C      1  0.5562250000000  0.5244100000000  0.4934750000000 1.0
C      1  0.5505540000000  0.4234850000000  0.4588980000000 1.0
C      1  0.5675960000000  0.4571270000000  0.4248020000000 1.0
C      1  0.5968700000000  0.4966290000000  0.5604390000000 1.0
C      1  0.5840860000000  0.5489950000000  0.4718470000000 1.0
C      1  0.4619480000000  0.3953940000000  0.5128600000000 1.0
C      1  0.6096240000000  0.5045040000000  0.4739990000000 1.0
C      1  0.5115090000000  0.4822080000000  0.4468590000000 1.0
C      1  0.5888420000000  0.4970230000000  0.4491040000000 1.0
C      1  0.4373920000000  0.5490320000000  0.5489360000000 1.0
C      1  0.5073460000000  0.4736500000000  0.4948140000000 1.0
C      1  0.5155010000000  0.4629270000000  0.5369710000000 1.0
C      1  0.4695230000000  0.5739100000000  0.4775780000000 1.0
C      1  0.5122250000000  0.5886250000000  0.5448490000000 1.0
END
