TITL C-2778432-5617-1 -0.000955610246815159 125000 -917.79351380756 0 0 155 (C1) n - 1
REM
REM in /home/nfs/bkarasulu/CARBON/AIRSS/Generating-Clusters/REBO/Only-C1/SD-CG/HFTN-CG
REM
REM
REM
REM
REM
REM ./C.cell (11c1c37f851c82e70ff6c80c92926a4b)
REM
REM compiler GCC version 9.2.1 20190827 (Red Hat 9.2.1-1)
REM options -cpp -mtune=generic -march=x86-64 -g -O0 -fpre-include=/usr/include/finclude/math-vector-fortran.h
REM seed 1372695776 1772591139 493401597 648497491 -2050821883 -413147396 -828767011 1151301900 105520071 -785441871 -358196539 1524858494 917143871 1020451797 -2026714730 -545638431 70077857 1075039863 -1437315218 1717858835 177730976 486251021 -1485796630 116575483 845201946 -1153397516 344120640 -88158131 481808350 -86057567 171269723 113012726 1628015283
REM
CELL 1.54180   50.00000   50.00000   50.00000   90.00000   90.00000   90.00000
LATT -1
SFAC C  
C      1  0.4920750000000  0.4348150000000  0.4784810000000 1.0
C      1  0.5509740000000  0.4828140000000  0.4632700000000 1.0
C      1  0.5665510000000  0.5496920000000  0.5075300000000 1.0
C      1  0.4956130000000  0.5681890000000  0.5174300000000 1.0
C      1  0.5746610000000  0.5364440000000  0.4518470000000 1.0
C      1  0.4797100000000  0.6202690000000  0.4120510000000 1.0
C      1  0.4159340000000  0.4852450000000  0.4697850000000 1.0
C      1  0.5134260000000  0.4166820000000  0.5886170000000 1.0
C      1  0.5378460000000  0.5219430000000  0.5061360000000 1.0
C      1  0.4807150000000  0.4361860000000  0.5073170000000 1.0
C      1  0.4834900000000  0.4093760000000  0.4591910000000 1.0
C      1  0.4070640000000  0.4613350000000  0.4998510000000 1.0
C      1  0.4852470000000  0.4546660000000  0.5984070000000 1.0
C      1  0.4425960000000  0.5005520000000  0.5104620000000 1.0
C      1  0.5187290000000  0.4312140000000  0.4250970000000 1.0
C      1  0.4697530000000  0.4287080000000  0.4382120000000 1.0
C      1  0.4474260000000  0.4316900000000  0.4858480000000 1.0
C      1  0.5813380000000  0.4913860000000  0.5535350000000 1.0
C      1  0.5746470000000  0.4756050000000  0.5303500000000 1.0
C      1  0.5181090000000  0.5741540000000  0.4980330000000 1.0
C      1  0.5141870000000  0.4719930000000  0.4509930000000 1.0
C      1  0.5145920000000  0.4025900000000  0.4718630000000 1.0
C      1  0.4637910000000  0.4074420000000  0.4853150000000 1.0
C      1  0.4771540000000  0.5551430000000  0.5661590000000 1.0
C      1  0.4497480000000  0.5609970000000  0.5630240000000 1.0
C      1  0.4966360000000  0.4290280000000  0.5432630000000 1.0
C      1  0.5061930000000  0.6082020000000  0.4274760000000 1.0
C      1  0.4534300000000  0.5122770000000  0.5737870000000 1.0
C      1  0.4386680000000  0.5046630000000  0.4634990000000 1.0
C      1  0.4460670000000  0.5563840000000  0.4622460000000 1.0
C      1  0.4143860000000  0.5444560000000  0.4302470000000 1.0
C      1  0.4772880000000  0.4733190000000  0.4323100000000 1.0
C      1  0.4049180000000  0.5232490000000  0.5140360000000 1.0
C      1  0.5185920000000  0.5204310000000  0.4591540000000 1.0
C      1  0.4829080000000  0.5262550000000  0.4754990000000 1.0
C      1  0.5768840000000  0.5247050000000  0.4979660000000 1.0
C      1  0.4692470000000  0.4752050000000  0.5443090000000 1.0
C      1  0.4690340000000  0.5074140000000  0.6008250000000 1.0
C      1  0.5902080000000  0.5074590000000  0.4506700000000 1.0
C      1  0.4171320000000  0.4770400000000  0.5497900000000 1.0
C      1  0.5627860000000  0.4272080000000  0.4520700000000 1.0
C      1  0.4673450000000  0.4261690000000  0.5545960000000 1.0
C      1  0.5930230000000  0.5178590000000  0.5550670000000 1.0
C      1  0.4238270000000  0.5787690000000  0.4865570000000 1.0
C      1  0.5608190000000  0.4611970000000  0.4312550000000 1.0
C      1  0.5411900000000  0.4955230000000  0.4332880000000 1.0
C      1  0.4700440000000  0.5055290000000  0.4548060000000 1.0
C      1  0.5221940000000  0.4413160000000  0.4773360000000 1.0
C      1  0.4427040000000  0.4405590000000  0.4451080000000 1.0
C      1  0.5897130000000  0.4554000000000  0.4858300000000 1.0
C      1  0.4872390000000  0.5260030000000  0.5350800000000 1.0
C      1  0.4117330000000  0.5758050000000  0.5159180000000 1.0
C      1  0.4951180000000  0.5169210000000  0.5986160000000 1.0
C      1  0.4614670000000  0.4227890000000  0.5240520000000 1.0
C      1  0.5377040000000  0.5996370000000  0.4977500000000 1.0
C      1  0.5797650000000  0.4854960000000  0.4350850000000 1.0
C      1  0.4442660000000  0.5065380000000  0.4323980000000 1.0
C      1  0.5580530000000  0.5600940000000  0.4619140000000 1.0
C      1  0.5571700000000  0.5001530000000  0.4900190000000 1.0
C      1  0.5506370000000  0.5415520000000  0.5718480000000 1.0
C      1  0.5648540000000  0.4364900000000  0.5641520000000 1.0
C      1  0.4638060000000  0.4617140000000  0.4846130000000 1.0
C      1  0.4368830000000  0.4508740000000  0.5096860000000 1.0
C      1  0.5003590000000  0.4714290000000  0.4135320000000 1.0
C      1  0.5676460000000  0.4572390000000  0.5096420000000 1.0
C      1  0.5008920000000  0.4736500000000  0.5845860000000 1.0
C      1  0.4295980000000  0.5426110000000  0.5273090000000 1.0
C      1  0.5332520000000  0.5661920000000  0.4391940000000 1.0
C      1  0.4287550000000  0.5436570000000  0.5729130000000 1.0
C      1  0.4953960000000  0.4769750000000  0.5566210000000 1.0
C      1  0.3956140000000  0.5062930000000  0.4607290000000 1.0
C      1  0.5396670000000  0.6091780000000  0.4720960000000 1.0
C      1  0.4214540000000  0.4440550000000  0.5568610000000 1.0
C      1  0.4716430000000  0.5487290000000  0.5062120000000 1.0
C      1  0.4398900000000  0.5729950000000  0.5347800000000 1.0
C      1  0.4838120000000  0.4620730000000  0.4607630000000 1.0
C      1  0.6045360000000  0.5197270000000  0.4942150000000 1.0
C      1  0.5093000000000  0.5511010000000  0.4196720000000 1.0
C      1  0.5004820000000  0.5000330000000  0.4509380000000 1.0
C      1  0.6081120000000  0.5014340000000  0.4726870000000 1.0
C      1  0.6224100000000  0.5246820000000  0.5152940000000 1.0
C      1  0.5442550000000  0.5852780000000  0.5442720000000 1.0
C      1  0.5227740000000  0.5943300000000  0.4482140000000 1.0
C      1  0.5726290000000  0.4566060000000  0.4617370000000 1.0
C      1  0.5142350000000  0.5287760000000  0.4890390000000 1.0
C      1  0.6177710000000  0.5223050000000  0.5420520000000 1.0
C      1  0.5778530000000  0.4106380000000  0.5187260000000 1.0
C      1  0.5926750000000  0.4272360000000  0.5012160000000 1.0
C      1  0.4637670000000  0.5800590000000  0.5159510000000 1.0
C      1  0.5043360000000  0.4077790000000  0.5226390000000 1.0
C      1  0.5190770000000  0.4963400000000  0.5983750000000 1.0
C      1  0.5156710000000  0.4308100000000  0.5665210000000 1.0
C      1  0.4485330000000  0.5304610000000  0.5059480000000 1.0
C      1  0.5379690000000  0.4895010000000  0.5160170000000 1.0
C      1  0.4530320000000  0.5322880000000  0.3952140000000 1.0
C      1  0.5375060000000  0.4507390000000  0.5612830000000 1.0
C      1  0.5485900000000  0.6024790000000  0.5236460000000 1.0
C      1  0.4906010000000  0.4383820000000  0.4190850000000 1.0
C      1  0.4987810000000  0.4560500000000  0.5230930000000 1.0
C      1  0.5041960000000  0.5907870000000  0.4736830000000 1.0
C      1  0.4914560000000  0.3992110000000  0.4966830000000 1.0
C      1  0.5744620000000  0.5567840000000  0.5336780000000 1.0
C      1  0.5716200000000  0.4799270000000  0.5782130000000 1.0
C      1  0.4083930000000  0.4416070000000  0.5258320000000 1.0
C      1  0.5752500000000  0.5404460000000  0.5571450000000 1.0
C      1  0.5750050000000  0.4187270000000  0.5455140000000 1.0
C      1  0.5562790000000  0.3955040000000  0.5079010000000 1.0
C      1  0.5129700000000  0.5221960000000  0.5529670000000 1.0
C      1  0.4791850000000  0.5688800000000  0.4808470000000 1.0
C      1  0.4485430000000  0.4373290000000  0.5716370000000 1.0
C      1  0.5428940000000  0.5175640000000  0.5887970000000 1.0
C      1  0.5051510000000  0.5235550000000  0.4086590000000 1.0
C      1  0.4065730000000  0.5364170000000  0.4625310000000 1.0
C      1  0.4779770000000  0.6080000000000  0.4747510000000 1.0
C      1  0.4331440000000  0.4204210000000  0.5348570000000 1.0
C      1  0.5327590000000  0.4565980000000  0.4316950000000 1.0
C      1  0.4365030000000  0.5317680000000  0.4782590000000 1.0
C      1  0.5396240000000  0.4797930000000  0.5768280000000 1.0
C      1  0.5177020000000  0.4958260000000  0.4152040000000 1.0
C      1  0.4335170000000  0.5283750000000  0.4158810000000 1.0
C      1  0.4587680000000  0.4752250000000  0.5150800000000 1.0
C      1  0.4627330000000  0.5214470000000  0.5501440000000 1.0
C      1  0.4793860000000  0.5235440000000  0.3949140000000 1.0
C      1  0.4344460000000  0.4580960000000  0.4234340000000 1.0
C      1  0.6132180000000  0.4745650000000  0.4809000000000 1.0
C      1  0.5323730000000  0.4226030000000  0.4527480000000 1.0
C      1  0.4471730000000  0.4838620000000  0.5918390000000 1.0
C      1  0.4575230000000  0.4542900000000  0.5922310000000 1.0
C      1  0.5060870000000  0.4838950000000  0.5057870000000 1.0
C      1  0.4844470000000  0.5626440000000  0.4283640000000 1.0
C      1  0.5305780000000  0.5584090000000  0.5523540000000 1.0
C      1  0.4246720000000  0.4523990000000  0.4716270000000 1.0
C      1  0.5009010000000  0.5590950000000  0.5453840000000 1.0
C      1  0.4521910000000  0.4798190000000  0.4214690000000 1.0
C      1  0.4271380000000  0.5663870000000  0.4455330000000 1.0
C      1  0.4173080000000  0.5270730000000  0.5518260000000 1.0
C      1  0.5488410000000  0.5623000000000  0.4891560000000 1.0
C      1  0.5398380000000  0.5306300000000  0.5350390000000 1.0
C      1  0.5805020000000  0.4528580000000  0.5815350000000 1.0
C      1  0.5358760000000  0.5337370000000  0.4428750000000 1.0
C      1  0.4071780000000  0.5012880000000  0.5407870000000 1.0
C      1  0.5239780000000  0.4716760000000  0.5391470000000 1.0
C      1  0.5592760000000  0.5197130000000  0.4286150000000 1.0
C      1  0.4051160000000  0.5506430000000  0.4935990000000 1.0
C      1  0.5253820000000  0.4733510000000  0.4817570000000 1.0
C      1  0.4904600000000  0.5134480000000  0.5063050000000 1.0
C      1  0.4974330000000  0.5348910000000  0.5769040000000 1.0
C      1  0.5411030000000  0.5057290000000  0.5569620000000 1.0
C      1  0.4122740000000  0.4935490000000  0.5019510000000 1.0
C      1  0.4526440000000  0.5896470000000  0.4868560000000 1.0
C      1  0.5436540000000  0.4413880000000  0.5034650000000 1.0
C      1  0.4755940000000  0.5517800000000  0.4546550000000 1.0
C      1  0.4456940000000  0.4755840000000  0.5605330000000 1.0
C      1  0.5293460000000  0.4104800000000  0.5015680000000 1.0
C      1  0.4814840000000  0.5893220000000  0.4211000000000 1.0
END
