TITL C-2778434-4341-929 -0.00235986855684638 125000 -752.678180269057 0 0 127 (C1) n - 1
REM
REM in /home/nfs/bkarasulu/CARBON/AIRSS/Generating-Clusters/REBO/Only-C1/SD-CG/HFTN-CG
REM
REM
REM
REM
REM
REM ./C.cell (11c1c37f851c82e70ff6c80c92926a4b)
REM
REM compiler GCC version 9.2.1 20190827 (Red Hat 9.2.1-1)
REM options -cpp -mtune=generic -march=x86-64 -g -O0 -fpre-include=/usr/include/finclude/math-vector-fortran.h
REM seed 2035339366 -638320417 -1970628578 -811941912 -483005339 -211657746 -1991676630 -421055200 -1031308836 -1071539610 -1119170249 687154474 -922455631 -235647192 -844415836 1137833155 281081777 -309059753 785889362 1029994298 1281258358 782408529 402158569 -138258811 722515013 -863415137 -150649761 294613526 284544748 911946705 -1929113408 634687823 1618132668
REM
CELL 1.54180   50.00000   50.00000   50.00000   90.00000   90.00000   90.00000
LATT -1
SFAC C  
C      1  0.4097200000000  0.5312450000000  0.5523420000000 1.0
C      1  0.4464110000000  0.4356800000000  0.4816010000000 1.0
C      1  0.5278880000000  0.4751730000000  0.4634310000000 1.0
C      1  0.5065530000000  0.4293460000000  0.5114860000000 1.0
C      1  0.5006490000000  0.4636010000000  0.5951480000000 1.0
C      1  0.5156500000000  0.4891130000000  0.4172850000000 1.0
C      1  0.4436840000000  0.4862930000000  0.5210170000000 1.0
C      1  0.4725470000000  0.4753100000000  0.5075930000000 1.0
C      1  0.4918150000000  0.4689720000000  0.4290270000000 1.0
C      1  0.5148150000000  0.5868120000000  0.4749140000000 1.0
C      1  0.4553230000000  0.5780480000000  0.5348060000000 1.0
C      1  0.5367680000000  0.4749380000000  0.5124600000000 1.0
C      1  0.5250070000000  0.5899240000000  0.5017590000000 1.0
C      1  0.4042790000000  0.5178370000000  0.4534560000000 1.0
C      1  0.4172010000000  0.4700860000000  0.5066730000000 1.0
C      1  0.5191390000000  0.5693820000000  0.5478460000000 1.0
C      1  0.5706280000000  0.5104510000000  0.5479470000000 1.0
C      1  0.4815890000000  0.4785610000000  0.4573640000000 1.0
C      1  0.4084490000000  0.4795450000000  0.5383440000000 1.0
C      1  0.4713930000000  0.4441070000000  0.4994110000000 1.0
C      1  0.4978900000000  0.5238590000000  0.4291800000000 1.0
C      1  0.5524390000000  0.4233230000000  0.4829850000000 1.0
C      1  0.5162320000000  0.3812230000000  0.5281860000000 1.0
C      1  0.4755980000000  0.5946250000000  0.5206700000000 1.0
C      1  0.5429820000000  0.5367080000000  0.4717200000000 1.0
C      1  0.4935760000000  0.5938250000000  0.4563870000000 1.0
C      1  0.4552080000000  0.4384950000000  0.4507100000000 1.0
C      1  0.4507120000000  0.4850450000000  0.4565030000000 1.0
C      1  0.4361450000000  0.4623560000000  0.4368810000000 1.0
C      1  0.5228630000000  0.5539840000000  0.4374060000000 1.0
C      1  0.4719810000000  0.4728060000000  0.4014200000000 1.0
C      1  0.5330740000000  0.4653400000000  0.4342340000000 1.0
C      1  0.5122080000000  0.4957860000000  0.5965260000000 1.0
C      1  0.5956940000000  0.4864050000000  0.4741900000000 1.0
C      1  0.5045740000000  0.4635360000000  0.5102690000000 1.0
C      1  0.5590930000000  0.4905280000000  0.5682610000000 1.0
C      1  0.4927450000000  0.5400790000000  0.5799760000000 1.0
C      1  0.5466960000000  0.5410970000000  0.4242620000000 1.0
C      1  0.5525960000000  0.4190930000000  0.5326830000000 1.0
C      1  0.4588840000000  0.5277540000000  0.5489890000000 1.0
C      1  0.4498510000000  0.5394660000000  0.4259830000000 1.0
C      1  0.4592230000000  0.4485540000000  0.4182720000000 1.0
C      1  0.5376810000000  0.5072270000000  0.4573150000000 1.0
C      1  0.4420120000000  0.5254120000000  0.4887090000000 1.0
C      1  0.5526480000000  0.4458520000000  0.4363020000000 1.0
C      1  0.5649930000000  0.4263570000000  0.5087050000000 1.0
C      1  0.5464790000000  0.5677960000000  0.5381200000000 1.0
C      1  0.3952510000000  0.5006250000000  0.5196600000000 1.0
C      1  0.5690830000000  0.5542740000000  0.4680190000000 1.0
C      1  0.5191120000000  0.5004170000000  0.4989380000000 1.0
C      1  0.5094660000000  0.4973760000000  0.5310100000000 1.0
C      1  0.3945560000000  0.4905770000000  0.4652560000000 1.0
C      1  0.5103190000000  0.4037530000000  0.4636110000000 1.0
C      1  0.4764430000000  0.4269950000000  0.5249320000000 1.0
C      1  0.4661350000000  0.4321920000000  0.5501950000000 1.0
C      1  0.5224300000000  0.5431800000000  0.5178400000000 1.0
C      1  0.5224560000000  0.4233770000000  0.4826180000000 1.0
C      1  0.4758470000000  0.5449350000000  0.4975340000000 1.0
C      1  0.4593470000000  0.5740240000000  0.5620800000000 1.0
C      1  0.4570900000000  0.4953610000000  0.4845680000000 1.0
C      1  0.5288740000000  0.5152850000000  0.4295940000000 1.0
C      1  0.4552370000000  0.5941790000000  0.4983620000000 1.0
C      1  0.4028640000000  0.5276380000000  0.5247260000000 1.0
C      1  0.5218270000000  0.4273320000000  0.5560190000000 1.0
C      1  0.5634370000000  0.4914670000000  0.4708900000000 1.0
C      1  0.5497050000000  0.5788260000000  0.5120970000000 1.0
C      1  0.5651180000000  0.4634770000000  0.5577080000000 1.0
C      1  0.4539680000000  0.5059730000000  0.5819650000000 1.0
C      1  0.5639930000000  0.4941980000000  0.5197750000000 1.0
C      1  0.5031960000000  0.5828440000000  0.5231710000000 1.0
C      1  0.4799120000000  0.5749770000000  0.4389700000000 1.0
C      1  0.5953940000000  0.4962280000000  0.5061250000000 1.0
C      1  0.5243630000000  0.4727850000000  0.5758880000000 1.0
C      1  0.4987210000000  0.4153610000000  0.4411670000000 1.0
C      1  0.5039330000000  0.5562330000000  0.4979920000000 1.0
C      1  0.4797710000000  0.4483500000000  0.5772070000000 1.0
C      1  0.5804220000000  0.5504650000000  0.5264940000000 1.0
C      1  0.4699980000000  0.5490350000000  0.5672230000000 1.0
C      1  0.5951740000000  0.5370210000000  0.4569730000000 1.0
C      1  0.5506300000000  0.5127780000000  0.4946400000000 1.0
C      1  0.5111410000000  0.3766830000000  0.4689000000000 1.0
C      1  0.5825800000000  0.4490450000000  0.5097770000000 1.0
C      1  0.5835660000000  0.4627580000000  0.5347720000000 1.0
C      1  0.4554720000000  0.5659870000000  0.4812970000000 1.0
C      1  0.4154400000000  0.5427000000000  0.5003820000000 1.0
C      1  0.5510470000000  0.4380350000000  0.5582500000000 1.0
C      1  0.5167310000000  0.5504730000000  0.5699920000000 1.0
C      1  0.4502360000000  0.5512260000000  0.5179840000000 1.0
C      1  0.4963170000000  0.4985950000000  0.4776770000000 1.0
C      1  0.4499320000000  0.4556950000000  0.5646900000000 1.0
C      1  0.4963930000000  0.5565540000000  0.4248920000000 1.0
C      1  0.5503540000000  0.4647100000000  0.4858360000000 1.0
C      1  0.5407450000000  0.5078690000000  0.5835020000000 1.0
C      1  0.5621930000000  0.5410540000000  0.5509450000000 1.0
C      1  0.4814770000000  0.4483220000000  0.4679130000000 1.0
C      1  0.5106580000000  0.4531640000000  0.4797340000000 1.0
C      1  0.5785400000000  0.5317750000000  0.4995490000000 1.0
C      1  0.5714450000000  0.5452830000000  0.4360470000000 1.0
C      1  0.6012880000000  0.5183930000000  0.4807330000000 1.0
C      1  0.5401570000000  0.5343980000000  0.5731810000000 1.0
C      1  0.5026520000000  0.4474970000000  0.5541890000000 1.0
C      1  0.5281580000000  0.5228720000000  0.5307470000000 1.0
C      1  0.5832580000000  0.4579340000000  0.4790560000000 1.0
C      1  0.4834820000000  0.5183970000000  0.4559010000000 1.0
C      1  0.3937920000000  0.4876700000000  0.4922770000000 1.0
C      1  0.4352170000000  0.4739380000000  0.5513400000000 1.0
C      1  0.4781530000000  0.5144420000000  0.5017780000000 1.0
C      1  0.4321320000000  0.5203830000000  0.5657480000000 1.0
C      1  0.4884790000000  0.4359420000000  0.4286730000000 1.0
C      1  0.4201500000000  0.4895980000000  0.4444610000000 1.0
C      1  0.5653170000000  0.4374950000000  0.4608090000000 1.0
C      1  0.4049630000000  0.5385700000000  0.4702580000000 1.0
C      1  0.5993940000000  0.5049320000000  0.5344760000000 1.0
C      1  0.4551470000000  0.5605280000000  0.4500660000000 1.0
C      1  0.4875910000000  0.5110640000000  0.5874880000000 1.0
C      1  0.4854550000000  0.5014880000000  0.4067940000000 1.0
C      1  0.4432720000000  0.5178370000000  0.5209560000000 1.0
C      1  0.4290930000000  0.5723780000000  0.5018590000000 1.0
C      1  0.4604720000000  0.5307320000000  0.4634930000000 1.0
C      1  0.4225400000000  0.4438220000000  0.4924370000000 1.0
C      1  0.4617180000000  0.5229150000000  0.4122600000000 1.0
C      1  0.4799250000000  0.5068850000000  0.5321730000000 1.0
C      1  0.5223220000000  0.4079710000000  0.5300970000000 1.0
C      1  0.4753500000000  0.4937880000000  0.5615200000000 1.0
C      1  0.5200440000000  0.5562380000000  0.4688500000000 1.0
C      1  0.5732840000000  0.5656210000000  0.4968320000000 1.0
C      1  0.5152710000000  0.4738520000000  0.5474030000000 1.0
END
