TITL C-2778425-5191-148 -700.833663779206 125000 -972.875326174637 0 0 167 (C1) n - 1
REM
REM in /home/nfs/bkarasulu/CARBON/AIRSS/Generating-Clusters/REBO/Only-C1/SD-CG/HFTN-CG
REM
REM
REM
REM
REM
REM ./C.cell (11c1c37f851c82e70ff6c80c92926a4b)
REM
REM compiler GCC version 9.2.1 20190827 (Red Hat 9.2.1-1)
REM options -cpp -mtune=generic -march=x86-64 -g -O0 -fpre-include=/usr/include/finclude/math-vector-fortran.h
REM seed 421172530 767381928 -1659559039 688325697 201415920 1283248820 -53609551 -354693244 -1012247277 1033993037 -1824853225 -983410182 -1579461914 -398195982 525443689 2064520741 -411631032 1360895134 -854152954 1279370281 449930966 1894837126 1564541151 2034035744 -634034350 -238930802 -763392618 1775395648 -1669691166 1550513099 -1712949194 -1045435602 213216943
REM
CELL 1.54180   50.00000   50.00000   50.00000   90.00000   90.00000   90.00000
LATT -1
SFAC C  
C      1  0.4937600000000  0.4459810000000  0.4504250000000 1.0
C      1  0.5153700000000  0.4629480000000  0.4329880000000 1.0
C      1  0.4954260000000  0.5197720000000  0.5669550000000 1.0
C      1  0.4758650000000  0.4066770000000  0.5405300000000 1.0
C      1  0.5369280000000  0.4511880000000  0.4055360000000 1.0
C      1  0.5401120000000  0.4798740000000  0.4329990000000 1.0
C      1  0.5916040000000  0.5185230000000  0.5311050000000 1.0
C      1  0.5222960000000  0.4901730000000  0.4748950000000 1.0
C      1  0.5677920000000  0.5041770000000  0.4658590000000 1.0
C      1  0.5620570000000  0.5429460000000  0.4287810000000 1.0
C      1  0.5663140000000  0.5172290000000  0.4145210000000 1.0
C      1  0.4064010000000  0.5224560000000  0.5405190000000 1.0
C      1  0.4695090000000  0.4271800000000  0.3982370000000 1.0
C      1  0.5671150000000  0.4736280000000  0.4810860000000 1.0
C      1  0.4476680000000  0.4794930000000  0.4918050000000 1.0
C      1  0.5435710000000  0.5052360000000  0.4448890000000 1.0
C      1  0.5951590000000  0.4616870000000  0.4552650000000 1.0
C      1  0.5207000000000  0.4127670000000  0.5763830000000 1.0
C      1  0.4372030000000  0.4786820000000  0.5299190000000 1.0
C      1  0.4473500000000  0.4781100000000  0.4338560000000 1.0
C      1  0.5505590000000  0.5469470000000  0.4768350000000 1.0
C      1  0.4106690000000  0.4490740000000  0.5316690000000 1.0
C      1  0.4518190000000  0.4479390000000  0.5690380000000 1.0
C      1  0.4451210000000  0.4149500000000  0.5334550000000 1.0
C      1  0.5306160000000  0.5457670000000  0.5516400000000 1.0
C      1  0.4946360000000  0.5716670000000  0.5500410000000 1.0
C      1  0.4983470000000  0.4230760000000  0.5820090000000 1.0
C      1  0.5669970000000  0.4430260000000  0.5523930000000 1.0
C      1  0.4617970000000  0.5801290000000  0.5505630000000 1.0
C      1  0.4959070000000  0.4811460000000  0.4015170000000 1.0
C      1  0.5174820000000  0.4624740000000  0.5853550000000 1.0
C      1  0.4564170000000  0.5276150000000  0.5230600000000 1.0
C      1  0.5225820000000  0.4914160000000  0.5091650000000 1.0
C      1  0.4793180000000  0.5223250000000  0.6320410000000 1.0
C      1  0.4853850000000  0.4475170000000  0.5649520000000 1.0
C      1  0.4753310000000  0.4879750000000  0.5971200000000 1.0
C      1  0.4834800000000  0.5084470000000  0.4869750000000 1.0
C      1  0.5811740000000  0.4296320000000  0.4965960000000 1.0
C      1  0.5564560000000  0.4517800000000  0.5034500000000 1.0
C      1  0.4549780000000  0.4096520000000  0.4840690000000 1.0
C      1  0.5691680000000  0.5466780000000  0.5125980000000 1.0
C      1  0.5728800000000  0.4951690000000  0.5474980000000 1.0
C      1  0.5719090000000  0.5807380000000  0.4756940000000 1.0
C      1  0.4633160000000  0.5719020000000  0.4130100000000 1.0
C      1  0.4333070000000  0.5968470000000  0.4929500000000 1.0
C      1  0.5079780000000  0.5785670000000  0.5738510000000 1.0
C      1  0.4221020000000  0.5106560000000  0.5966090000000 1.0
C      1  0.5492050000000  0.4865970000000  0.5824430000000 1.0
C      1  0.5420570000000  0.5117160000000  0.5968740000000 1.0
C      1  0.4008500000000  0.5001990000000  0.4738430000000 1.0
C      1  0.4744440000000  0.5564950000000  0.5192260000000 1.0
C      1  0.5398300000000  0.5599240000000  0.4246160000000 1.0
C      1  0.4330070000000  0.4857470000000  0.5800380000000 1.0
C      1  0.5240400000000  0.4022760000000  0.5074560000000 1.0
C      1  0.5740000000000  0.5191280000000  0.4952360000000 1.0
C      1  0.4762480000000  0.4765210000000  0.4786250000000 1.0
C      1  0.5991000000000  0.5385340000000  0.4710320000000 1.0
C      1  0.4848540000000  0.5557440000000  0.5970580000000 1.0
C      1  0.5383870000000  0.4635740000000  0.4693780000000 1.0
C      1  0.5047400000000  0.5285480000000  0.4896320000000 1.0
C      1  0.5262210000000  0.4804720000000  0.3958010000000 1.0
C      1  0.5875640000000  0.4744240000000  0.4305030000000 1.0
C      1  0.5478970000000  0.4252310000000  0.4750690000000 1.0
C      1  0.4120090000000  0.4694910000000  0.4768530000000 1.0
C      1  0.5086330000000  0.5826890000000  0.5209330000000 1.0
C      1  0.4339890000000  0.5266810000000  0.4161830000000 1.0
C      1  0.5357030000000  0.5194070000000  0.4841620000000 1.0
C      1  0.5026030000000  0.5867160000000  0.4402300000000 1.0
C      1  0.5073000000000  0.4460560000000  0.5170230000000 1.0
C      1  0.5235130000000  0.5501900000000  0.4618350000000 1.0
C      1  0.4106470000000  0.4984370000000  0.5227090000000 1.0
C      1  0.5129210000000  0.5224860000000  0.5958970000000 1.0
C      1  0.4601070000000  0.4474000000000  0.4715550000000 1.0
C      1  0.5020010000000  0.5259740000000  0.3896540000000 1.0
C      1  0.5726890000000  0.5438470000000  0.4557460000000 1.0
C      1  0.4577700000000  0.5578220000000  0.4901650000000 1.0
C      1  0.4710310000000  0.5097240000000  0.4570450000000 1.0
C      1  0.5602500000000  0.5702000000000  0.5610220000000 1.0
C      1  0.4134170000000  0.5177760000000  0.5663350000000 1.0
C      1  0.5996480000000  0.4824520000000  0.4766130000000 1.0
C      1  0.4909960000000  0.4101740000000  0.5106540000000 1.0
C      1  0.4695550000000  0.4242980000000  0.4499060000000 1.0
C      1  0.4820840000000  0.3998790000000  0.4665240000000 1.0
C      1  0.5637810000000  0.4643270000000  0.4186790000000 1.0
C      1  0.4426080000000  0.5936700000000  0.5186850000000 1.0
C      1  0.5165580000000  0.4380500000000  0.4696120000000 1.0
C      1  0.4910880000000  0.5699250000000  0.4196820000000 1.0
C      1  0.5482530000000  0.5127000000000  0.5152790000000 1.0
C      1  0.4754340000000  0.5905980000000  0.5211290000000 1.0
C      1  0.5075910000000  0.5617740000000  0.4964110000000 1.0
C      1  0.5347390000000  0.4630980000000  0.5190270000000 1.0
C      1  0.4451770000000  0.5234150000000  0.5747690000000 1.0
C      1  0.4108720000000  0.5475720000000  0.5279960000000 1.0
C      1  0.4671850000000  0.5567200000000  0.5747160000000 1.0
C      1  0.5288510000000  0.5951380000000  0.4910220000000 1.0
C      1  0.4713900000000  0.5014390000000  0.5178710000000 1.0
C      1  0.5692650000000  0.4677320000000  0.5670490000000 1.0
C      1  0.4478750000000  0.5430880000000  0.5499190000000 1.0
C      1  0.5481840000000  0.4405730000000  0.4457540000000 1.0
C      1  0.6035210000000  0.5100360000000  0.4823110000000 1.0
C      1  0.5502050000000  0.5580100000000  0.5870470000000 1.0
C      1  0.4954350000000  0.4737040000000  0.5024680000000 1.0
C      1  0.5813650000000  0.4356690000000  0.5301330000000 1.0
C      1  0.5336500000000  0.5755660000000  0.5428510000000 1.0
C      1  0.5006640000000  0.5015570000000  0.5320880000000 1.0
C      1  0.5047630000000  0.5738580000000  0.4673940000000 1.0
C      1  0.5418540000000  0.4837180000000  0.5432980000000 1.0
C      1  0.5339170000000  0.5831500000000  0.4418810000000 1.0
C      1  0.3919480000000  0.5295360000000  0.4869790000000 1.0
C      1  0.5390630000000  0.4288470000000  0.5556610000000 1.0
C      1  0.4342750000000  0.4640320000000  0.4578900000000 1.0
C      1  0.5772140000000  0.4389100000000  0.4640020000000 1.0
C      1  0.4311070000000  0.5701630000000  0.5393120000000 1.0
C      1  0.4331270000000  0.4396230000000  0.5489780000000 1.0
C      1  0.4755480000000  0.5046980000000  0.3956400000000 1.0
C      1  0.5187540000000  0.5559340000000  0.5933950000000 1.0
C      1  0.4414470000000  0.4542160000000  0.5066470000000 1.0
C      1  0.4456700000000  0.5241980000000  0.4616960000000 1.0
C      1  0.5087450000000  0.3983250000000  0.5376780000000 1.0
C      1  0.5793320000000  0.5486250000000  0.5428500000000 1.0
C      1  0.5471250000000  0.5252350000000  0.5430400000000 1.0
C      1  0.4694920000000  0.5045220000000  0.5722200000000 1.0
C      1  0.5069000000000  0.4315650000000  0.5439020000000 1.0
C      1  0.5227040000000  0.4297280000000  0.4281090000000 1.0
C      1  0.5821160000000  0.5023980000000  0.4351940000000 1.0
C      1  0.4755350000000  0.5482250000000  0.6229830000000 1.0
C      1  0.4849670000000  0.4923460000000  0.4320910000000 1.0
C      1  0.4625410000000  0.4627140000000  0.5939770000000 1.0
C      1  0.4951000000000  0.4782620000000  0.5563060000000 1.0
C      1  0.4921670000000  0.5050860000000  0.6133260000000 1.0
C      1  0.4478320000000  0.5480670000000  0.4028020000000 1.0
C      1  0.4605870000000  0.4154720000000  0.4215210000000 1.0
C      1  0.5724810000000  0.5234560000000  0.5647590000000 1.0
C      1  0.4734990000000  0.5373620000000  0.3958100000000 1.0
C      1  0.5129390000000  0.4060360000000  0.4777850000000 1.0
C      1  0.5504760000000  0.4176670000000  0.5057750000000 1.0
C      1  0.5068450000000  0.4087890000000  0.4442790000000 1.0
C      1  0.4755230000000  0.4625210000000  0.4302000000000 1.0
C      1  0.4412970000000  0.5760330000000  0.4751790000000 1.0
C      1  0.4269990000000  0.5640180000000  0.4535180000000 1.0
C      1  0.5298070000000  0.4586300000000  0.5620340000000 1.0
C      1  0.4479220000000  0.5012050000000  0.4151690000000 1.0
C      1  0.4801880000000  0.4518400000000  0.4006900000000 1.0
C      1  0.5375280000000  0.5506600000000  0.5086490000000 1.0
C      1  0.4924150000000  0.5396610000000  0.5431560000000 1.0
C      1  0.3748900000000  0.5213220000000  0.4354210000000 1.0
C      1  0.4701690000000  0.4386040000000  0.5293270000000 1.0
C      1  0.5210470000000  0.4973070000000  0.5660470000000 1.0
C      1  0.6150850000000  0.5151040000000  0.5198700000000 1.0
C      1  0.5205740000000  0.5289830000000  0.4409810000000 1.0
C      1  0.4431310000000  0.4254680000000  0.5031970000000 1.0
C      1  0.5127780000000  0.5301380000000  0.5200600000000 1.0
C      1  0.3973360000000  0.5190400000000  0.4489540000000 1.0
C      1  0.4806790000000  0.4374200000000  0.4967820000000 1.0
C      1  0.5452000000000  0.5884620000000  0.4690100000000 1.0
C      1  0.5610590000000  0.5318870000000  0.5906920000000 1.0
C      1  0.4229100000000  0.5336080000000  0.4430460000000 1.0
C      1  0.4403680000000  0.5307610000000  0.4932350000000 1.0
C      1  0.5119450000000  0.5451560000000  0.4134880000000 1.0
C      1  0.4492120000000  0.4849960000000  0.5543830000000 1.0
C      1  0.4273820000000  0.5013350000000  0.4950900000000 1.0
C      1  0.5047310000000  0.5047350000000  0.4534110000000 1.0
C      1  0.4045610000000  0.4682360000000  0.5093870000000 1.0
C      1  0.5453400000000  0.5014750000000  0.3997730000000 1.0
C      1  0.5861000000000  0.5601600000000  0.4894790000000 1.0
C      1  0.4117960000000  0.5438180000000  0.4998310000000 1.0
C      1  0.4770250000000  0.4696200000000  0.5296830000000 1.0
END
