TITL C-2778436-5916-1431 0.00241256008771467 125000 -483.221578387524 0 0 85 (C1) n - 1
REM
REM in /home/nfs/bkarasulu/CARBON/AIRSS/Generating-Clusters/REBO/Only-C1/SD-CG/HFTN-CG
REM
REM
REM
REM
REM
REM ./C.cell (11c1c37f851c82e70ff6c80c92926a4b)
REM
REM compiler GCC version 9.2.1 20190827 (Red Hat 9.2.1-1)
REM options -cpp -mtune=generic -march=x86-64 -g -O0 -fpre-include=/usr/include/finclude/math-vector-fortran.h
REM seed -1041036745 908595740 -2047225333 802405403 45408579 263157971 76871750 59900830 -1271260239 -1286908991 -1559011766 -1088397284 499150539 1583170896 1043699502 1908553926 -635221951 -1331328561 -1502428296 281416725 1064823648 -1253745703 -1480521159 1636529520 -1143516358 -1631131562 -875058927 388877362 951802896 575196492 173282114 -678289518 -390908320
REM
CELL 1.54180   50.00000   50.00000   50.00000   90.00000   90.00000   90.00000
LATT -1
SFAC C  
C      1  0.5832780000000  0.4619050000000  0.5274100000000 1.0
C      1  0.4596080000000  0.5204390000000  0.5471760000000 1.0
C      1  0.4779610000000  0.5555010000000  0.5506860000000 1.0
C      1  0.5228370000000  0.4358740000000  0.4559880000000 1.0
C      1  0.5892280000000  0.4782490000000  0.4814420000000 1.0
C      1  0.5260370000000  0.4134230000000  0.4742490000000 1.0
C      1  0.5118830000000  0.4918090000000  0.4256850000000 1.0
C      1  0.4445340000000  0.5191370000000  0.4486620000000 1.0
C      1  0.5757470000000  0.5452150000000  0.5583260000000 1.0
C      1  0.5552040000000  0.5297540000000  0.5563930000000 1.0
C      1  0.4820990000000  0.4853070000000  0.5280680000000 1.0
C      1  0.5627160000000  0.4647460000000  0.4418510000000 1.0
C      1  0.5041790000000  0.5351250000000  0.5413260000000 1.0
C      1  0.5484720000000  0.4784890000000  0.5630690000000 1.0
C      1  0.5151010000000  0.4363740000000  0.5465270000000 1.0
C      1  0.4678190000000  0.5353700000000  0.4956310000000 1.0
C      1  0.5363030000000  0.5585050000000  0.4512950000000 1.0
C      1  0.4832420000000  0.4622590000000  0.4315540000000 1.0
C      1  0.4866230000000  0.5482150000000  0.4514650000000 1.0
C      1  0.5526750000000  0.4499960000000  0.4912770000000 1.0
C      1  0.4484500000000  0.5296640000000  0.4193860000000 1.0
C      1  0.5208880000000  0.5039190000000  0.4473560000000 1.0
C      1  0.4416920000000  0.4716550000000  0.5170990000000 1.0
C      1  0.5207580000000  0.5773040000000  0.4704560000000 1.0
C      1  0.4977420000000  0.4535540000000  0.4580840000000 1.0
C      1  0.5557760000000  0.5600510000000  0.4786720000000 1.0
C      1  0.4923700000000  0.5734880000000  0.4691070000000 1.0
C      1  0.4580690000000  0.5542310000000  0.4358910000000 1.0
C      1  0.4505840000000  0.5506620000000  0.5340710000000 1.0
C      1  0.5084690000000  0.5195710000000  0.5719600000000 1.0
C      1  0.4288180000000  0.5205640000000  0.4968740000000 1.0
C      1  0.4801280000000  0.5294850000000  0.5720010000000 1.0
C      1  0.5050930000000  0.4799660000000  0.4750610000000 1.0
C      1  0.4733810000000  0.5794560000000  0.4879680000000 1.0
C      1  0.4107350000000  0.4742320000000  0.4726270000000 1.0
C      1  0.4342310000000  0.4893490000000  0.4918320000000 1.0
C      1  0.5322410000000  0.5211040000000  0.5353970000000 1.0
C      1  0.4930150000000  0.4818380000000  0.5807700000000 1.0
C      1  0.4650010000000  0.5291770000000  0.4661020000000 1.0
C      1  0.5421180000000  0.5214230000000  0.5040050000000 1.0
C      1  0.5668130000000  0.4992850000000  0.4694810000000 1.0
C      1  0.5390460000000  0.4224370000000  0.4990270000000 1.0
C      1  0.5338670000000  0.4496780000000  0.5611260000000 1.0
C      1  0.4286920000000  0.4806160000000  0.5409700000000 1.0
C      1  0.4321740000000  0.5460130000000  0.4814500000000 1.0
C      1  0.4975670000000  0.4396040000000  0.5082390000000 1.0
C      1  0.4180980000000  0.4476190000000  0.4648120000000 1.0
C      1  0.5081700000000  0.4754120000000  0.5444740000000 1.0
C      1  0.4511500000000  0.5619490000000  0.5036550000000 1.0
C      1  0.5346280000000  0.4753150000000  0.5010950000000 1.0
C      1  0.5199230000000  0.4825480000000  0.5818170000000 1.0
C      1  0.4980800000000  0.5377070000000  0.5091840000000 1.0
C      1  0.4444370000000  0.4950390000000  0.5593750000000 1.0
C      1  0.5384170000000  0.5088660000000  0.5728300000000 1.0
C      1  0.5224600000000  0.5222430000000  0.4828090000000 1.0
C      1  0.5156700000000  0.5348300000000  0.4531060000000 1.0
C      1  0.4718510000000  0.4470010000000  0.5715300000000 1.0
C      1  0.4619910000000  0.4515410000000  0.5214490000000 1.0
C      1  0.5805490000000  0.5139920000000  0.4969100000000 1.0
C      1  0.4954400000000  0.5068530000000  0.4937820000000 1.0
C      1  0.4732800000000  0.4855340000000  0.5609050000000 1.0
C      1  0.5660520000000  0.5050850000000  0.5218970000000 1.0
C      1  0.4698350000000  0.5108740000000  0.5165910000000 1.0
C      1  0.5804830000000  0.4586750000000  0.4990900000000 1.0
C      1  0.4480720000000  0.4817580000000  0.4615110000000 1.0
C      1  0.4706660000000  0.4338840000000  0.4978370000000 1.0
C      1  0.4699060000000  0.4379130000000  0.4698750000000 1.0
C      1  0.5323170000000  0.5737730000000  0.4981410000000 1.0
C      1  0.4447180000000  0.4424700000000  0.4553650000000 1.0
C      1  0.4282860000000  0.5276940000000  0.5238990000000 1.0
C      1  0.5301390000000  0.4891420000000  0.5293050000000 1.0
C      1  0.5133030000000  0.5649530000000  0.5164360000000 1.0
C      1  0.4366750000000  0.5576900000000  0.4557800000000 1.0
C      1  0.5380850000000  0.4882330000000  0.4698620000000 1.0
C      1  0.5201470000000  0.4255220000000  0.5200380000000 1.0
C      1  0.5475090000000  0.4507210000000  0.4598660000000 1.0
C      1  0.5676840000000  0.5315020000000  0.4640590000000 1.0
C      1  0.5016290000000  0.4693110000000  0.5058920000000 1.0
C      1  0.4214070000000  0.5003910000000  0.4557630000000 1.0
C      1  0.5824060000000  0.5442460000000  0.4913120000000 1.0
C      1  0.4849160000000  0.4501270000000  0.5466460000000 1.0
C      1  0.4555540000000  0.4651130000000  0.4372630000000 1.0
C      1  0.5010160000000  0.5749070000000  0.5390080000000 1.0
C      1  0.4435230000000  0.5226180000000  0.3942010000000 1.0
C      1  0.5682640000000  0.4829360000000  0.5395380000000 1.0
END
