TITL C-2778434-4341-109 0.00297501434956702 125000 -1024.74547447638 0 0 176 (C1) n - 1
REM
REM in /home/nfs/bkarasulu/CARBON/AIRSS/Generating-Clusters/REBO/Only-C1/SD-CG/HFTN-CG
REM
REM
REM
REM
REM
REM ./C.cell (11c1c37f851c82e70ff6c80c92926a4b)
REM
REM compiler GCC version 9.2.1 20190827 (Red Hat 9.2.1-1)
REM options -cpp -mtune=generic -march=x86-64 -g -O0 -fpre-include=/usr/include/finclude/math-vector-fortran.h
REM seed -1458916409 1441438024 -1585316567 1614870655 -1877147589 1765048681 -1701884535 2083293160 868635342 -1169017812 -1705264066 1161110254 346195316 1299281655 495075751 1380141939 -338375739 -309694782 -1526994234 -1939842774 -216115073 -2145109631 1439284409 1467038999 -1026974818 -1719862116 -1614324903 -223583242 1026949328 -450858028 1056461985 1004378572 1967742241
REM
CELL 1.54180   50.00000   50.00000   50.00000   90.00000   90.00000   90.00000
LATT -1
SFAC C  
C      1  0.5754160000000  0.4946420000000  0.4972320000000 1.0
C      1  0.5121040000000  0.6149620000000  0.5009870000000 1.0
C      1  0.5282510000000  0.4903530000000  0.3956200000000 1.0
C      1  0.5889730000000  0.5312870000000  0.4899780000000 1.0
C      1  0.4469990000000  0.4304110000000  0.4327830000000 1.0
C      1  0.4217020000000  0.4317150000000  0.5004430000000 1.0
C      1  0.4205280000000  0.4414980000000  0.5636900000000 1.0
C      1  0.4785780000000  0.4971680000000  0.5491150000000 1.0
C      1  0.4566020000000  0.5603830000000  0.4925460000000 1.0
C      1  0.5189270000000  0.5274860000000  0.4720750000000 1.0
C      1  0.5583250000000  0.4618280000000  0.5980240000000 1.0
C      1  0.5187630000000  0.3967250000000  0.5483540000000 1.0
C      1  0.3958250000000  0.5475080000000  0.5220570000000 1.0
C      1  0.5108310000000  0.4083590000000  0.5756690000000 1.0
C      1  0.5003280000000  0.4533200000000  0.4654520000000 1.0
C      1  0.4278270000000  0.5135220000000  0.5144080000000 1.0
C      1  0.4408180000000  0.4665990000000  0.5016670000000 1.0
C      1  0.4477870000000  0.5745580000000  0.4392730000000 1.0
C      1  0.4610930000000  0.5149450000000  0.5951700000000 1.0
C      1  0.4482060000000  0.4413940000000  0.5451460000000 1.0
C      1  0.4353000000000  0.5471480000000  0.5621970000000 1.0
C      1  0.4786140000000  0.4898010000000  0.6085550000000 1.0
C      1  0.4003160000000  0.5201930000000  0.4740630000000 1.0
C      1  0.4870560000000  0.4316450000000  0.5806640000000 1.0
C      1  0.5768460000000  0.4936420000000  0.5561200000000 1.0
C      1  0.4771170000000  0.4506690000000  0.4978610000000 1.0
C      1  0.5911560000000  0.4931220000000  0.4464960000000 1.0
C      1  0.4480610000000  0.4702510000000  0.4185420000000 1.0
C      1  0.5540050000000  0.4567410000000  0.4743260000000 1.0
C      1  0.5409760000000  0.4328290000000  0.4640980000000 1.0
C      1  0.5011040000000  0.5572380000000  0.5191310000000 1.0
C      1  0.5549850000000  0.5242980000000  0.4555880000000 1.0
C      1  0.4947160000000  0.5044200000000  0.5234750000000 1.0
C      1  0.5425950000000  0.4902450000000  0.6002790000000 1.0
C      1  0.5099570000000  0.5272640000000  0.4397000000000 1.0
C      1  0.5532900000000  0.4527780000000  0.4187340000000 1.0
C      1  0.5439600000000  0.6044560000000  0.4797340000000 1.0
C      1  0.5067460000000  0.5703720000000  0.4176210000000 1.0
C      1  0.5614890000000  0.4554480000000  0.5060430000000 1.0
C      1  0.5951650000000  0.5198720000000  0.4463900000000 1.0
C      1  0.4610350000000  0.5467680000000  0.4137740000000 1.0
C      1  0.5806250000000  0.4291950000000  0.4628140000000 1.0
C      1  0.4660150000000  0.6088280000000  0.4846080000000 1.0
C      1  0.5338060000000  0.5212120000000  0.5996260000000 1.0
C      1  0.4665520000000  0.4927690000000  0.4006480000000 1.0
C      1  0.5748560000000  0.4363250000000  0.5424150000000 1.0
C      1  0.5111530000000  0.5434020000000  0.5561840000000 1.0
C      1  0.4952300000000  0.4532380000000  0.4100700000000 1.0
C      1  0.4328730000000  0.5208010000000  0.5797320000000 1.0
C      1  0.4188610000000  0.4427840000000  0.5295620000000 1.0
C      1  0.4985550000000  0.4304730000000  0.5424000000000 1.0
C      1  0.5011430000000  0.5119520000000  0.6051300000000 1.0
C      1  0.4055980000000  0.4405580000000  0.4762570000000 1.0
C      1  0.5979860000000  0.4717600000000  0.4881910000000 1.0
C      1  0.4766170000000  0.6018230000000  0.5341690000000 1.0
C      1  0.5768430000000  0.5661490000000  0.5210890000000 1.0
C      1  0.5787760000000  0.4453330000000  0.4386040000000 1.0
C      1  0.4100200000000  0.5598170000000  0.4785190000000 1.0
C      1  0.5520750000000  0.4995490000000  0.4417050000000 1.0
C      1  0.4602710000000  0.4884840000000  0.5734330000000 1.0
C      1  0.4127110000000  0.4768790000000  0.5096780000000 1.0
C      1  0.5110670000000  0.4062560000000  0.4947990000000 1.0
C      1  0.4597160000000  0.5632140000000  0.5762490000000 1.0
C      1  0.5665740000000  0.4766610000000  0.4601750000000 1.0
C      1  0.5549440000000  0.5328450000000  0.4166710000000 1.0
C      1  0.4742110000000  0.5243020000000  0.4028280000000 1.0
C      1  0.4763570000000  0.5857150000000  0.5644040000000 1.0
C      1  0.5749560000000  0.5687780000000  0.4622390000000 1.0
C      1  0.5086370000000  0.4646930000000  0.5743210000000 1.0
C      1  0.4010100000000  0.5321590000000  0.5481140000000 1.0
C      1  0.4784600000000  0.5416690000000  0.5911220000000 1.0
C      1  0.5882680000000  0.4425920000000  0.4893220000000 1.0
C      1  0.4769690000000  0.5140630000000  0.5011280000000 1.0
C      1  0.5870890000000  0.4612090000000  0.5558500000000 1.0
C      1  0.5193610000000  0.4664590000000  0.6051960000000 1.0
C      1  0.4659850000000  0.3940360000000  0.4826500000000 1.0
C      1  0.5875550000000  0.4281480000000  0.5191490000000 1.0
C      1  0.4404170000000  0.4299060000000  0.4596270000000 1.0
C      1  0.5520190000000  0.5446890000000  0.5216330000000 1.0
C      1  0.5341800000000  0.4737780000000  0.4369920000000 1.0
C      1  0.4508360000000  0.5799730000000  0.5342000000000 1.0
C      1  0.5210290000000  0.4259830000000  0.4449750000000 1.0
C      1  0.5845500000000  0.5615520000000  0.4886950000000 1.0
C      1  0.4501370000000  0.4977770000000  0.5006510000000 1.0
C      1  0.4916560000000  0.3988680000000  0.4716070000000 1.0
C      1  0.4093380000000  0.5414000000000  0.4546030000000 1.0
C      1  0.5171500000000  0.6168610000000  0.4702290000000 1.0
C      1  0.4951060000000  0.4702750000000  0.5440590000000 1.0
C      1  0.5588600000000  0.5189580000000  0.4846250000000 1.0
C      1  0.4097830000000  0.4614940000000  0.4548480000000 1.0
C      1  0.5013950000000  0.5284770000000  0.4000980000000 1.0
C      1  0.4229580000000  0.5625380000000  0.5344850000000 1.0
C      1  0.4314150000000  0.5463820000000  0.4294000000000 1.0
C      1  0.5271740000000  0.5558180000000  0.5078590000000 1.0
C      1  0.4706370000000  0.5941130000000  0.4560660000000 1.0
C      1  0.5370610000000  0.4051030000000  0.5251090000000 1.0
C      1  0.4796710000000  0.5685120000000  0.4160890000000 1.0
C      1  0.4870740000000  0.5432580000000  0.4543860000000 1.0
C      1  0.5772300000000  0.4756750000000  0.4219330000000 1.0
C      1  0.5375470000000  0.5513020000000  0.4550910000000 1.0
C      1  0.4424770000000  0.4041100000000  0.4710470000000 1.0
C      1  0.5298770000000  0.5793850000000  0.4388380000000 1.0
C      1  0.4623630000000  0.5232300000000  0.4589980000000 1.0
C      1  0.5222720000000  0.4458120000000  0.4227060000000 1.0
C      1  0.5446890000000  0.4960740000000  0.5467060000000 1.0
C      1  0.5520430000000  0.5847040000000  0.5311220000000 1.0
C      1  0.6085650000000  0.5032490000000  0.4924440000000 1.0
C      1  0.4534880000000  0.4264600000000  0.5023200000000 1.0
C      1  0.5449780000000  0.4414560000000  0.5395800000000 1.0
C      1  0.5344520000000  0.5605990000000  0.5836240000000 1.0
C      1  0.4056440000000  0.5279430000000  0.5022630000000 1.0
C      1  0.5251430000000  0.4944580000000  0.5711960000000 1.0
C      1  0.4742370000000  0.4966560000000  0.4316680000000 1.0
C      1  0.4754620000000  0.4503500000000  0.5299250000000 1.0
C      1  0.4846750000000  0.6147210000000  0.5078800000000 1.0
C      1  0.4633160000000  0.4434820000000  0.4065420000000 1.0
C      1  0.5561260000000  0.4996310000000  0.4093520000000 1.0
C      1  0.5397510000000  0.6005130000000  0.5112860000000 1.0
C      1  0.5315320000000  0.5169590000000  0.4997140000000 1.0
C      1  0.5032080000000  0.5685130000000  0.4662300000000 1.0
C      1  0.4260740000000  0.5621740000000  0.5005200000000 1.0
C      1  0.5259940000000  0.5425960000000  0.4172150000000 1.0
C      1  0.4778300000000  0.4634700000000  0.5883400000000 1.0
C      1  0.5206220000000  0.4880030000000  0.5127350000000 1.0
C      1  0.5342500000000  0.4353070000000  0.5094080000000 1.0
C      1  0.4535880000000  0.5900350000000  0.5038010000000 1.0
C      1  0.5120660000000  0.4801440000000  0.4592690000000 1.0
C      1  0.4078710000000  0.4921920000000  0.4846790000000 1.0
C      1  0.4108250000000  0.4743860000000  0.5395480000000 1.0
C      1  0.4973080000000  0.4030230000000  0.5226980000000 1.0
C      1  0.5061630000000  0.5717300000000  0.5707990000000 1.0
C      1  0.5970020000000  0.5194900000000  0.5195930000000 1.0
C      1  0.5784370000000  0.5245550000000  0.5629190000000 1.0
C      1  0.5284520000000  0.4691440000000  0.5371500000000 1.0
C      1  0.4221570000000  0.5133740000000  0.5419800000000 1.0
C      1  0.4610170000000  0.5478410000000  0.5393780000000 1.0
C      1  0.4318940000000  0.4837060000000  0.4668870000000 1.0
C      1  0.4433170000000  0.4532390000000  0.4747820000000 1.0
C      1  0.4237450000000  0.5132610000000  0.4304510000000 1.0
C      1  0.5869430000000  0.5399320000000  0.5403290000000 1.0
C      1  0.4722050000000  0.4798810000000  0.4810820000000 1.0
C      1  0.5553030000000  0.5353470000000  0.5806420000000 1.0
C      1  0.5571800000000  0.4089230000000  0.4736940000000 1.0
C      1  0.4826560000000  0.4463890000000  0.4412370000000 1.0
C      1  0.5420310000000  0.3971020000000  0.4946610000000 1.0
C      1  0.5715640000000  0.4734680000000  0.5287680000000 1.0
C      1  0.4997160000000  0.4838870000000  0.4039230000000 1.0
C      1  0.4421820000000  0.5068090000000  0.4530590000000 1.0
C      1  0.4743930000000  0.5283820000000  0.5599410000000 1.0
C      1  0.5028120000000  0.5969150000000  0.4507000000000 1.0
C      1  0.5193280000000  0.5236450000000  0.5301880000000 1.0
C      1  0.4767250000000  0.4172150000000  0.4245890000000 1.0
C      1  0.5091450000000  0.5450820000000  0.6004730000000 1.0
C      1  0.5424470000000  0.5372980000000  0.5512860000000 1.0
C      1  0.5280420000000  0.5648610000000  0.4825410000000 1.0
C      1  0.5542730000000  0.5872460000000  0.4595410000000 1.0
C      1  0.5040770000000  0.4996270000000  0.4338810000000 1.0
C      1  0.4271820000000  0.4902770000000  0.5652740000000 1.0
C      1  0.5630830000000  0.5125620000000  0.5237800000000 1.0
C      1  0.4203070000000  0.4809610000000  0.4289680000000 1.0
C      1  0.5241390000000  0.4372610000000  0.5641380000000 1.0
C      1  0.4617870000000  0.3933120000000  0.5447580000000 1.0
C      1  0.5038760000000  0.5169080000000  0.5727840000000 1.0
C      1  0.4668230000000  0.3978300000000  0.5136320000000 1.0
C      1  0.4174620000000  0.4630600000000  0.5811010000000 1.0
C      1  0.4738630000000  0.5434360000000  0.5101840000000 1.0
C      1  0.4640510000000  0.5627120000000  0.4644520000000 1.0
C      1  0.5077730000000  0.4387390000000  0.4919330000000 1.0
C      1  0.4656040000000  0.4725660000000  0.4487750000000 1.0
C      1  0.4689520000000  0.4211850000000  0.5563840000000 1.0
C      1  0.4971740000000  0.5031780000000  0.4777600000000 1.0
C      1  0.5487090000000  0.4414680000000  0.5868650000000 1.0
C      1  0.4978010000000  0.5773000000000  0.5396740000000 1.0
C      1  0.5752820000000  0.5454080000000  0.4409340000000 1.0
C      1  0.5426430000000  0.5791680000000  0.5563460000000 1.0
C      1  0.4982400000000  0.4100030000000  0.4467410000000 1.0
END
