TITL C-2778424-3986-1048 -0.000889538674042365 125000 -1076.10748487082 0 0 184 (C1) n - 1
REM
REM in /home/nfs/bkarasulu/CARBON/AIRSS/Generating-Clusters/REBO/Only-C1/SD-CG/HFTN-CG
REM
REM
REM
REM
REM
REM ./C.cell (11c1c37f851c82e70ff6c80c92926a4b)
REM
REM compiler GCC version 9.2.1 20190827 (Red Hat 9.2.1-1)
REM options -cpp -mtune=generic -march=x86-64 -g -O0 -fpre-include=/usr/include/finclude/math-vector-fortran.h
REM seed -136146503 764907319 747257752 -1434363868 616583549 -1325083861 165739925 -1125064430 1347573589 1179726934 1780243176 711491859 -460453935 -672354832 -530742769 -1222939178 1434615401 730742415 451258685 -286238662 1359470623 -191446441 -1932437999 221329148 -130441003 14454247 697709450 -2077860 -722224151 -1316206117 -1079921884 1033266192 -480325240
REM
CELL 1.54180   50.00000   50.00000   50.00000   90.00000   90.00000   90.00000
LATT -1
SFAC C  
C      1  0.6164310000000  0.4993620000000  0.5032530000000 1.0
C      1  0.5673880000000  0.5285200000000  0.4735560000000 1.0
C      1  0.4351810000000  0.5234140000000  0.5104880000000 1.0
C      1  0.5226790000000  0.5676390000000  0.5795350000000 1.0
C      1  0.5367160000000  0.4989900000000  0.6046540000000 1.0
C      1  0.5203180000000  0.4869720000000  0.3814860000000 1.0
C      1  0.5816960000000  0.4301160000000  0.5349040000000 1.0
C      1  0.5197840000000  0.4738700000000  0.5889430000000 1.0
C      1  0.4468150000000  0.4536160000000  0.5799550000000 1.0
C      1  0.5716050000000  0.5242490000000  0.5706750000000 1.0
C      1  0.5541540000000  0.4348330000000  0.4820030000000 1.0
C      1  0.4585730000000  0.5944570000000  0.5363790000000 1.0
C      1  0.5489050000000  0.5335220000000  0.4230770000000 1.0
C      1  0.4175490000000  0.4341070000000  0.5113470000000 1.0
C      1  0.5305700000000  0.4907840000000  0.4885570000000 1.0
C      1  0.4318100000000  0.5819450000000  0.4780240000000 1.0
C      1  0.4072660000000  0.5617000000000  0.4656120000000 1.0
C      1  0.4695790000000  0.4976690000000  0.3943510000000 1.0
C      1  0.5063710000000  0.6063570000000  0.4869520000000 1.0
C      1  0.5839020000000  0.4156830000000  0.5070590000000 1.0
C      1  0.4541330000000  0.4225550000000  0.4255600000000 1.0
C      1  0.5330700000000  0.5284160000000  0.5016410000000 1.0
C      1  0.4919030000000  0.4738450000000  0.3932140000000 1.0
C      1  0.5194220000000  0.3895850000000  0.4953170000000 1.0
C      1  0.5385230000000  0.3923850000000  0.5188520000000 1.0
C      1  0.4450360000000  0.5130920000000  0.5898920000000 1.0
C      1  0.4536260000000  0.4202540000000  0.4900770000000 1.0
C      1  0.4972690000000  0.5015110000000  0.4692130000000 1.0
C      1  0.5512670000000  0.4996550000000  0.5467450000000 1.0
C      1  0.3658890000000  0.4965590000000  0.4868260000000 1.0
C      1  0.5154590000000  0.4335170000000  0.4720920000000 1.0
C      1  0.4513360000000  0.5713070000000  0.5847510000000 1.0
C      1  0.6008350000000  0.4887860000000  0.4764480000000 1.0
C      1  0.4536930000000  0.4058370000000  0.5185650000000 1.0
C      1  0.4730590000000  0.5238330000000  0.4734750000000 1.0
C      1  0.4902330000000  0.5390000000000  0.5363840000000 1.0
C      1  0.4432780000000  0.4526800000000  0.5352790000000 1.0
C      1  0.4317950000000  0.4987150000000  0.4215000000000 1.0
C      1  0.4767890000000  0.5297660000000  0.4045640000000 1.0
C      1  0.4906930000000  0.3967730000000  0.5473460000000 1.0
C      1  0.5048580000000  0.5357090000000  0.4502990000000 1.0
C      1  0.5761710000000  0.5144280000000  0.4314400000000 1.0
C      1  0.5996050000000  0.4430810000000  0.5026640000000 1.0
C      1  0.5755420000000  0.5729300000000  0.4990630000000 1.0
C      1  0.4812500000000  0.4152990000000  0.4451950000000 1.0
C      1  0.5928440000000  0.5195060000000  0.5456360000000 1.0
C      1  0.4586980000000  0.5960090000000  0.4658890000000 1.0
C      1  0.5566390000000  0.5041120000000  0.5032610000000 1.0
C      1  0.5613720000000  0.5828850000000  0.4723050000000 1.0
C      1  0.5039280000000  0.5819570000000  0.5637340000000 1.0
C      1  0.4078490000000  0.4493990000000  0.4532130000000 1.0
C      1  0.6016470000000  0.5541650000000  0.5056470000000 1.0
C      1  0.5131920000000  0.5248140000000  0.5668310000000 1.0
C      1  0.5124960000000  0.4318540000000  0.5268420000000 1.0
C      1  0.5585830000000  0.5881340000000  0.5208020000000 1.0
C      1  0.5297180000000  0.4172760000000  0.4226430000000 1.0
C      1  0.4183230000000  0.5037500000000  0.5407090000000 1.0
C      1  0.4793550000000  0.5490380000000  0.4595010000000 1.0
C      1  0.5016810000000  0.4119200000000  0.5658600000000 1.0
C      1  0.5003150000000  0.5125580000000  0.3905020000000 1.0
C      1  0.5814040000000  0.5435580000000  0.4473960000000 1.0
C      1  0.4725220000000  0.4595810000000  0.5675980000000 1.0
C      1  0.6047750000000  0.5268380000000  0.4875870000000 1.0
C      1  0.4327540000000  0.5432170000000  0.4614450000000 1.0
C      1  0.3844890000000  0.4918540000000  0.5060570000000 1.0
C      1  0.4955700000000  0.4336770000000  0.4991070000000 1.0
C      1  0.5068640000000  0.4784590000000  0.4236460000000 1.0
C      1  0.4576800000000  0.5672670000000  0.4931640000000 1.0
C      1  0.4860740000000  0.4786820000000  0.5887470000000 1.0
C      1  0.5648720000000  0.5675390000000  0.4433660000000 1.0
C      1  0.4070080000000  0.5420700000000  0.5143230000000 1.0
C      1  0.4315000000000  0.4612990000000  0.4982040000000 1.0
C      1  0.5331910000000  0.4213030000000  0.5745550000000 1.0
C      1  0.4858100000000  0.5555170000000  0.4117110000000 1.0
C      1  0.5284930000000  0.5054780000000  0.4609840000000 1.0
C      1  0.5217360000000  0.5248760000000  0.6181860000000 1.0
C      1  0.5846500000000  0.4612260000000  0.4829420000000 1.0
C      1  0.5562280000000  0.5652940000000  0.5442520000000 1.0
C      1  0.5440460000000  0.5312200000000  0.4542570000000 1.0
C      1  0.4215880000000  0.5301010000000  0.4257070000000 1.0
C      1  0.4895480000000  0.5240190000000  0.6093620000000 1.0
C      1  0.5440170000000  0.4408290000000  0.4175910000000 1.0
C      1  0.4420370000000  0.5202540000000  0.4780230000000 1.0
C      1  0.4685650000000  0.5271410000000  0.5066410000000 1.0
C      1  0.5303290000000  0.4049310000000  0.4706680000000 1.0
C      1  0.4312740000000  0.4815240000000  0.5892100000000 1.0
C      1  0.5387810000000  0.5895880000000  0.4485010000000 1.0
C      1  0.4784700000000  0.3932320000000  0.5222380000000 1.0
C      1  0.5703510000000  0.4975180000000  0.4748080000000 1.0
C      1  0.5562120000000  0.4336470000000  0.5445710000000 1.0
C      1  0.4588700000000  0.5164670000000  0.4279100000000 1.0
C      1  0.5350260000000  0.5639760000000  0.4269660000000 1.0
C      1  0.5548140000000  0.5313680000000  0.5423270000000 1.0
C      1  0.4632550000000  0.4673150000000  0.4438700000000 1.0
C      1  0.3997600000000  0.5427370000000  0.4390860000000 1.0
C      1  0.5208550000000  0.4928950000000  0.5606360000000 1.0
C      1  0.5533370000000  0.5531920000000  0.5754020000000 1.0
C      1  0.5612000000000  0.4648920000000  0.5073670000000 1.0
C      1  0.3943560000000  0.4656730000000  0.5116330000000 1.0
C      1  0.4815740000000  0.5896520000000  0.5157650000000 1.0
C      1  0.5564970000000  0.4042820000000  0.4930490000000 1.0
C      1  0.4088600000000  0.4830010000000  0.5639520000000 1.0
C      1  0.4342550000000  0.5303650000000  0.5555920000000 1.0
C      1  0.4709510000000  0.5902530000000  0.5660880000000 1.0
C      1  0.4604230000000  0.4798650000000  0.6066900000000 1.0
C      1  0.4518570000000  0.4551700000000  0.4712510000000 1.0
C      1  0.5083610000000  0.5386030000000  0.4849750000000 1.0
C      1  0.5100150000000  0.4557120000000  0.4474950000000 1.0
C      1  0.5835240000000  0.5195760000000  0.5136480000000 1.0
C      1  0.4280230000000  0.4306660000000  0.4731950000000 1.0
C      1  0.5278320000000  0.5983000000000  0.5101160000000 1.0
C      1  0.4299980000000  0.4721530000000  0.4408090000000 1.0
C      1  0.6002910000000  0.5159080000000  0.4556170000000 1.0
C      1  0.5092890000000  0.5847730000000  0.5337950000000 1.0
C      1  0.3981410000000  0.5120780000000  0.5196380000000 1.0
C      1  0.5449610000000  0.4497210000000  0.5886540000000 1.0
C      1  0.4692940000000  0.5747100000000  0.4424720000000 1.0
C      1  0.5636960000000  0.5431370000000  0.5004570000000 1.0
C      1  0.4914820000000  0.3914590000000  0.4963080000000 1.0
C      1  0.4126790000000  0.4645770000000  0.5363010000000 1.0
C      1  0.5284240000000  0.5150750000000  0.4086190000000 1.0
C      1  0.4850650000000  0.4585570000000  0.4784790000000 1.0
C      1  0.5074290000000  0.4432700000000  0.5782250000000 1.0
C      1  0.4654310000000  0.4453370000000  0.5102840000000 1.0
C      1  0.5033360000000  0.5115100000000  0.4309660000000 1.0
C      1  0.4868880000000  0.4476050000000  0.4052020000000 1.0
C      1  0.5147140000000  0.4680740000000  0.4921880000000 1.0
C      1  0.4170270000000  0.5902960000000  0.5066900000000 1.0
C      1  0.5282190000000  0.5552850000000  0.4653950000000 1.0
C      1  0.6047910000000  0.5474300000000  0.5329230000000 1.0
C      1  0.4405870000000  0.4912680000000  0.4875890000000 1.0
C      1  0.5092930000000  0.5899450000000  0.4598670000000 1.0
C      1  0.4345060000000  0.4210660000000  0.5319990000000 1.0
C      1  0.5481170000000  0.4599370000000  0.5502070000000 1.0
C      1  0.5749970000000  0.4832710000000  0.5324890000000 1.0
C      1  0.4143650000000  0.5137770000000  0.5777110000000 1.0
C      1  0.5756110000000  0.4447980000000  0.4574940000000 1.0
C      1  0.5357850000000  0.5286870000000  0.5876440000000 1.0
C      1  0.4671290000000  0.5210570000000  0.5542550000000 1.0
C      1  0.4754870000000  0.6081890000000  0.4885680000000 1.0
C      1  0.4974780000000  0.4789130000000  0.5432810000000 1.0
C      1  0.4175790000000  0.4756940000000  0.4711400000000 1.0
C      1  0.5215990000000  0.5285050000000  0.5337390000000 1.0
C      1  0.5021220000000  0.5716990000000  0.4318720000000 1.0
C      1  0.4490980000000  0.5485540000000  0.4339630000000 1.0
C      1  0.5106310000000  0.4982070000000  0.5223580000000 1.0
C      1  0.5297390000000  0.5611670000000  0.5242480000000 1.0
C      1  0.5513700000000  0.4824100000000  0.4554680000000 1.0
C      1  0.4508370000000  0.5025840000000  0.5326870000000 1.0
C      1  0.4565750000000  0.5548040000000  0.5226010000000 1.0
C      1  0.5657040000000  0.4854510000000  0.4262830000000 1.0
C      1  0.4477230000000  0.4470570000000  0.4131090000000 1.0
C      1  0.5332270000000  0.4125620000000  0.5413690000000 1.0
C      1  0.5653950000000  0.4530290000000  0.4323000000000 1.0
C      1  0.4318290000000  0.5849980000000  0.5306570000000 1.0
C      1  0.4587460000000  0.5439800000000  0.5860710000000 1.0
C      1  0.6066020000000  0.4919920000000  0.5308860000000 1.0
C      1  0.4762400000000  0.4056680000000  0.4751150000000 1.0
C      1  0.3983120000000  0.4437320000000  0.4855940000000 1.0
C      1  0.5328570000000  0.4460120000000  0.5055290000000 1.0
C      1  0.5462950000000  0.4893960000000  0.4032470000000 1.0
C      1  0.4878880000000  0.5720120000000  0.4785020000000 1.0
C      1  0.5612020000000  0.4724250000000  0.5742170000000 1.0
C      1  0.4934420000000  0.5582300000000  0.5084920000000 1.0
C      1  0.4889730000000  0.5012160000000  0.5019260000000 1.0
C      1  0.4006800000000  0.5656520000000  0.4964720000000 1.0
C      1  0.5359960000000  0.4791630000000  0.5263520000000 1.0
C      1  0.4483080000000  0.4735910000000  0.4054880000000 1.0
C      1  0.4277750000000  0.5530330000000  0.5363100000000 1.0
C      1  0.4769470000000  0.5086680000000  0.5846260000000 1.0
C      1  0.5622640000000  0.4988170000000  0.5851540000000 1.0
C      1  0.5139850000000  0.4071050000000  0.4424110000000 1.0
C      1  0.4764080000000  0.4949170000000  0.4436670000000 1.0
C      1  0.5286530000000  0.4618630000000  0.4031750000000 1.0
C      1  0.5363650000000  0.5711080000000  0.4923190000000 1.0
C      1  0.4971570000000  0.4471840000000  0.5475330000000 1.0
C      1  0.4677320000000  0.4779110000000  0.4996510000000 1.0
C      1  0.5380880000000  0.4570020000000  0.4618210000000 1.0
C      1  0.5988040000000  0.4588320000000  0.5321040000000 1.0
C      1  0.4647670000000  0.4763830000000  0.5393820000000 1.0
C      1  0.4842100000000  0.4471000000000  0.4337860000000 1.0
C      1  0.4901270000000  0.5450300000000  0.5758050000000 1.0
C      1  0.4721610000000  0.5605900000000  0.5523260000000 1.0
C      1  0.5079280000000  0.5524090000000  0.6036700000000 1.0
END
