TITL C-2778434-4341-1431 0.0025576135168888 125000 -410.046214071792 0 0 70 (C1) n - 1
REM
REM in /home/nfs/bkarasulu/CARBON/AIRSS/Generating-Clusters/REBO/Only-C1/SD-CG/HFTN-CG
REM
REM
REM
REM
REM
REM ./C.cell (11c1c37f851c82e70ff6c80c92926a4b)
REM
REM compiler GCC version 9.2.1 20190827 (Red Hat 9.2.1-1)
REM options -cpp -mtune=generic -march=x86-64 -g -O0 -fpre-include=/usr/include/finclude/math-vector-fortran.h
REM seed -1770099949 -1559506739 1150837597 1788067650 1160038471 66827932 -550727538 133738681 1974294081 569636245 1702189642 -1934256200 -1956391567 718655116 -1457656471 -1894370246 1210940913 140167809 -1305921243 -476981143 1896463817 -738057265 1768476968 2130907772 -928380954 1878663744 -1660600486 725638737 -1425263454 832869382 1405505221 837138569 -2003553884
REM
CELL 1.54180   50.00000   50.00000   50.00000   90.00000   90.00000   90.00000
LATT -1
SFAC C  
C      1  0.5449100000000  0.4352940000000  0.4685910000000 1.0
C      1  0.4439870000000  0.4904110000000  0.5295550000000 1.0
C      1  0.5168300000000  0.4990640000000  0.4263280000000 1.0
C      1  0.5182990000000  0.5376860000000  0.5349360000000 1.0
C      1  0.5332080000000  0.4770750000000  0.5177080000000 1.0
C      1  0.5399940000000  0.5062990000000  0.4435330000000 1.0
C      1  0.5294450000000  0.4691760000000  0.5671530000000 1.0
C      1  0.5101930000000  0.4713000000000  0.4233590000000 1.0
C      1  0.5577960000000  0.4586960000000  0.5570750000000 1.0
C      1  0.5473690000000  0.4893140000000  0.5461980000000 1.0
C      1  0.5148450000000  0.5461350000000  0.4607560000000 1.0
C      1  0.4567430000000  0.4689030000000  0.4680450000000 1.0
C      1  0.5919660000000  0.5072740000000  0.5025970000000 1.0
C      1  0.4681040000000  0.4444700000000  0.5290700000000 1.0
C      1  0.4684900000000  0.5012390000000  0.4731710000000 1.0
C      1  0.4969570000000  0.5431110000000  0.4357420000000 1.0
C      1  0.5412990000000  0.5598490000000  0.5252650000000 1.0
C      1  0.5149630000000  0.5757140000000  0.5098650000000 1.0
C      1  0.5044210000000  0.5204380000000  0.5133230000000 1.0
C      1  0.4894660000000  0.4532400000000  0.5039160000000 1.0
C      1  0.5301090000000  0.4305150000000  0.4925350000000 1.0
C      1  0.5599890000000  0.5344510000000  0.5292400000000 1.0
C      1  0.4313880000000  0.4832010000000  0.5032790000000 1.0
C      1  0.5206510000000  0.5254140000000  0.4874430000000 1.0
C      1  0.4930530000000  0.5151610000000  0.4265730000000 1.0
C      1  0.4522730000000  0.5231760000000  0.4883570000000 1.0
C      1  0.4703270000000  0.4160790000000  0.4914800000000 1.0
C      1  0.4778400000000  0.4772860000000  0.5613340000000 1.0
C      1  0.4295270000000  0.5034290000000  0.4806260000000 1.0
C      1  0.4923920000000  0.4862040000000  0.4648840000000 1.0
C      1  0.5333730000000  0.4941930000000  0.4901730000000 1.0
C      1  0.4563850000000  0.4775860000000  0.4357830000000 1.0
C      1  0.5470660000000  0.4863640000000  0.4630390000000 1.0
C      1  0.5357220000000  0.5554510000000  0.4933680000000 1.0
C      1  0.4686500000000  0.5661350000000  0.4519150000000 1.0
C      1  0.4535080000000  0.4358660000000  0.5034960000000 1.0
C      1  0.4584940000000  0.5628050000000  0.5211210000000 1.0
C      1  0.4407190000000  0.4580450000000  0.4916300000000 1.0
C      1  0.4829580000000  0.5069800000000  0.5586570000000 1.0
C      1  0.5583780000000  0.5366570000000  0.4809550000000 1.0
C      1  0.4900380000000  0.4994830000000  0.5271770000000 1.0
C      1  0.5053130000000  0.5678670000000  0.5405820000000 1.0
C      1  0.4664590000000  0.5830370000000  0.5032790000000 1.0
C      1  0.4514850000000  0.5179460000000  0.5366020000000 1.0
C      1  0.4828770000000  0.4479340000000  0.4709780000000 1.0
C      1  0.4735410000000  0.5627080000000  0.5465710000000 1.0
C      1  0.5433580000000  0.5323890000000  0.4554690000000 1.0
C      1  0.4992160000000  0.5486110000000  0.5681820000000 1.0
C      1  0.5041880000000  0.4193090000000  0.4890120000000 1.0
C      1  0.5573110000000  0.4387950000000  0.5366590000000 1.0
C      1  0.4920750000000  0.5812590000000  0.4914600000000 1.0
C      1  0.5129790000000  0.5131490000000  0.5566040000000 1.0
C      1  0.4514150000000  0.5361110000000  0.5139060000000 1.0
C      1  0.5526600000000  0.4594100000000  0.4586010000000 1.0
C      1  0.4347600000000  0.4982580000000  0.4520960000000 1.0
C      1  0.5038040000000  0.4638240000000  0.5571670000000 1.0
C      1  0.4596810000000  0.5100090000000  0.4316740000000 1.0
C      1  0.5405340000000  0.4459110000000  0.5146830000000 1.0
C      1  0.4649720000000  0.5418750000000  0.4350390000000 1.0
C      1  0.5075650000000  0.4757550000000  0.4865910000000 1.0
C      1  0.5030500000000  0.4717700000000  0.5259620000000 1.0
C      1  0.5299070000000  0.5344020000000  0.5728480000000 1.0
C      1  0.5722360000000  0.5258420000000  0.5040850000000 1.0
C      1  0.4849550000000  0.4155040000000  0.4622020000000 1.0
C      1  0.4582490000000  0.4692130000000  0.5429280000000 1.0
C      1  0.4929380000000  0.5686390000000  0.4667040000000 1.0
C      1  0.4763430000000  0.4238850000000  0.5461310000000 1.0
C      1  0.4861600000000  0.4644310000000  0.4416320000000 1.0
C      1  0.5514420000000  0.5190900000000  0.5514400000000 1.0
C      1  0.4684000000000  0.5338990000000  0.5616620000000 1.0
END
