TITL C-2778429-3646-571 -0.00176993675250415 125000 -1139.69881268023 0 0 197 (C1) n - 1
REM
REM in /home/nfs/bkarasulu/CARBON/AIRSS/Generating-Clusters/REBO/Only-C1/SD-CG/HFTN-CG
REM
REM
REM
REM
REM
REM ./C.cell (11c1c37f851c82e70ff6c80c92926a4b)
REM
REM compiler GCC version 9.2.1 20190827 (Red Hat 9.2.1-1)
REM options -cpp -mtune=generic -march=x86-64 -g -O0 -fpre-include=/usr/include/finclude/math-vector-fortran.h
REM seed -758188968 -1617903210 499480396 -802521154 2047207228 1196391782 364531750 -1779398777 1609587483 1038266709 -1517430338 -1305043010 1872753714 -1044051333 -649209841 -1734644683 -1732099935 -848560127 446972489 -538069648 1359179711 1341317642 1921349381 -1637625246 1250850595 -946478032 57370304 -1505678227 1306884616 -1222825821 1239827853 -358194162 -1018562441
REM
CELL 1.54180   50.00000   50.00000   50.00000   90.00000   90.00000   90.00000
LATT -1
SFAC C  
C      1  0.5305890000000  0.4888260000000  0.6081270000000 1.0
C      1  0.3910130000000  0.4969450000000  0.5005900000000 1.0
C      1  0.4313050000000  0.4566550000000  0.4226140000000 1.0
C      1  0.4645220000000  0.5764710000000  0.4489620000000 1.0
C      1  0.5202770000000  0.4913090000000  0.4030560000000 1.0
C      1  0.5179690000000  0.4771220000000  0.4325950000000 1.0
C      1  0.5650850000000  0.4625850000000  0.4844680000000 1.0
C      1  0.5318740000000  0.4096100000000  0.5005420000000 1.0
C      1  0.5675270000000  0.5301850000000  0.5268690000000 1.0
C      1  0.5173110000000  0.5061090000000  0.5747630000000 1.0
C      1  0.5099140000000  0.5348710000000  0.5579730000000 1.0
C      1  0.5716720000000  0.5801580000000  0.4910360000000 1.0
C      1  0.4206180000000  0.5049470000000  0.5517560000000 1.0
C      1  0.5457550000000  0.4161700000000  0.5311290000000 1.0
C      1  0.4022060000000  0.4511320000000  0.4861000000000 1.0
C      1  0.6123000000000  0.4974390000000  0.4562810000000 1.0
C      1  0.4487820000000  0.4672640000000  0.3989510000000 1.0
C      1  0.4962980000000  0.4882030000000  0.6052120000000 1.0
C      1  0.4412050000000  0.4259070000000  0.4308790000000 1.0
C      1  0.4524630000000  0.4466110000000  0.4547970000000 1.0
C      1  0.5195990000000  0.5862150000000  0.5755240000000 1.0
C      1  0.5357230000000  0.5629060000000  0.4172330000000 1.0
C      1  0.4674020000000  0.4043310000000  0.5107980000000 1.0
C      1  0.5232130000000  0.4726360000000  0.5807570000000 1.0
C      1  0.4199380000000  0.5741460000000  0.4677130000000 1.0
C      1  0.4753930000000  0.4447870000000  0.5779150000000 1.0
C      1  0.4881220000000  0.5206120000000  0.6006590000000 1.0
C      1  0.4685510000000  0.5216240000000  0.5756260000000 1.0
C      1  0.5276400000000  0.5292470000000  0.4857130000000 1.0
C      1  0.4445210000000  0.5862900000000  0.4705700000000 1.0
C      1  0.4647800000000  0.5911420000000  0.5525690000000 1.0
C      1  0.4602730000000  0.5665250000000  0.5758880000000 1.0
C      1  0.4821350000000  0.4617990000000  0.3970070000000 1.0
C      1  0.5491050000000  0.5123600000000  0.5805140000000 1.0
C      1  0.4820290000000  0.4498490000000  0.4477490000000 1.0
C      1  0.4948660000000  0.4342770000000  0.5023500000000 1.0
C      1  0.4634200000000  0.4991960000000  0.4950560000000 1.0
C      1  0.5745970000000  0.4279550000000  0.5213820000000 1.0
C      1  0.5296720000000  0.4472950000000  0.4370440000000 1.0
C      1  0.5952070000000  0.4416020000000  0.4693710000000 1.0
C      1  0.5331180000000  0.5192170000000  0.4075910000000 1.0
C      1  0.4543310000000  0.4097600000000  0.5539360000000 1.0
C      1  0.5388320000000  0.5940210000000  0.5144220000000 1.0
C      1  0.5444520000000  0.4996990000000  0.5067840000000 1.0
C      1  0.4854620000000  0.5287930000000  0.3940120000000 1.0
C      1  0.5239480000000  0.5566630000000  0.4654580000000 1.0
C      1  0.5594430000000  0.4506940000000  0.4535660000000 1.0
C      1  0.3994080000000  0.5236230000000  0.4811330000000 1.0
C      1  0.4429860000000  0.5941850000000  0.5266230000000 1.0
C      1  0.5130700000000  0.5009880000000  0.4983160000000 1.0
C      1  0.5713580000000  0.4199900000000  0.4576860000000 1.0
C      1  0.5548480000000  0.4638080000000  0.5412480000000 1.0
C      1  0.6027830000000  0.4718270000000  0.4752840000000 1.0
C      1  0.5314740000000  0.5631940000000  0.5233470000000 1.0
C      1  0.5642760000000  0.4590180000000  0.4215790000000 1.0
C      1  0.5127550000000  0.5639690000000  0.5950830000000 1.0
C      1  0.4274040000000  0.5092990000000  0.5210210000000 1.0
C      1  0.4896960000000  0.5968540000000  0.5291630000000 1.0
C      1  0.6126140000000  0.4823630000000  0.5061160000000 1.0
C      1  0.5830460000000  0.4773030000000  0.5784290000000 1.0
C      1  0.4506010000000  0.4331270000000  0.5702580000000 1.0
C      1  0.5644550000000  0.4878150000000  0.4397580000000 1.0
C      1  0.5250560000000  0.4419210000000  0.5089500000000 1.0
C      1  0.4834750000000  0.4036650000000  0.5549430000000 1.0
C      1  0.4553860000000  0.4376330000000  0.4839010000000 1.0
C      1  0.4028860000000  0.5481200000000  0.5405800000000 1.0
C      1  0.5371690000000  0.4622390000000  0.4010290000000 1.0
C      1  0.4805960000000  0.4907200000000  0.5749300000000 1.0
C      1  0.4619750000000  0.4903990000000  0.5277880000000 1.0
C      1  0.4763060000000  0.5025230000000  0.4225560000000 1.0
C      1  0.5409910000000  0.4171090000000  0.4441740000000 1.0
C      1  0.4180940000000  0.5538840000000  0.4463030000000 1.0
C      1  0.5522720000000  0.4052120000000  0.4805230000000 1.0
C      1  0.4384880000000  0.5324890000000  0.4903730000000 1.0
C      1  0.4782100000000  0.4632000000000  0.5042890000000 1.0
C      1  0.4796630000000  0.5532630000000  0.4292150000000 1.0
C      1  0.4581680000000  0.4961690000000  0.4573340000000 1.0
C      1  0.5816850000000  0.4497360000000  0.5695220000000 1.0
C      1  0.4486400000000  0.4690620000000  0.4934950000000 1.0
C      1  0.4901770000000  0.4949300000000  0.3938240000000 1.0
C      1  0.4833290000000  0.4271190000000  0.4248320000000 1.0
C      1  0.4965070000000  0.3982760000000  0.5258220000000 1.0
C      1  0.5418920000000  0.4512000000000  0.5670760000000 1.0
C      1  0.4199330000000  0.5334810000000  0.5627070000000 1.0
C      1  0.4732330000000  0.4109860000000  0.4795920000000 1.0
C      1  0.4523270000000  0.5283330000000  0.5196620000000 1.0
C      1  0.5050430000000  0.5713860000000  0.4229140000000 1.0
C      1  0.4890590000000  0.5960820000000  0.4827620000000 1.0
C      1  0.6231160000000  0.5091480000000  0.5035740000000 1.0
C      1  0.4577320000000  0.5971020000000  0.4961780000000 1.0
C      1  0.5161740000000  0.4119120000000  0.4585250000000 1.0
C      1  0.5358670000000  0.4924750000000  0.4524980000000 1.0
C      1  0.4600000000000  0.4360830000000  0.4041800000000 1.0
C      1  0.4124610000000  0.4325110000000  0.4627290000000 1.0
C      1  0.4326630000000  0.4117230000000  0.5285690000000 1.0
C      1  0.4169460000000  0.5080850000000  0.4124100000000 1.0
C      1  0.3991000000000  0.4670040000000  0.5163420000000 1.0
C      1  0.5598790000000  0.4878970000000  0.4058470000000 1.0
C      1  0.5659560000000  0.4763130000000  0.5134120000000 1.0
C      1  0.5113950000000  0.5444050000000  0.4021420000000 1.0
C      1  0.4117960000000  0.4793610000000  0.4737990000000 1.0
C      1  0.5025470000000  0.4158600000000  0.5742200000000 1.0
C      1  0.5723440000000  0.5168200000000  0.4843360000000 1.0
C      1  0.5621110000000  0.5491970000000  0.4800310000000 1.0
C      1  0.5024730000000  0.4361220000000  0.4691880000000 1.0
C      1  0.5155650000000  0.4390670000000  0.5821160000000 1.0
C      1  0.5597150000000  0.6042600000000  0.4705450000000 1.0
C      1  0.4434800000000  0.5249420000000  0.4191120000000 1.0
C      1  0.4981410000000  0.4762060000000  0.5504520000000 1.0
C      1  0.5087520000000  0.4453610000000  0.4103600000000 1.0
C      1  0.5482670000000  0.5578760000000  0.4436570000000 1.0
C      1  0.5047870000000  0.4941190000000  0.4662950000000 1.0
C      1  0.4619720000000  0.5446860000000  0.4729660000000 1.0
C      1  0.5774130000000  0.4329740000000  0.4943860000000 1.0
C      1  0.3994770000000  0.5067740000000  0.4344350000000 1.0
C      1  0.4740780000000  0.5544240000000  0.5405770000000 1.0
C      1  0.5023300000000  0.5719500000000  0.5116080000000 1.0
C      1  0.5319030000000  0.6111240000000  0.4792530000000 1.0
C      1  0.6088170000000  0.5304780000000  0.5237910000000 1.0
C      1  0.4858590000000  0.5528510000000  0.5936570000000 1.0
C      1  0.4372810000000  0.4037950000000  0.4947970000000 1.0
C      1  0.4273620000000  0.4812020000000  0.5105580000000 1.0
C      1  0.4982510000000  0.4663970000000  0.4802500000000 1.0
C      1  0.3984820000000  0.4848440000000  0.5456840000000 1.0
C      1  0.4783120000000  0.5640470000000  0.4886970000000 1.0
C      1  0.5246450000000  0.5785500000000  0.4870870000000 1.0
C      1  0.4978760000000  0.5765930000000  0.4560450000000 1.0
C      1  0.5702480000000  0.5746080000000  0.4584300000000 1.0
C      1  0.5646210000000  0.5193860000000  0.4154230000000 1.0
C      1  0.4372460000000  0.4737280000000  0.4518610000000 1.0
C      1  0.5963370000000  0.4944960000000  0.5568300000000 1.0
C      1  0.4478160000000  0.4958990000000  0.4053390000000 1.0
C      1  0.5611490000000  0.4271780000000  0.5578420000000 1.0
C      1  0.5016900000000  0.3963320000000  0.4922560000000 1.0
C      1  0.4513870000000  0.5257080000000  0.4479860000000 1.0
C      1  0.5868110000000  0.5559470000000  0.5188500000000 1.0
C      1  0.6274600000000  0.5169680000000  0.4762300000000 1.0
C      1  0.4703100000000  0.4053800000000  0.4478870000000 1.0
C      1  0.4158880000000  0.4417860000000  0.5327040000000 1.0
C      1  0.5613830000000  0.4873820000000  0.5933410000000 1.0
C      1  0.5204850000000  0.5254490000000  0.4359980000000 1.0
C      1  0.4589360000000  0.5472170000000  0.4043200000000 1.0
C      1  0.5491150000000  0.5834480000000  0.5676570000000 1.0
C      1  0.4835100000000  0.4591750000000  0.5992110000000 1.0
C      1  0.4334730000000  0.4547000000000  0.5562200000000 1.0
C      1  0.5856570000000  0.4513360000000  0.5375780000000 1.0
C      1  0.5750320000000  0.4902590000000  0.4682570000000 1.0
C      1  0.5709760000000  0.5323480000000  0.4448540000000 1.0
C      1  0.5999880000000  0.5292440000000  0.4589940000000 1.0
C      1  0.5354530000000  0.5570770000000  0.5532290000000 1.0
C      1  0.3965040000000  0.5236680000000  0.5204210000000 1.0
C      1  0.5623790000000  0.5409880000000  0.5877060000000 1.0
C      1  0.5979580000000  0.5379780000000  0.4921480000000 1.0
C      1  0.5729740000000  0.5718890000000  0.5527220000000 1.0
C      1  0.5814290000000  0.5054070000000  0.5147210000000 1.0
C      1  0.4509480000000  0.4906270000000  0.5579610000000 1.0
C      1  0.4901410000000  0.5261780000000  0.4383320000000 1.0
C      1  0.4381840000000  0.4098820000000  0.4610380000000 1.0
C      1  0.4431920000000  0.5380680000000  0.5842390000000 1.0
C      1  0.4337540000000  0.5034480000000  0.4782700000000 1.0
C      1  0.5459710000000  0.5425900000000  0.5076490000000 1.0
C      1  0.5267880000000  0.4706260000000  0.5080460000000 1.0
C      1  0.4918040000000  0.4466490000000  0.5511770000000 1.0
C      1  0.5316070000000  0.5134910000000  0.5322780000000 1.0
C      1  0.4878680000000  0.4790080000000  0.4405930000000 1.0
C      1  0.4287460000000  0.4778600000000  0.5794840000000 1.0
C      1  0.4924110000000  0.5006040000000  0.5304830000000 1.0
C      1  0.4848140000000  0.5208840000000  0.4691470000000 1.0
C      1  0.3959690000000  0.4809190000000  0.4460450000000 1.0
C      1  0.4412830000000  0.5631510000000  0.4289420000000 1.0
C      1  0.5419940000000  0.5218520000000  0.4589500000000 1.0
C      1  0.5816270000000  0.5470060000000  0.5656410000000 1.0
C      1  0.5057170000000  0.5304130000000  0.5242300000000 1.0
C      1  0.4747980000000  0.4316380000000  0.5277470000000 1.0
C      1  0.4956200000000  0.6009910000000  0.5611150000000 1.0
C      1  0.5344050000000  0.5458340000000  0.6009790000000 1.0
C      1  0.4971230000000  0.5665860000000  0.5579990000000 1.0
C      1  0.5204200000000  0.5197010000000  0.6071900000000 1.0
C      1  0.4727550000000  0.5241470000000  0.5455700000000 1.0
C      1  0.6025540000000  0.4765940000000  0.5321690000000 1.0
C      1  0.4313570000000  0.4349710000000  0.5047980000000 1.0
C      1  0.5490100000000  0.5280110000000  0.5525330000000 1.0
C      1  0.5970030000000  0.5237180000000  0.5529880000000 1.0
C      1  0.4124900000000  0.5473790000000  0.5019450000000 1.0
C      1  0.5132150000000  0.4247180000000  0.5362820000000 1.0
C      1  0.4629920000000  0.5698150000000  0.5171040000000 1.0
C      1  0.4055790000000  0.4522800000000  0.4406970000000 1.0
C      1  0.4564300000000  0.4589630000000  0.5313870000000 1.0
C      1  0.4324850000000  0.5061530000000  0.5898630000000 1.0
C      1  0.5100250000000  0.6104380000000  0.5054570000000 1.0
C      1  0.4211700000000  0.5701970000000  0.5249320000000 1.0
C      1  0.4032790000000  0.5289830000000  0.4531780000000 1.0
C      1  0.4818330000000  0.5268060000000  0.5025480000000 1.0
C      1  0.5271360000000  0.4827730000000  0.5385670000000 1.0
C      1  0.4972890000000  0.3877350000000  0.4593650000000 1.0
C      1  0.5700890000000  0.5829700000000  0.5223560000000 1.0
C      1  0.4407990000000  0.5571650000000  0.5493560000000 1.0
END
