TITL C-2778432-5617-546 0.00740382798927002 125000 -990.784004011838 0 0 172 (C1) n - 1
REM
REM in /home/nfs/bkarasulu/CARBON/AIRSS/Generating-Clusters/REBO/Only-C1/SD-CG/HFTN-CG
REM
REM
REM
REM
REM
REM ./C.cell (11c1c37f851c82e70ff6c80c92926a4b)
REM
REM compiler GCC version 9.2.1 20190827 (Red Hat 9.2.1-1)
REM options -cpp -mtune=generic -march=x86-64 -g -O0 -fpre-include=/usr/include/finclude/math-vector-fortran.h
REM seed -62598369 204449869 141832656 -2047329111 -2055125292 1069142856 940530416 -311812121 1564262788 1541229783 1456020489 -1791626248 -1817204995 -400901847 1167374086 1357831937 2093092351 1070276514 -1574964462 1773078168 -812155982 322703777 1466352654 -1743782628 -961171698 -51265412 1095350953 1998232222 -91750942 -1359956015 -1759043737 -749432727 -1242178496
REM
CELL 1.54180   50.00000   50.00000   50.00000   90.00000   90.00000   90.00000
LATT -1
SFAC C  
C      1  0.5508830000000  0.4544770000000  0.4970990000000 1.0
C      1  0.4006400000000  0.5328320000000  0.5215150000000 1.0
C      1  0.4812530000000  0.4382270000000  0.4829240000000 1.0
C      1  0.4937200000000  0.4339620000000  0.5901790000000 1.0
C      1  0.4368720000000  0.4500740000000  0.4970270000000 1.0
C      1  0.5234550000000  0.4394710000000  0.5104750000000 1.0
C      1  0.4328980000000  0.5574560000000  0.4533030000000 1.0
C      1  0.5346750000000  0.4083920000000  0.4533990000000 1.0
C      1  0.5081160000000  0.5321000000000  0.4391430000000 1.0
C      1  0.5377760000000  0.5911600000000  0.4509100000000 1.0
C      1  0.5609340000000  0.5049620000000  0.5734400000000 1.0
C      1  0.5066340000000  0.5889350000000  0.4755830000000 1.0
C      1  0.4204740000000  0.5121470000000  0.5551880000000 1.0
C      1  0.4716930000000  0.5578800000000  0.5810920000000 1.0
C      1  0.5149510000000  0.5128230000000  0.4731640000000 1.0
C      1  0.5425130000000  0.5206870000000  0.4918540000000 1.0
C      1  0.5261330000000  0.5437970000000  0.4643460000000 1.0
C      1  0.6000600000000  0.5360200000000  0.4916420000000 1.0
C      1  0.5711950000000  0.4469840000000  0.4703360000000 1.0
C      1  0.5756350000000  0.5414510000000  0.4309850000000 1.0
C      1  0.5766600000000  0.4288250000000  0.5298030000000 1.0
C      1  0.5547930000000  0.4029280000000  0.5284860000000 1.0
C      1  0.5923420000000  0.4694070000000  0.4622770000000 1.0
C      1  0.3853230000000  0.4926820000000  0.4954800000000 1.0
C      1  0.5693420000000  0.5324680000000  0.5058450000000 1.0
C      1  0.5721500000000  0.5619650000000  0.4794120000000 1.0
C      1  0.5174730000000  0.5669750000000  0.4995070000000 1.0
C      1  0.4109500000000  0.4770700000000  0.4830360000000 1.0
C      1  0.4840510000000  0.5085110000000  0.5650760000000 1.0
C      1  0.5379950000000  0.5975610000000  0.4845870000000 1.0
C      1  0.5030700000000  0.4031310000000  0.4474880000000 1.0
C      1  0.4537790000000  0.3981560000000  0.4803110000000 1.0
C      1  0.5111570000000  0.4720970000000  0.4659520000000 1.0
C      1  0.5565220000000  0.5633530000000  0.5334190000000 1.0
C      1  0.4478640000000  0.4115830000000  0.5659920000000 1.0
C      1  0.4951190000000  0.4940210000000  0.4165660000000 1.0
C      1  0.4257790000000  0.5715790000000  0.5087220000000 1.0
C      1  0.6033340000000  0.5180250000000  0.4475790000000 1.0
C      1  0.5012440000000  0.5376430000000  0.4086070000000 1.0
C      1  0.5448330000000  0.5635310000000  0.4647610000000 1.0
C      1  0.4912900000000  0.5043400000000  0.4899760000000 1.0
C      1  0.4915960000000  0.5654250000000  0.4261710000000 1.0
C      1  0.5790920000000  0.5103430000000  0.5373870000000 1.0
C      1  0.4158500000000  0.4444410000000  0.4400560000000 1.0
C      1  0.5593980000000  0.4100140000000  0.4991020000000 1.0
C      1  0.5964670000000  0.4549690000000  0.5198250000000 1.0
C      1  0.4397500000000  0.4827640000000  0.5739670000000 1.0
C      1  0.4933570000000  0.4675500000000  0.5888050000000 1.0
C      1  0.4117070000000  0.4809320000000  0.5566080000000 1.0
C      1  0.4655340000000  0.4744610000000  0.4512770000000 1.0
C      1  0.4659050000000  0.5864010000000  0.5335500000000 1.0
C      1  0.5265510000000  0.6027090000000  0.5164650000000 1.0
C      1  0.4925900000000  0.4436300000000  0.4213170000000 1.0
C      1  0.4554410000000  0.5727840000000  0.5562630000000 1.0
C      1  0.5588200000000  0.4496470000000  0.5503610000000 1.0
C      1  0.5354580000000  0.4955400000000  0.5922120000000 1.0
C      1  0.4529450000000  0.5331620000000  0.4201110000000 1.0
C      1  0.5217570000000  0.5194090000000  0.6011030000000 1.0
C      1  0.4356520000000  0.4976140000000  0.5294030000000 1.0
C      1  0.4813630000000  0.3872560000000  0.4974840000000 1.0
C      1  0.5919990000000  0.5449930000000  0.4602810000000 1.0
C      1  0.5466710000000  0.5427310000000  0.4300710000000 1.0
C      1  0.4760320000000  0.4179140000000  0.5067500000000 1.0
C      1  0.5006230000000  0.6222590000000  0.5075160000000 1.0
C      1  0.5222660000000  0.4910770000000  0.3993740000000 1.0
C      1  0.4425830000000  0.4115000000000  0.5381050000000 1.0
C      1  0.4428000000000  0.4359860000000  0.5253250000000 1.0
C      1  0.5794100000000  0.5886830000000  0.5244810000000 1.0
C      1  0.5443210000000  0.4454790000000  0.4157840000000 1.0
C      1  0.5001210000000  0.5477750000000  0.5345660000000 1.0
C      1  0.4389990000000  0.5178920000000  0.4653960000000 1.0
C      1  0.4705370000000  0.4563780000000  0.5676230000000 1.0
C      1  0.4138450000000  0.5573940000000  0.5302130000000 1.0
C      1  0.4786770000000  0.4534230000000  0.5390740000000 1.0
C      1  0.4285950000000  0.5530000000000  0.4853330000000 1.0
C      1  0.5501380000000  0.4761520000000  0.4069110000000 1.0
C      1  0.5642890000000  0.4657270000000  0.5221850000000 1.0
C      1  0.5365920000000  0.5148760000000  0.4393590000000 1.0
C      1  0.5423330000000  0.4763760000000  0.4737980000000 1.0
C      1  0.5622610000000  0.5367560000000  0.5856040000000 1.0
C      1  0.4095750000000  0.5274140000000  0.4906510000000 1.0
C      1  0.4731750000000  0.4689990000000  0.5123890000000 1.0
C      1  0.5861290000000  0.5177120000000  0.4156890000000 1.0
C      1  0.5145840000000  0.4599550000000  0.4088770000000 1.0
C      1  0.5150700000000  0.5339150000000  0.5071490000000 1.0
C      1  0.5851120000000  0.5582070000000  0.5486410000000 1.0
C      1  0.4809820000000  0.5221960000000  0.4531290000000 1.0
C      1  0.4475430000000  0.5889730000000  0.5115270000000 1.0
C      1  0.5494370000000  0.5718550000000  0.5033040000000 1.0
C      1  0.6039530000000  0.5102960000000  0.5136060000000 1.0
C      1  0.5509300000000  0.4956350000000  0.5239880000000 1.0
C      1  0.5524240000000  0.5029580000000  0.4642240000000 1.0
C      1  0.4424530000000  0.4452100000000  0.4188650000000 1.0
C      1  0.5752070000000  0.4778310000000  0.5587020000000 1.0
C      1  0.4981680000000  0.4652610000000  0.4936670000000 1.0
C      1  0.4544210000000  0.5323910000000  0.4898040000000 1.0
C      1  0.5211540000000  0.5226300000000  0.3928600000000 1.0
C      1  0.5473780000000  0.5823630000000  0.5671650000000 1.0
C      1  0.5318900000000  0.4468200000000  0.4630060000000 1.0
C      1  0.4634970000000  0.4929630000000  0.5814220000000 1.0
C      1  0.4826760000000  0.5145460000000  0.6208430000000 1.0
C      1  0.4745380000000  0.5377110000000  0.5553240000000 1.0
C      1  0.5905390000000  0.4733270000000  0.4931570000000 1.0
C      1  0.5025730000000  0.4942170000000  0.5441590000000 1.0
C      1  0.4032720000000  0.4720610000000  0.5246240000000 1.0
C      1  0.5974930000000  0.5349690000000  0.5442810000000 1.0
C      1  0.4798180000000  0.5587570000000  0.5085360000000 1.0
C      1  0.4487890000000  0.5343880000000  0.5883640000000 1.0
C      1  0.4750660000000  0.5192680000000  0.4046110000000 1.0
C      1  0.4449790000000  0.4609220000000  0.3956170000000 1.0
C      1  0.5120890000000  0.4244360000000  0.5697340000000 1.0
C      1  0.5264760000000  0.4093760000000  0.5216220000000 1.0
C      1  0.4295670000000  0.5586160000000  0.5538270000000 1.0
C      1  0.4561330000000  0.4504790000000  0.4709550000000 1.0
C      1  0.4483690000000  0.4847170000000  0.4273920000000 1.0
C      1  0.4023390000000  0.5082940000000  0.4342260000000 1.0
C      1  0.4847980000000  0.4070090000000  0.4697110000000 1.0
C      1  0.4930020000000  0.5112100000000  0.5201830000000 1.0
C      1  0.4613460000000  0.5925150000000  0.4849230000000 1.0
C      1  0.4633470000000  0.4291220000000  0.5813220000000 1.0
C      1  0.4593850000000  0.5140420000000  0.5153400000000 1.0
C      1  0.4097930000000  0.5324850000000  0.4569380000000 1.0
C      1  0.5426310000000  0.5383850000000  0.6067810000000 1.0
C      1  0.5050310000000  0.5886510000000  0.4440660000000 1.0
C      1  0.5351560000000  0.4961130000000  0.5526710000000 1.0
C      1  0.5101080000000  0.5514620000000  0.5660510000000 1.0
C      1  0.5019310000000  0.3919110000000  0.5224900000000 1.0
C      1  0.5192830000000  0.4749770000000  0.5749370000000 1.0
C      1  0.5291940000000  0.4489140000000  0.5580700000000 1.0
C      1  0.4450940000000  0.5852700000000  0.4577710000000 1.0
C      1  0.4659500000000  0.4867580000000  0.4005240000000 1.0
C      1  0.5263600000000  0.5662720000000  0.4295210000000 1.0
C      1  0.4385700000000  0.3881060000000  0.5247820000000 1.0
C      1  0.4865060000000  0.6083960000000  0.4872440000000 1.0
C      1  0.5030140000000  0.5287430000000  0.5817460000000 1.0
C      1  0.4165740000000  0.4776970000000  0.4319030000000 1.0
C      1  0.3913800000000  0.5041010000000  0.5218720000000 1.0
C      1  0.4693720000000  0.5605320000000  0.4777350000000 1.0
C      1  0.5215130000000  0.5751850000000  0.5752890000000 1.0
C      1  0.4286700000000  0.5345110000000  0.5692590000000 1.0
C      1  0.5482750000000  0.5959920000000  0.5365520000000 1.0
C      1  0.4613490000000  0.5424900000000  0.5278100000000 1.0
C      1  0.4976350000000  0.5849920000000  0.5210750000000 1.0
C      1  0.5672320000000  0.5615600000000  0.5718290000000 1.0
C      1  0.5712320000000  0.4915730000000  0.4160250000000 1.0
C      1  0.4239870000000  0.5019770000000  0.4988630000000 1.0
C      1  0.4354670000000  0.5127410000000  0.4337890000000 1.0
C      1  0.5195290000000  0.4253380000000  0.4278000000000 1.0
C      1  0.6170260000000  0.4900540000000  0.4532800000000 1.0
C      1  0.4130180000000  0.4311140000000  0.4713300000000 1.0
C      1  0.5750490000000  0.4993960000000  0.4993200000000 1.0
C      1  0.4677150000000  0.4481350000000  0.4327750000000 1.0
C      1  0.4795950000000  0.4898380000000  0.6074160000000 1.0
C      1  0.5875360000000  0.5617930000000  0.5088830000000 1.0
C      1  0.5234190000000  0.4831660000000  0.5081640000000 1.0
C      1  0.4651890000000  0.4981320000000  0.4722530000000 1.0
C      1  0.4662960000000  0.5519410000000  0.4447200000000 1.0
C      1  0.4986490000000  0.4082240000000  0.5501070000000 1.0
C      1  0.5548940000000  0.4341730000000  0.4440070000000 1.0
C      1  0.5988120000000  0.4836940000000  0.5349130000000 1.0
C      1  0.4305280000000  0.4104450000000  0.4765770000000 1.0
C      1  0.5105750000000  0.4622550000000  0.5327600000000 1.0
C      1  0.4999820000000  0.4942940000000  0.4479710000000 1.0
C      1  0.4491110000000  0.4808380000000  0.4958420000000 1.0
C      1  0.4037510000000  0.4498720000000  0.4984540000000 1.0
C      1  0.4278000000000  0.4668400000000  0.4615520000000 1.0
C      1  0.4726720000000  0.5380360000000  0.6088210000000 1.0
C      1  0.5343770000000  0.4205540000000  0.4840860000000 1.0
C      1  0.5818070000000  0.4293440000000  0.4954490000000 1.0
C      1  0.4354620000000  0.4646820000000  0.5340390000000 1.0
C      1  0.4801810000000  0.4241410000000  0.5330980000000 1.0
C      1  0.5781340000000  0.4952350000000  0.4476720000000 1.0
END
