TITL C-2778425-5191-747 0.00200043769771554 125000 -512.623241979645 0 0 87 (C1) n - 1
REM
REM in /home/nfs/bkarasulu/CARBON/AIRSS/Generating-Clusters/REBO/Only-C1/SD-CG/HFTN-CG
REM
REM
REM
REM
REM
REM ./C.cell (11c1c37f851c82e70ff6c80c92926a4b)
REM
REM compiler GCC version 9.2.1 20190827 (Red Hat 9.2.1-1)
REM options -cpp -mtune=generic -march=x86-64 -g -O0 -fpre-include=/usr/include/finclude/math-vector-fortran.h
REM seed -1889169919 831374779 1351214214 -85387447 -1059254918 1698559197 417669979 -1602538932 1122244475 -1798645644 -236473239 -208442432 1823567402 -1200169975 2016251379 -1314980134 -2019889235 286259534 808343543 -1084389239 1420639930 -445537879 -99221471 975617291 -2891166 -463525492 569932326 1984052828 837554091 -1784683352 1755001371 1159184875 -193465567
REM
CELL 1.54180   50.00000   50.00000   50.00000   90.00000   90.00000   90.00000
LATT -1
SFAC C  
C      1  0.5140510000000  0.5667490000000  0.5426170000000 1.0
C      1  0.5625610000000  0.5476630000000  0.5359820000000 1.0
C      1  0.5190880000000  0.4038120000000  0.6239050000000 1.0
C      1  0.5210940000000  0.4199120000000  0.4770020000000 1.0
C      1  0.4904250000000  0.5672220000000  0.4251710000000 1.0
C      1  0.5282600000000  0.4401810000000  0.5847200000000 1.0
C      1  0.4610200000000  0.5263380000000  0.4656900000000 1.0
C      1  0.4571460000000  0.4473900000000  0.6271700000000 1.0
C      1  0.5506280000000  0.5543840000000  0.4739590000000 1.0
C      1  0.5563980000000  0.4511370000000  0.5040360000000 1.0
C      1  0.4215960000000  0.4633230000000  0.5225140000000 1.0
C      1  0.5798090000000  0.4791610000000  0.4521510000000 1.0
C      1  0.4663040000000  0.5468360000000  0.5181580000000 1.0
C      1  0.4816980000000  0.4685860000000  0.5312790000000 1.0
C      1  0.4985550000000  0.4608280000000  0.4371240000000 1.0
C      1  0.4649660000000  0.5203020000000  0.5256190000000 1.0
C      1  0.4722050000000  0.5107110000000  0.5512810000000 1.0
C      1  0.5201240000000  0.5432480000000  0.5585350000000 1.0
C      1  0.4999190000000  0.4337110000000  0.5384190000000 1.0
C      1  0.5648040000000  0.5349110000000  0.4598440000000 1.0
C      1  0.4776600000000  0.5528340000000  0.4932230000000 1.0
C      1  0.5893280000000  0.5234440000000  0.4685380000000 1.0
C      1  0.5196120000000  0.5182050000000  0.4901690000000 1.0
C      1  0.4310400000000  0.5221670000000  0.4397470000000 1.0
C      1  0.4990920000000  0.4796350000000  0.5102470000000 1.0
C      1  0.5208140000000  0.5075690000000  0.5408190000000 1.0
C      1  0.5969350000000  0.4968670000000  0.4667500000000 1.0
C      1  0.4525200000000  0.4485880000000  0.4762880000000 1.0
C      1  0.5526980000000  0.4805270000000  0.5709100000000 1.0
C      1  0.4751820000000  0.5837470000000  0.4860340000000 1.0
C      1  0.5330080000000  0.5481770000000  0.4052500000000 1.0
C      1  0.4523670000000  0.4921480000000  0.5604770000000 1.0
C      1  0.5314610000000  0.3952290000000  0.4299750000000 1.0
C      1  0.4555890000000  0.4619680000000  0.6054480000000 1.0
C      1  0.5148960000000  0.5021390000000  0.5134900000000 1.0
C      1  0.5486830000000  0.4596430000000  0.5890200000000 1.0
C      1  0.5288020000000  0.5238500000000  0.4179580000000 1.0
C      1  0.4939360000000  0.4237750000000  0.4859810000000 1.0
C      1  0.4714970000000  0.5480740000000  0.4164700000000 1.0
C      1  0.5469870000000  0.5340850000000  0.5557570000000 1.0
C      1  0.4198550000000  0.5083110000000  0.4904510000000 1.0
C      1  0.5071180000000  0.5449620000000  0.4865130000000 1.0
C      1  0.5522940000000  0.5542930000000  0.5044560000000 1.0
C      1  0.5235190000000  0.4213840000000  0.6049730000000 1.0
C      1  0.4212520000000  0.5262620000000  0.4699570000000 1.0
C      1  0.4540080000000  0.4767820000000  0.5833740000000 1.0
C      1  0.4824420000000  0.4371680000000  0.4397470000000 1.0
C      1  0.4392240000000  0.4500220000000  0.5035220000000 1.0
C      1  0.4469750000000  0.5015470000000  0.5086260000000 1.0
C      1  0.5019360000000  0.4813110000000  0.4180510000000 1.0
C      1  0.5662420000000  0.4747750000000  0.5123930000000 1.0
C      1  0.5242420000000  0.5606880000000  0.4650170000000 1.0
C      1  0.4310950000000  0.5691110000000  0.5074670000000 1.0
C      1  0.4599980000000  0.4746430000000  0.5056270000000 1.0
C      1  0.4858890000000  0.4741990000000  0.4825450000000 1.0
C      1  0.4088600000000  0.4901360000000  0.5121260000000 1.0
C      1  0.5669180000000  0.4926580000000  0.4304500000000 1.0
C      1  0.4413420000000  0.5530550000000  0.4628220000000 1.0
C      1  0.4911510000000  0.4281830000000  0.5136730000000 1.0
C      1  0.5065860000000  0.5793510000000  0.4952310000000 1.0
C      1  0.4887400000000  0.5788610000000  0.5473000000000 1.0
C      1  0.5131690000000  0.4385620000000  0.5611410000000 1.0
C      1  0.5415600000000  0.4319070000000  0.4924080000000 1.0
C      1  0.4571720000000  0.4766530000000  0.4658930000000 1.0
C      1  0.5500440000000  0.5025200000000  0.5505030000000 1.0
C      1  0.4990450000000  0.5195170000000  0.5585700000000 1.0
C      1  0.4454970000000  0.5743350000000  0.4835190000000 1.0
C      1  0.4656930000000  0.5678810000000  0.5371540000000 1.0
C      1  0.5344450000000  0.5104560000000  0.4686820000000 1.0
C      1  0.5700090000000  0.5264940000000  0.5138430000000 1.0
C      1  0.4252180000000  0.5216110000000  0.5276430000000 1.0
C      1  0.5053500000000  0.5087950000000  0.4120190000000 1.0
C      1  0.5618500000000  0.4622790000000  0.4660370000000 1.0
C      1  0.4470150000000  0.5463710000000  0.4299950000000 1.0
C      1  0.5349470000000  0.4637640000000  0.4691770000000 1.0
C      1  0.5662930000000  0.5001540000000  0.5240200000000 1.0
C      1  0.5264400000000  0.4071830000000  0.4527500000000 1.0
C      1  0.5480570000000  0.5156960000000  0.4393400000000 1.0
C      1  0.4734960000000  0.4308980000000  0.4667330000000 1.0
C      1  0.4494720000000  0.5002240000000  0.4550790000000 1.0
C      1  0.4237310000000  0.5476300000000  0.5225110000000 1.0
C      1  0.5640560000000  0.4579770000000  0.6115280000000 1.0
C      1  0.5108930000000  0.5699560000000  0.4426020000000 1.0
C      1  0.4825620000000  0.5244390000000  0.4051720000000 1.0
C      1  0.5080770000000  0.4677370000000  0.4634380000000 1.0
C      1  0.5256740000000  0.5694130000000  0.5163370000000 1.0
C      1  0.4277920000000  0.4907750000000  0.5418590000000 1.0
END
