TITL C-2778430-5657-202 0.00193588871408829 125000 -886.142132132399 0 0 153 (C1) n - 1
REM
REM in /home/nfs/bkarasulu/CARBON/AIRSS/Generating-Clusters/REBO/Only-C1/SD-CG/HFTN-CG
REM
REM
REM
REM
REM
REM ./C.cell (11c1c37f851c82e70ff6c80c92926a4b)
REM
REM compiler GCC version 9.2.1 20190827 (Red Hat 9.2.1-1)
REM options -cpp -mtune=generic -march=x86-64 -g -O0 -fpre-include=/usr/include/finclude/math-vector-fortran.h
REM seed -1099871011 -1100359994 452766125 -1848051570 1894760257 1310852780 1615000182 1131013939 1128723626 1347877483 861523929 1210290930 1324386609 -41490547 287477832 -177835154 -1498746895 -810458410 -237565560 1943844693 -614869646 1104687263 -1475599013 1813499981 -702921256 -1083479727 753352925 -1101224622 1142604675 1983299749 -2125022671 2075459382 1630064527
REM
CELL 1.54180   50.00000   50.00000   50.00000   90.00000   90.00000   90.00000
LATT -1
SFAC C  
C      1  0.5113560000000  0.4393120000000  0.4807700000000 1.0
C      1  0.4485990000000  0.4191450000000  0.4795900000000 1.0
C      1  0.5058190000000  0.5079410000000  0.4389810000000 1.0
C      1  0.4073910000000  0.4584150000000  0.4893110000000 1.0
C      1  0.4472150000000  0.4560930000000  0.4349710000000 1.0
C      1  0.4218880000000  0.4489810000000  0.4453740000000 1.0
C      1  0.5029470000000  0.5112890000000  0.5153080000000 1.0
C      1  0.4897290000000  0.4158530000000  0.4925680000000 1.0
C      1  0.4678130000000  0.5603290000000  0.4543950000000 1.0
C      1  0.4507010000000  0.4743480000000  0.4146390000000 1.0
C      1  0.5077440000000  0.4125110000000  0.4371090000000 1.0
C      1  0.5460480000000  0.4532920000000  0.4401610000000 1.0
C      1  0.4639820000000  0.5450280000000  0.5015790000000 1.0
C      1  0.5435360000000  0.5326640000000  0.4072460000000 1.0
C      1  0.4353910000000  0.5357450000000  0.4892410000000 1.0
C      1  0.4710280000000  0.4461850000000  0.4508450000000 1.0
C      1  0.5033060000000  0.5439000000000  0.5087230000000 1.0
C      1  0.5333920000000  0.5851190000000  0.4694320000000 1.0
C      1  0.5090170000000  0.5298870000000  0.6112600000000 1.0
C      1  0.4131720000000  0.5026700000000  0.5299940000000 1.0
C      1  0.5430740000000  0.4745520000000  0.3989590000000 1.0
C      1  0.6008770000000  0.5404050000000  0.4662790000000 1.0
C      1  0.5867270000000  0.5358220000000  0.5213870000000 1.0
C      1  0.5039340000000  0.5015580000000  0.5457940000000 1.0
C      1  0.5691940000000  0.5605580000000  0.5701870000000 1.0
C      1  0.4720200000000  0.5358340000000  0.4732540000000 1.0
C      1  0.5573080000000  0.5297240000000  0.4892290000000 1.0
C      1  0.4168840000000  0.4547530000000  0.5628140000000 1.0
C      1  0.5195740000000  0.4090450000000  0.4671350000000 1.0
C      1  0.4851200000000  0.5067390000000  0.5828380000000 1.0
C      1  0.5535230000000  0.5591000000000  0.4608410000000 1.0
C      1  0.5376220000000  0.4474860000000  0.3996900000000 1.0
C      1  0.4845460000000  0.4646860000000  0.5055970000000 1.0
C      1  0.4998600000000  0.4578030000000  0.4585990000000 1.0
C      1  0.5616530000000  0.5798140000000  0.5154690000000 1.0
C      1  0.4315380000000  0.5332050000000  0.5732110000000 1.0
C      1  0.4429860000000  0.4634350000000  0.5062660000000 1.0
C      1  0.5795210000000  0.5155960000000  0.5820160000000 1.0
C      1  0.5164730000000  0.5841330000000  0.5550410000000 1.0
C      1  0.5014550000000  0.5628980000000  0.4804250000000 1.0
C      1  0.4787560000000  0.4419530000000  0.5886740000000 1.0
C      1  0.5021550000000  0.5424780000000  0.5566000000000 1.0
C      1  0.4094050000000  0.4688870000000  0.4625100000000 1.0
C      1  0.4978740000000  0.5506700000000  0.5897970000000 1.0
C      1  0.5652720000000  0.4775150000000  0.4366140000000 1.0
C      1  0.5482690000000  0.4947780000000  0.5284730000000 1.0
C      1  0.5873920000000  0.5016580000000  0.5321940000000 1.0
C      1  0.4949030000000  0.5491560000000  0.4007380000000 1.0
C      1  0.5208870000000  0.5497880000000  0.5351170000000 1.0
C      1  0.4040200000000  0.4548770000000  0.5411930000000 1.0
C      1  0.4341500000000  0.4793000000000  0.3931930000000 1.0
C      1  0.4127900000000  0.4734140000000  0.5176360000000 1.0
C      1  0.5838760000000  0.5111410000000  0.5001510000000 1.0
C      1  0.5678350000000  0.4694220000000  0.5200780000000 1.0
C      1  0.5805240000000  0.5615050000000  0.5054300000000 1.0
C      1  0.5752430000000  0.4878140000000  0.5808220000000 1.0
C      1  0.5532020000000  0.5214400000000  0.5376410000000 1.0
C      1  0.5228660000000  0.5683370000000  0.5786120000000 1.0
C      1  0.4521710000000  0.5271970000000  0.4175520000000 1.0
C      1  0.4243610000000  0.5331260000000  0.4361690000000 1.0
C      1  0.5658500000000  0.4246830000000  0.5334410000000 1.0
C      1  0.5145050000000  0.5181710000000  0.5736770000000 1.0
C      1  0.5605980000000  0.5111890000000  0.4357670000000 1.0
C      1  0.5827140000000  0.5267590000000  0.5536150000000 1.0
C      1  0.5353360000000  0.5388590000000  0.5912290000000 1.0
C      1  0.5416740000000  0.4520170000000  0.5845780000000 1.0
C      1  0.4485080000000  0.5919440000000  0.4879740000000 1.0
C      1  0.5091870000000  0.4531680000000  0.5885460000000 1.0
C      1  0.5650870000000  0.5401290000000  0.5890580000000 1.0
C      1  0.4919980000000  0.4113260000000  0.5216320000000 1.0
C      1  0.5216930000000  0.4295180000000  0.4192390000000 1.0
C      1  0.5284830000000  0.4707900000000  0.5392760000000 1.0
C      1  0.5175710000000  0.4581730000000  0.5085240000000 1.0
C      1  0.4649330000000  0.5691370000000  0.5504570000000 1.0
C      1  0.4296140000000  0.5043200000000  0.5560150000000 1.0
C      1  0.4743570000000  0.4928710000000  0.4208900000000 1.0
C      1  0.4051860000000  0.5239690000000  0.5125460000000 1.0
C      1  0.3972960000000  0.5292760000000  0.4552140000000 1.0
C      1  0.4315310000000  0.5037000000000  0.4904540000000 1.0
C      1  0.4889190000000  0.4792420000000  0.5980200000000 1.0
C      1  0.4803970000000  0.5683630000000  0.5136010000000 1.0
C      1  0.4180280000000  0.4310000000000  0.4896490000000 1.0
C      1  0.5505320000000  0.4322070000000  0.4574840000000 1.0
C      1  0.4807810000000  0.5053110000000  0.4742440000000 1.0
C      1  0.5462720000000  0.5429530000000  0.5141690000000 1.0
C      1  0.5813710000000  0.5588030000000  0.4763990000000 1.0
C      1  0.5797010000000  0.4560760000000  0.4933140000000 1.0
C      1  0.5009190000000  0.4993020000000  0.3920840000000 1.0
C      1  0.5470340000000  0.4450620000000  0.5129600000000 1.0
C      1  0.4646820000000  0.4890220000000  0.4533230000000 1.0
C      1  0.5467410000000  0.5011830000000  0.4062540000000 1.0
C      1  0.5146700000000  0.4787230000000  0.5674170000000 1.0
C      1  0.4261810000000  0.5744330000000  0.4875570000000 1.0
C      1  0.4560230000000  0.5565800000000  0.4301660000000 1.0
C      1  0.5029040000000  0.5982500000000  0.4620520000000 1.0
C      1  0.4876130000000  0.5863480000000  0.5511050000000 1.0
C      1  0.4506760000000  0.5013350000000  0.5164140000000 1.0
C      1  0.5539520000000  0.5442130000000  0.4334280000000 1.0
C      1  0.4216570000000  0.5514650000000  0.4637380000000 1.0
C      1  0.5129280000000  0.4862800000000  0.4600010000000 1.0
C      1  0.5429540000000  0.4057170000000  0.5169800000000 1.0
C      1  0.4496110000000  0.4786530000000  0.4810820000000 1.0
C      1  0.4793940000000  0.5217060000000  0.4029120000000 1.0
C      1  0.4224230000000  0.4236170000000  0.4593750000000 1.0
C      1  0.5522300000000  0.4496990000000  0.5522980000000 1.0
C      1  0.5214310000000  0.4331260000000  0.5504130000000 1.0
C      1  0.5396750000000  0.4859860000000  0.4766500000000 1.0
C      1  0.4758650000000  0.4302640000000  0.5363090000000 1.0
C      1  0.4124330000000  0.4984030000000  0.4553100000000 1.0
C      1  0.4752830000000  0.5376380000000  0.5454110000000 1.0
C      1  0.5037010000000  0.4780620000000  0.4126150000000 1.0
C      1  0.4501650000000  0.5300740000000  0.5259020000000 1.0
C      1  0.5160400000000  0.4590940000000  0.4311340000000 1.0
C      1  0.4594950000000  0.4651160000000  0.5887020000000 1.0
C      1  0.5094860000000  0.5614920000000  0.4478030000000 1.0
C      1  0.5371530000000  0.5906420000000  0.4989440000000 1.0
C      1  0.4935030000000  0.3887920000000  0.4754260000000 1.0
C      1  0.5087660000000  0.5017800000000  0.6144490000000 1.0
C      1  0.4763760000000  0.5847310000000  0.4718570000000 1.0
C      1  0.5725560000000  0.4255390000000  0.4999490000000 1.0
C      1  0.4958800000000  0.4466930000000  0.5514350000000 1.0
C      1  0.5131650000000  0.5159000000000  0.4771050000000 1.0
C      1  0.4680180000000  0.4004360000000  0.4627650000000 1.0
C      1  0.4567420000000  0.5236810000000  0.5915160000000 1.0
C      1  0.5278130000000  0.4876800000000  0.5958180000000 1.0
C      1  0.5234210000000  0.5897250000000  0.4366510000000 1.0
C      1  0.5606490000000  0.5076790000000  0.4677700000000 1.0
C      1  0.5683150000000  0.4688420000000  0.4695120000000 1.0
C      1  0.4407330000000  0.4741230000000  0.5670690000000 1.0
C      1  0.5189450000000  0.4110680000000  0.5315440000000 1.0
C      1  0.5473710000000  0.4106820000000  0.4836250000000 1.0
C      1  0.4407200000000  0.5040730000000  0.4393730000000 1.0
C      1  0.5337120000000  0.5875110000000  0.5323000000000 1.0
C      1  0.4382880000000  0.5507450000000  0.5502550000000 1.0
C      1  0.4980340000000  0.5342150000000  0.4527780000000 1.0
C      1  0.5529880000000  0.5550070000000  0.5453740000000 1.0
C      1  0.4000990000000  0.5129700000000  0.4835350000000 1.0
C      1  0.4718640000000  0.4435200000000  0.4849600000000 1.0
C      1  0.4550390000000  0.4436860000000  0.5224020000000 1.0
C      1  0.5751240000000  0.4760330000000  0.5514370000000 1.0
C      1  0.5290220000000  0.5444580000000  0.4782420000000 1.0
C      1  0.4684270000000  0.5922350000000  0.5103020000000 1.0
C      1  0.4873510000000  0.4737320000000  0.5386380000000 1.0
C      1  0.4785440000000  0.4951410000000  0.5031560000000 1.0
C      1  0.4791680000000  0.4169270000000  0.4412600000000 1.0
C      1  0.5270330000000  0.4911890000000  0.5049210000000 1.0
C      1  0.5554180000000  0.4758140000000  0.5973390000000 1.0
C      1  0.5086410000000  0.5674030000000  0.4155850000000 1.0
C      1  0.4145960000000  0.5532540000000  0.5097880000000 1.0
C      1  0.5893890000000  0.4918650000000  0.4555310000000 1.0
C      1  0.4625600000000  0.5125240000000  0.5596190000000 1.0
C      1  0.4568200000000  0.4805350000000  0.5394870000000 1.0
C      1  0.5995510000000  0.5140700000000  0.4741490000000 1.0
END
