TITL C-2778437-8639-583 -0.000526053070902128 125000 -230.504783705925 0 0 41 (C1) n - 1
REM
REM in /home/nfs/bkarasulu/CARBON/AIRSS/Generating-Clusters/REBO/Only-C1/SD-CG/HFTN-CG
REM
REM
REM
REM
REM
REM ./C.cell (11c1c37f851c82e70ff6c80c92926a4b)
REM
REM compiler GCC version 9.2.1 20190827 (Red Hat 9.2.1-1)
REM options -cpp -mtune=generic -march=x86-64 -g -O0 -fpre-include=/usr/include/finclude/math-vector-fortran.h
REM seed 405653348 -1001740801 -1035245878 -1949785413 -1369888238 -1027772720 -686033178 1493194900 -271138957 -1780011162 -2120984337 693381382 -1697891091 -326673593 1845419059 -1936234562 -1803642844 1093383232 -265650193 423027979 -38644603 715548599 -452532557 1125000724 -1532249897 1274071323 -1090112609 -798176785 89006523 651429403 -2004450161 683939492 -1005527150
REM
CELL 1.54180   50.00000   50.00000   50.00000   90.00000   90.00000   90.00000
LATT -1
SFAC C  
C      1  0.5095260000000  0.4396730000000  0.5346270000000 1.0
C      1  0.5148750000000  0.4745150000000  0.4898840000000 1.0
C      1  0.4964560000000  0.4964200000000  0.5292310000000 1.0
C      1  0.5148420000000  0.5435370000000  0.5469760000000 1.0
C      1  0.4553210000000  0.5304280000000  0.4677360000000 1.0
C      1  0.4782830000000  0.4807380000000  0.4750450000000 1.0
C      1  0.5313280000000  0.5143620000000  0.5407350000000 1.0
C      1  0.5087360000000  0.4928640000000  0.4414900000000 1.0
C      1  0.5284350000000  0.4607000000000  0.5421060000000 1.0
C      1  0.5878110000000  0.4963080000000  0.4522850000000 1.0
C      1  0.4860400000000  0.4785780000000  0.5066350000000 1.0
C      1  0.4625070000000  0.5102220000000  0.5130010000000 1.0
C      1  0.4461140000000  0.5346100000000  0.5141460000000 1.0
C      1  0.4724140000000  0.5046460000000  0.4597730000000 1.0
C      1  0.5093090000000  0.4430140000000  0.4843310000000 1.0
C      1  0.5030130000000  0.4663890000000  0.4385930000000 1.0
C      1  0.4969130000000  0.5230800000000  0.4442440000000 1.0
C      1  0.4479800000000  0.4434040000000  0.5052530000000 1.0
C      1  0.4871410000000  0.5397680000000  0.4713490000000 1.0
C      1  0.5055050000000  0.5623290000000  0.4808900000000 1.0
C      1  0.4342740000000  0.4901480000000  0.5475270000000 1.0
C      1  0.5437590000000  0.5144320000000  0.5091950000000 1.0
C      1  0.4376380000000  0.5401820000000  0.4874140000000 1.0
C      1  0.5496800000000  0.4647420000000  0.5232120000000 1.0
C      1  0.4973840000000  0.5264720000000  0.5235420000000 1.0
C      1  0.5126910000000  0.5010640000000  0.4735180000000 1.0
C      1  0.4537520000000  0.4883600000000  0.5279210000000 1.0
C      1  0.4912770000000  0.4567790000000  0.4629910000000 1.0
C      1  0.4898710000000  0.5162000000000  0.4937000000000 1.0
C      1  0.5233570000000  0.5617630000000  0.4983520000000 1.0
C      1  0.5667200000000  0.5050580000000  0.4636810000000 1.0
C      1  0.4820260000000  0.5500850000000  0.5408440000000 1.0
C      1  0.4560020000000  0.5529360000000  0.5338830000000 1.0
C      1  0.5416020000000  0.5154790000000  0.4772540000000 1.0
C      1  0.5421480000000  0.4822810000000  0.5033310000000 1.0
C      1  0.5173800000000  0.4869530000000  0.5477610000000 1.0
C      1  0.5130410000000  0.4281040000000  0.5081970000000 1.0
C      1  0.5334000000000  0.5440800000000  0.5192390000000 1.0
C      1  0.4820930000000  0.4440950000000  0.5416300000000 1.0
C      1  0.5244940000000  0.5357650000000  0.4578240000000 1.0
C      1  0.4648590000000  0.4594380000000  0.5206550000000 1.0
END
