TITL C-2778430-5657-718 0.000528739767149638 125000 -687.301328336336 0 0 116 (C1) n - 1
REM
REM in /home/nfs/bkarasulu/CARBON/AIRSS/Generating-Clusters/REBO/Only-C1/SD-CG/HFTN-CG
REM
REM
REM
REM
REM
REM ./C.cell (11c1c37f851c82e70ff6c80c92926a4b)
REM
REM compiler GCC version 9.2.1 20190827 (Red Hat 9.2.1-1)
REM options -cpp -mtune=generic -march=x86-64 -g -O0 -fpre-include=/usr/include/finclude/math-vector-fortran.h
REM seed 1832353315 1353342193 1089746147 1348537979 -33384508 -1084854844 1837942354 969944047 -1533213530 -1633116037 -1641761526 1537604859 1726241065 -994845928 1870065108 1361617934 -2144032293 893411607 1440652031 -1108420516 1704282284 2025324890 -12531327 -2102754135 -1845139210 -1584109046 2124435129 379542306 1190084452 1868503834 410133110 -1859141732 -785152482
REM
CELL 1.54180   50.00000   50.00000   50.00000   90.00000   90.00000   90.00000
LATT -1
SFAC C  
C      1  0.5157460000000  0.4691430000000  0.5815070000000 1.0
C      1  0.5263810000000  0.4345280000000  0.4809760000000 1.0
C      1  0.4833580000000  0.4151260000000  0.5048080000000 1.0
C      1  0.4710370000000  0.5761150000000  0.4749170000000 1.0
C      1  0.5214830000000  0.5173090000000  0.5787140000000 1.0
C      1  0.5225500000000  0.4714500000000  0.4490100000000 1.0
C      1  0.5235220000000  0.5152750000000  0.4137670000000 1.0
C      1  0.5697630000000  0.5315440000000  0.4576500000000 1.0
C      1  0.4749050000000  0.5231280000000  0.5130090000000 1.0
C      1  0.4997520000000  0.4875810000000  0.4895720000000 1.0
C      1  0.4103280000000  0.4684990000000  0.5219880000000 1.0
C      1  0.4495120000000  0.5126150000000  0.4284930000000 1.0
C      1  0.4779860000000  0.4642000000000  0.5247150000000 1.0
C      1  0.5409260000000  0.5894460000000  0.4845320000000 1.0
C      1  0.4606850000000  0.4773280000000  0.5791230000000 1.0
C      1  0.5591130000000  0.4347930000000  0.4395180000000 1.0
C      1  0.4733260000000  0.4620130000000  0.4741140000000 1.0
C      1  0.5736420000000  0.5757270000000  0.5192020000000 1.0
C      1  0.5474840000000  0.4653890000000  0.4997820000000 1.0
C      1  0.5502990000000  0.4818910000000  0.5225610000000 1.0
C      1  0.5100320000000  0.4584060000000  0.4134040000000 1.0
C      1  0.4237960000000  0.4618300000000  0.5473300000000 1.0
C      1  0.4974940000000  0.4866010000000  0.5193910000000 1.0
C      1  0.4455520000000  0.4417740000000  0.5467490000000 1.0
C      1  0.5097150000000  0.4128170000000  0.5216130000000 1.0
C      1  0.5096430000000  0.5041730000000  0.5424340000000 1.0
C      1  0.4291970000000  0.4628110000000  0.4962370000000 1.0
C      1  0.6073860000000  0.5367350000000  0.5367460000000 1.0
C      1  0.4268610000000  0.5548760000000  0.4717620000000 1.0
C      1  0.4869810000000  0.5256640000000  0.4255180000000 1.0
C      1  0.4879690000000  0.4470210000000  0.5491150000000 1.0
C      1  0.4220000000000  0.5270800000000  0.4827670000000 1.0
C      1  0.4627390000000  0.5430750000000  0.4361460000000 1.0
C      1  0.5052250000000  0.5557350000000  0.4899970000000 1.0
C      1  0.4697340000000  0.5775370000000  0.5189490000000 1.0
C      1  0.4049510000000  0.4990220000000  0.5191210000000 1.0
C      1  0.4923070000000  0.5866590000000  0.4959640000000 1.0
C      1  0.5521420000000  0.5513620000000  0.5547230000000 1.0
C      1  0.5667140000000  0.5019960000000  0.4521900000000 1.0
C      1  0.4891540000000  0.4262680000000  0.4484950000000 1.0
C      1  0.4373370000000  0.4407210000000  0.4407700000000 1.0
C      1  0.5000720000000  0.4144400000000  0.4765480000000 1.0
C      1  0.4436920000000  0.4640350000000  0.4259350000000 1.0
C      1  0.4072790000000  0.5257970000000  0.5075700000000 1.0
C      1  0.5717690000000  0.4595980000000  0.4848410000000 1.0
C      1  0.5254070000000  0.5824520000000  0.5325960000000 1.0
C      1  0.4730750000000  0.5001780000000  0.4080410000000 1.0
C      1  0.5426390000000  0.4937970000000  0.4370100000000 1.0
C      1  0.4482360000000  0.5105500000000  0.4806630000000 1.0
C      1  0.4651160000000  0.5228710000000  0.5401370000000 1.0
C      1  0.5316390000000  0.5670500000000  0.4626100000000 1.0
C      1  0.5803310000000  0.5576880000000  0.4709990000000 1.0
C      1  0.4392700000000  0.5661020000000  0.5202510000000 1.0
C      1  0.4967080000000  0.5096320000000  0.4680020000000 1.0
C      1  0.5323000000000  0.5486590000000  0.5750260000000 1.0
C      1  0.4698680000000  0.4993200000000  0.5542000000000 1.0
C      1  0.5378840000000  0.4563850000000  0.5701530000000 1.0
C      1  0.5221390000000  0.4097530000000  0.4499390000000 1.0
C      1  0.5182260000000  0.5488270000000  0.4170010000000 1.0
C      1  0.4808480000000  0.4701590000000  0.4196590000000 1.0
C      1  0.4704120000000  0.5256210000000  0.5842130000000 1.0
C      1  0.5092620000000  0.5631210000000  0.4404270000000 1.0
C      1  0.5208370000000  0.4678720000000  0.4815890000000 1.0
C      1  0.5147240000000  0.5210930000000  0.4452260000000 1.0
C      1  0.4818780000000  0.5654980000000  0.4501610000000 1.0
C      1  0.4652640000000  0.4895870000000  0.4813670000000 1.0
C      1  0.5327220000000  0.4304100000000  0.5606890000000 1.0
C      1  0.5069110000000  0.4950250000000  0.5922950000000 1.0
C      1  0.4561420000000  0.5397210000000  0.4664830000000 1.0
C      1  0.4433760000000  0.5214970000000  0.5742090000000 1.0
C      1  0.4350300000000  0.4973940000000  0.5337410000000 1.0
C      1  0.5820540000000  0.4754110000000  0.5616410000000 1.0
C      1  0.5557050000000  0.5268540000000  0.5406920000000 1.0
C      1  0.5795720000000  0.4314630000000  0.4834500000000 1.0
C      1  0.5464220000000  0.5202220000000  0.4880400000000 1.0
C      1  0.5486040000000  0.4013500000000  0.4587260000000 1.0
C      1  0.4564090000000  0.5510730000000  0.5454840000000 1.0
C      1  0.4284050000000  0.4473830000000  0.4671230000000 1.0
C      1  0.5331970000000  0.4152130000000  0.5061740000000 1.0
C      1  0.5521930000000  0.5752190000000  0.5385700000000 1.0
C      1  0.4890340000000  0.5525450000000  0.5164250000000 1.0
C      1  0.5791020000000  0.4809770000000  0.4671680000000 1.0
C      1  0.5529070000000  0.5091270000000  0.5169440000000 1.0
C      1  0.5056400000000  0.5653660000000  0.5503800000000 1.0
C      1  0.5268930000000  0.4815870000000  0.4105700000000 1.0
C      1  0.4792300000000  0.4993280000000  0.5929850000000 1.0
C      1  0.4331290000000  0.4893700000000  0.5658030000000 1.0
C      1  0.5131260000000  0.4330410000000  0.4266040000000 1.0
C      1  0.4740240000000  0.5684360000000  0.5576420000000 1.0
C      1  0.5778940000000  0.4169650000000  0.4548020000000 1.0
C      1  0.4372350000000  0.4895130000000  0.4407310000000 1.0
C      1  0.5375960000000  0.5339470000000  0.4578010000000 1.0
C      1  0.5391960000000  0.4456300000000  0.4540960000000 1.0
C      1  0.4586130000000  0.4292130000000  0.5240810000000 1.0
C      1  0.4184330000000  0.5432050000000  0.5283500000000 1.0
C      1  0.5684970000000  0.5817530000000  0.4907160000000 1.0
C      1  0.4836950000000  0.4964790000000  0.4412830000000 1.0
C      1  0.5395380000000  0.5037110000000  0.5542500000000 1.0
C      1  0.4493440000000  0.4753480000000  0.5182430000000 1.0
C      1  0.4730800000000  0.4456680000000  0.4983200000000 1.0
C      1  0.4947970000000  0.4779650000000  0.5582520000000 1.0
C      1  0.4640940000000  0.4485180000000  0.5697770000000 1.0
C      1  0.4911450000000  0.4581640000000  0.4486310000000 1.0
C      1  0.4455240000000  0.5717200000000  0.4878080000000 1.0
C      1  0.5568820000000  0.4097610000000  0.4878310000000 1.0
C      1  0.5889290000000  0.5492320000000  0.5214220000000 1.0
C      1  0.4272870000000  0.4796520000000  0.4666860000000 1.0
C      1  0.4827140000000  0.5323100000000  0.4826040000000 1.0
C      1  0.5357320000000  0.5511140000000  0.4933220000000 1.0
C      1  0.5686390000000  0.5424900000000  0.4978100000000 1.0
C      1  0.5549940000000  0.4755870000000  0.5541520000000 1.0
C      1  0.5089980000000  0.4261130000000  0.5459830000000 1.0
C      1  0.5036120000000  0.5333450000000  0.5389020000000 1.0
C      1  0.4263970000000  0.5251920000000  0.5493640000000 1.0
C      1  0.4985380000000  0.5426310000000  0.5755160000000 1.0
C      1  0.5211720000000  0.5914180000000  0.5058810000000 1.0
END
