TITL C-2778424-3986-1434 -0.00335503243696095 125000 -948.872491089554 0 0 164 (C1) n - 1
REM
REM in /home/nfs/bkarasulu/CARBON/AIRSS/Generating-Clusters/REBO/Only-C1/SD-CG/HFTN-CG
REM
REM
REM
REM
REM
REM ./C.cell (11c1c37f851c82e70ff6c80c92926a4b)
REM
REM compiler GCC version 9.2.1 20190827 (Red Hat 9.2.1-1)
REM options -cpp -mtune=generic -march=x86-64 -g -O0 -fpre-include=/usr/include/finclude/math-vector-fortran.h
REM seed -673342807 619137145 1074762060 -302057512 -544422945 749619541 1523508896 207811195 416545742 1504215495 -306517804 1882215565 -1044310090 151762224 28224760 -1763982999 630784732 1642456766 -1332094982 -467840115 1236300513 -267360431 1442187734 854729397 1637716481 1503624502 892994600 -1066438383 51975002 1724869350 991069225 -570024415 -1744707237
REM
CELL 1.54180   50.00000   50.00000   50.00000   90.00000   90.00000   90.00000
LATT -1
SFAC C  
C      1  0.5041330000000  0.5686920000000  0.5707760000000 1.0
C      1  0.5196590000000  0.5446320000000  0.4748850000000 1.0
C      1  0.4426580000000  0.5107940000000  0.5350110000000 1.0
C      1  0.5439530000000  0.4447490000000  0.4211350000000 1.0
C      1  0.5375280000000  0.4770970000000  0.4874780000000 1.0
C      1  0.5339280000000  0.5175530000000  0.4493930000000 1.0
C      1  0.5130800000000  0.5218170000000  0.5482410000000 1.0
C      1  0.4701370000000  0.4439170000000  0.4314800000000 1.0
C      1  0.4855750000000  0.4032250000000  0.4491020000000 1.0
C      1  0.4886510000000  0.4988760000000  0.5025600000000 1.0
C      1  0.4059190000000  0.4862390000000  0.5418270000000 1.0
C      1  0.4835170000000  0.5718280000000  0.4206830000000 1.0
C      1  0.5570330000000  0.4245100000000  0.5825230000000 1.0
C      1  0.3900850000000  0.5330580000000  0.5140500000000 1.0
C      1  0.6032050000000  0.5154810000000  0.4738020000000 1.0
C      1  0.4504640000000  0.5944700000000  0.4679610000000 1.0
C      1  0.5837110000000  0.5372460000000  0.4263640000000 1.0
C      1  0.5454090000000  0.5145480000000  0.4181980000000 1.0
C      1  0.4249810000000  0.5841320000000  0.4768430000000 1.0
C      1  0.5045840000000  0.4020510000000  0.5532440000000 1.0
C      1  0.4839200000000  0.5964060000000  0.4634810000000 1.0
C      1  0.4819080000000  0.4316400000000  0.4996990000000 1.0
C      1  0.4972700000000  0.5514950000000  0.5071230000000 1.0
C      1  0.4937710000000  0.4335370000000  0.5580150000000 1.0
C      1  0.4592520000000  0.4282310000000  0.5568890000000 1.0
C      1  0.3990320000000  0.4504210000000  0.4822950000000 1.0
C      1  0.5249060000000  0.5922940000000  0.5133390000000 1.0
C      1  0.4723930000000  0.4133530000000  0.4762300000000 1.0
C      1  0.5299100000000  0.5442860000000  0.4161690000000 1.0
C      1  0.4748760000000  0.4025170000000  0.5426790000000 1.0
C      1  0.4296330000000  0.4261420000000  0.5176050000000 1.0
C      1  0.4492170000000  0.5013090000000  0.5819410000000 1.0
C      1  0.4500170000000  0.4666940000000  0.5626040000000 1.0
C      1  0.4486180000000  0.4352740000000  0.4460650000000 1.0
C      1  0.5104030000000  0.5636110000000  0.4327400000000 1.0
C      1  0.5555370000000  0.5563890000000  0.4307440000000 1.0
C      1  0.4982910000000  0.4729620000000  0.5227330000000 1.0
C      1  0.4926840000000  0.4607770000000  0.4914480000000 1.0
C      1  0.6054120000000  0.5427220000000  0.4879060000000 1.0
C      1  0.5746490000000  0.4595260000000  0.4509830000000 1.0
C      1  0.5304820000000  0.4217480000000  0.4349510000000 1.0
C      1  0.5639000000000  0.4818440000000  0.4727220000000 1.0
C      1  0.5938280000000  0.4375470000000  0.4958420000000 1.0
C      1  0.5108430000000  0.5224270000000  0.5143140000000 1.0
C      1  0.4892030000000  0.5813790000000  0.5001470000000 1.0
C      1  0.5785840000000  0.5103750000000  0.5618580000000 1.0
C      1  0.4287180000000  0.5125230000000  0.4151840000000 1.0
C      1  0.5903770000000  0.4664050000000  0.4870080000000 1.0
C      1  0.4833050000000  0.5199030000000  0.5909220000000 1.0
C      1  0.5025140000000  0.6129270000000  0.5207800000000 1.0
C      1  0.4136560000000  0.4544150000000  0.5516820000000 1.0
C      1  0.5521460000000  0.5344920000000  0.4715060000000 1.0
C      1  0.5483510000000  0.4138600000000  0.4613080000000 1.0
C      1  0.5292510000000  0.5742670000000  0.5405580000000 1.0
C      1  0.5410300000000  0.4684340000000  0.4061710000000 1.0
C      1  0.4246080000000  0.4873560000000  0.5706440000000 1.0
C      1  0.4452950000000  0.4693330000000  0.5081460000000 1.0
C      1  0.4754900000000  0.5683520000000  0.4512820000000 1.0
C      1  0.5739370000000  0.4305980000000  0.5290580000000 1.0
C      1  0.3905220000000  0.5002770000000  0.5149340000000 1.0
C      1  0.4973790000000  0.4697550000000  0.5912990000000 1.0
C      1  0.5252040000000  0.4574380000000  0.5868750000000 1.0
C      1  0.5376680000000  0.5039300000000  0.5844860000000 1.0
C      1  0.5821430000000  0.4788510000000  0.5706110000000 1.0
C      1  0.5638980000000  0.5724110000000  0.4908580000000 1.0
C      1  0.5920170000000  0.5119360000000  0.4417840000000 1.0
C      1  0.4791780000000  0.5207830000000  0.4384740000000 1.0
C      1  0.5582880000000  0.4212830000000  0.4935680000000 1.0
C      1  0.4718340000000  0.4717090000000  0.4244800000000 1.0
C      1  0.5058120000000  0.5333660000000  0.4458870000000 1.0
C      1  0.4857080000000  0.5483550000000  0.4769310000000 1.0
C      1  0.4069010000000  0.5252230000000  0.4345170000000 1.0
C      1  0.4386380000000  0.4802840000000  0.5344590000000 1.0
C      1  0.5288970000000  0.4020540000000  0.5327390000000 1.0
C      1  0.3861010000000  0.5110920000000  0.4825100000000 1.0
C      1  0.4724850000000  0.5973980000000  0.5224410000000 1.0
C      1  0.5934660000000  0.4948400000000  0.4958930000000 1.0
C      1  0.5368530000000  0.5510400000000  0.6118090000000 1.0
C      1  0.5461850000000  0.5186850000000  0.5549840000000 1.0
C      1  0.6002300000000  0.5444300000000  0.5182910000000 1.0
C      1  0.4106310000000  0.5544260000000  0.4379040000000 1.0
C      1  0.4204370000000  0.5845690000000  0.5055210000000 1.0
C      1  0.4593160000000  0.4874780000000  0.4928450000000 1.0
C      1  0.5600660000000  0.4897730000000  0.4120000000000 1.0
C      1  0.4977130000000  0.4247930000000  0.4324860000000 1.0
C      1  0.5655790000000  0.5050810000000  0.5091150000000 1.0
C      1  0.5164920000000  0.5845990000000  0.4559630000000 1.0
C      1  0.5526330000000  0.4776990000000  0.5870930000000 1.0
C      1  0.5730620000000  0.4786680000000  0.5261550000000 1.0
C      1  0.5046650000000  0.5375620000000  0.5742430000000 1.0
C      1  0.5447160000000  0.4885090000000  0.5387190000000 1.0
C      1  0.4579070000000  0.5420460000000  0.4493010000000 1.0
C      1  0.5804780000000  0.5536000000000  0.4728850000000 1.0
C      1  0.5847440000000  0.5635760000000  0.4448970000000 1.0
C      1  0.5956920000000  0.4545350000000  0.5252840000000 1.0
C      1  0.5476400000000  0.4434610000000  0.5250530000000 1.0
C      1  0.4277810000000  0.4452110000000  0.4660650000000 1.0
C      1  0.4541520000000  0.5357320000000  0.4801360000000 1.0
C      1  0.5110100000000  0.4513290000000  0.5387990000000 1.0
C      1  0.4780630000000  0.5443420000000  0.5298770000000 1.0
C      1  0.5092980000000  0.4026780000000  0.4968080000000 1.0
C      1  0.5633110000000  0.4511230000000  0.5680560000000 1.0
C      1  0.5257130000000  0.4862590000000  0.4560060000000 1.0
C      1  0.4870230000000  0.3820540000000  0.4961710000000 1.0
C      1  0.4739260000000  0.3805180000000  0.4684350000000 1.0
C      1  0.5086340000000  0.5001490000000  0.5988690000000 1.0
C      1  0.4534740000000  0.5297830000000  0.5913450000000 1.0
C      1  0.4009460000000  0.5658770000000  0.5153160000000 1.0
C      1  0.4020810000000  0.5465950000000  0.5412620000000 1.0
C      1  0.4829810000000  0.5109900000000  0.3999960000000 1.0
C      1  0.4966940000000  0.4875220000000  0.4707820000000 1.0
C      1  0.5814500000000  0.4841840000000  0.4305010000000 1.0
C      1  0.4238250000000  0.5231570000000  0.4878970000000 1.0
C      1  0.4581030000000  0.5270510000000  0.4123940000000 1.0
C      1  0.5478130000000  0.5724400000000  0.4598180000000 1.0
C      1  0.4355200000000  0.4451700000000  0.4977200000000 1.0
C      1  0.5455040000000  0.5728470000000  0.5971000000000 1.0
C      1  0.4200430000000  0.4938150000000  0.4888490000000 1.0
C      1  0.4421460000000  0.5336920000000  0.5112450000000 1.0
C      1  0.4140570000000  0.4876760000000  0.4259030000000 1.0
C      1  0.4918460000000  0.4963320000000  0.5445500000000 1.0
C      1  0.5333780000000  0.5798440000000  0.5739380000000 1.0
C      1  0.4737270000000  0.4025970000000  0.5146710000000 1.0
C      1  0.4767360000000  0.4838690000000  0.3993510000000 1.0
C      1  0.5418380000000  0.4557350000000  0.4523440000000 1.0
C      1  0.5325430000000  0.5697710000000  0.4906200000000 1.0
C      1  0.4799340000000  0.4912040000000  0.5727670000000 1.0
C      1  0.5343540000000  0.4636460000000  0.5545940000000 1.0
C      1  0.5367090000000  0.4482240000000  0.4960570000000 1.0
C      1  0.5092200000000  0.6008450000000  0.4836850000000 1.0
C      1  0.4078150000000  0.5646490000000  0.4641900000000 1.0
C      1  0.5330370000000  0.4990490000000  0.5091960000000 1.0
C      1  0.5075030000000  0.4254520000000  0.5213270000000 1.0
C      1  0.4373360000000  0.5498300000000  0.4266220000000 1.0
C      1  0.5074380000000  0.4572780000000  0.4336710000000 1.0
C      1  0.5340330000000  0.4283440000000  0.5942840000000 1.0
C      1  0.6021410000000  0.5175370000000  0.5393670000000 1.0
C      1  0.3967480000000  0.4740060000000  0.4952960000000 1.0
C      1  0.3984930000000  0.5428460000000  0.4825930000000 1.0
C      1  0.3992530000000  0.4992180000000  0.4551310000000 1.0
C      1  0.6010040000000  0.4835440000000  0.5428520000000 1.0
C      1  0.5511250000000  0.5489960000000  0.5390160000000 1.0
C      1  0.4484960000000  0.5584360000000  0.5297560000000 1.0
C      1  0.5219640000000  0.4232210000000  0.4779050000000 1.0
C      1  0.4754860000000  0.4921180000000  0.4477660000000 1.0
C      1  0.4741610000000  0.4519550000000  0.5765260000000 1.0
C      1  0.4443310000000  0.5865340000000  0.5215710000000 1.0
C      1  0.5767290000000  0.4319410000000  0.4669610000000 1.0
C      1  0.5121670000000  0.5157530000000  0.4094610000000 1.0
C      1  0.4491760000000  0.5495600000000  0.5714370000000 1.0
C      1  0.5738510000000  0.5660450000000  0.5198760000000 1.0
C      1  0.4522330000000  0.4890490000000  0.4660750000000 1.0
C      1  0.5707290000000  0.5094830000000  0.4666030000000 1.0
C      1  0.4240310000000  0.4764560000000  0.4610100000000 1.0
C      1  0.5727030000000  0.5276730000000  0.5265190000000 1.0
C      1  0.5108140000000  0.4505620000000  0.4659000000000 1.0
C      1  0.4726950000000  0.5153700000000  0.5290200000000 1.0
C      1  0.5551880000000  0.4045450000000  0.5216280000000 1.0
C      1  0.4748080000000  0.5595510000000  0.5594360000000 1.0
C      1  0.5191160000000  0.5322190000000  0.6037300000000 1.0
C      1  0.4951200000000  0.5789760000000  0.5400220000000 1.0
C      1  0.4318530000000  0.4346560000000  0.5448960000000 1.0
C      1  0.4298400000000  0.5391430000000  0.5488530000000 1.0
C      1  0.5181470000000  0.4855470000000  0.4219590000000 1.0
END
