TITL C-2778427-5640-331 -0.00105015935564736 125000 -1044.47651670837 0 0 179 (C1) n - 1
REM
REM in /home/nfs/bkarasulu/CARBON/AIRSS/Generating-Clusters/REBO/Only-C1/SD-CG/HFTN-CG
REM
REM
REM
REM
REM
REM ./C.cell (11c1c37f851c82e70ff6c80c92926a4b)
REM
REM compiler GCC version 9.2.1 20190827 (Red Hat 9.2.1-1)
REM options -cpp -mtune=generic -march=x86-64 -g -O0 -fpre-include=/usr/include/finclude/math-vector-fortran.h
REM seed -1197927088 -695601404 2093745124 -1348490380 -158408558 -863433527 1489576556 -238907258 2085565907 -1089301448 1672569729 -1320958068 1179963370 -580166993 1383467794 -1482352773 1424834447 -2133741390 1818347959 1977951562 -109496655 -723819837 1554508087 -147701605 1396429256 -713217331 -622926175 -313394749 -1553329718 1955979714 595433903 1942484921 730464394
REM
CELL 1.54180   50.00000   50.00000   50.00000   90.00000   90.00000   90.00000
LATT -1
SFAC C  
C      1  0.4635120000000  0.4232170000000  0.4846420000000 1.0
C      1  0.5052420000000  0.4955790000000  0.5842280000000 1.0
C      1  0.5072900000000  0.4363040000000  0.5774940000000 1.0
C      1  0.5507330000000  0.5221340000000  0.5486590000000 1.0
C      1  0.4237120000000  0.4493170000000  0.5569070000000 1.0
C      1  0.5374830000000  0.4664000000000  0.4416340000000 1.0
C      1  0.5282340000000  0.4926480000000  0.3990740000000 1.0
C      1  0.4771270000000  0.4411530000000  0.5694100000000 1.0
C      1  0.5289640000000  0.4908180000000  0.5136910000000 1.0
C      1  0.4680760000000  0.3962350000000  0.5297770000000 1.0
C      1  0.4814720000000  0.5318350000000  0.5963330000000 1.0
C      1  0.4224200000000  0.4361040000000  0.5254490000000 1.0
C      1  0.5055900000000  0.5970390000000  0.5250650000000 1.0
C      1  0.5128670000000  0.4691100000000  0.5695580000000 1.0
C      1  0.4755330000000  0.4554490000000  0.5395690000000 1.0
C      1  0.4340350000000  0.5520420000000  0.5845880000000 1.0
C      1  0.5364450000000  0.5681090000000  0.4296890000000 1.0
C      1  0.5200370000000  0.4103940000000  0.5707430000000 1.0
C      1  0.6027360000000  0.4998930000000  0.4598010000000 1.0
C      1  0.5464450000000  0.4374370000000  0.5585830000000 1.0
C      1  0.5665010000000  0.5661920000000  0.5016930000000 1.0
C      1  0.5193420000000  0.4265640000000  0.5406270000000 1.0
C      1  0.4444760000000  0.4978390000000  0.5349950000000 1.0
C      1  0.5358840000000  0.5146890000000  0.4938510000000 1.0
C      1  0.4522410000000  0.4434050000000  0.5096730000000 1.0
C      1  0.5011590000000  0.4310950000000  0.4498410000000 1.0
C      1  0.5971420000000  0.4913500000000  0.5612970000000 1.0
C      1  0.5899130000000  0.5242200000000  0.5556970000000 1.0
C      1  0.5680140000000  0.4715910000000  0.4166190000000 1.0
C      1  0.4010960000000  0.5543230000000  0.4838190000000 1.0
C      1  0.5812020000000  0.5485500000000  0.5366230000000 1.0
C      1  0.4978030000000  0.5946070000000  0.5636800000000 1.0
C      1  0.5452790000000  0.4941980000000  0.4610800000000 1.0
C      1  0.4645620000000  0.4179000000000  0.4339700000000 1.0
C      1  0.4765650000000  0.5399270000000  0.5222410000000 1.0
C      1  0.5760070000000  0.4570610000000  0.5203600000000 1.0
C      1  0.3770960000000  0.4678120000000  0.5264980000000 1.0
C      1  0.4456990000000  0.4117950000000  0.5328430000000 1.0
C      1  0.4780380000000  0.5004280000000  0.5978410000000 1.0
C      1  0.5121520000000  0.3885770000000  0.4875360000000 1.0
C      1  0.4228330000000  0.4373180000000  0.4536760000000 1.0
C      1  0.4889630000000  0.5874210000000  0.4365080000000 1.0
C      1  0.4687650000000  0.4735450000000  0.5048740000000 1.0
C      1  0.5548540000000  0.4917260000000  0.5487300000000 1.0
C      1  0.5394580000000  0.3945730000000  0.4993610000000 1.0
C      1  0.4300020000000  0.4654490000000  0.4998650000000 1.0
C      1  0.4192550000000  0.5687830000000  0.5054500000000 1.0
C      1  0.5838710000000  0.4674840000000  0.5676530000000 1.0
C      1  0.5729560000000  0.5289070000000  0.4891150000000 1.0
C      1  0.4180160000000  0.5061330000000  0.4768120000000 1.0
C      1  0.4558550000000  0.6058690000000  0.4938470000000 1.0
C      1  0.5193760000000  0.5271120000000  0.5460260000000 1.0
C      1  0.5078270000000  0.5209240000000  0.6148470000000 1.0
C      1  0.5141020000000  0.5231630000000  0.4013240000000 1.0
C      1  0.4194460000000  0.4845300000000  0.5257180000000 1.0
C      1  0.4867040000000  0.4546820000000  0.5980140000000 1.0
C      1  0.5286730000000  0.5901560000000  0.5494820000000 1.0
C      1  0.5457210000000  0.5450650000000  0.4849700000000 1.0
C      1  0.3948530000000  0.4646920000000  0.4813190000000 1.0
C      1  0.4513860000000  0.5245360000000  0.4887730000000 1.0
C      1  0.5461490000000  0.5864570000000  0.5203090000000 1.0
C      1  0.5353650000000  0.4111960000000  0.4471400000000 1.0
C      1  0.4807530000000  0.5734920000000  0.5268090000000 1.0
C      1  0.5786830000000  0.4359980000000  0.4518380000000 1.0
C      1  0.5973350000000  0.5289380000000  0.4558060000000 1.0
C      1  0.4289700000000  0.5374410000000  0.5063530000000 1.0
C      1  0.5047510000000  0.5684420000000  0.4193080000000 1.0
C      1  0.5376680000000  0.5900220000000  0.4888960000000 1.0
C      1  0.4111790000000  0.5341350000000  0.4628170000000 1.0
C      1  0.5555830000000  0.4956870000000  0.4090810000000 1.0
C      1  0.5048090000000  0.4313370000000  0.4840810000000 1.0
C      1  0.4926250000000  0.4084720000000  0.5292610000000 1.0
C      1  0.5093380000000  0.4829220000000  0.4362760000000 1.0
C      1  0.4664450000000  0.5860330000000  0.4782070000000 1.0
C      1  0.5347310000000  0.4304800000000  0.4237290000000 1.0
C      1  0.5714110000000  0.4667780000000  0.4492910000000 1.0
C      1  0.4821540000000  0.5352300000000  0.4908770000000 1.0
C      1  0.5022320000000  0.5611560000000  0.5578400000000 1.0
C      1  0.4350790000000  0.4869820000000  0.4544920000000 1.0
C      1  0.5949950000000  0.4505760000000  0.4970150000000 1.0
C      1  0.3989300000000  0.5235760000000  0.4991670000000 1.0
C      1  0.4514770000000  0.4358470000000  0.5522640000000 1.0
C      1  0.5270740000000  0.4964640000000  0.6094060000000 1.0
C      1  0.5449480000000  0.4687450000000  0.4788320000000 1.0
C      1  0.4737660000000  0.5788530000000  0.5794940000000 1.0
C      1  0.5768250000000  0.5389660000000  0.4392710000000 1.0
C      1  0.5078910000000  0.4721900000000  0.3978870000000 1.0
C      1  0.4294980000000  0.5693240000000  0.5559820000000 1.0
C      1  0.4887260000000  0.4992320000000  0.4545440000000 1.0
C      1  0.4628110000000  0.5572910000000  0.5944600000000 1.0
C      1  0.4659700000000  0.4759960000000  0.6035610000000 1.0
C      1  0.5218440000000  0.5595600000000  0.4688680000000 1.0
C      1  0.3933030000000  0.4861120000000  0.5037020000000 1.0
C      1  0.4121120000000  0.4647650000000  0.4587150000000 1.0
C      1  0.5624420000000  0.4398120000000  0.4219900000000 1.0
C      1  0.4598770000000  0.5816210000000  0.5503930000000 1.0
C      1  0.4572830000000  0.5335360000000  0.4597080000000 1.0
C      1  0.5729490000000  0.4473450000000  0.5487900000000 1.0
C      1  0.4805490000000  0.5381740000000  0.5641960000000 1.0
C      1  0.6015130000000  0.5032710000000  0.5311280000000 1.0
C      1  0.5272510000000  0.4757860000000  0.5443500000000 1.0
C      1  0.5095960000000  0.4634740000000  0.4921450000000 1.0
C      1  0.5177740000000  0.5860890000000  0.4521900000000 1.0
C      1  0.3840000000000  0.5179610000000  0.5259500000000 1.0
C      1  0.4462210000000  0.5277090000000  0.5302720000000 1.0
C      1  0.4490360000000  0.5579280000000  0.4392250000000 1.0
C      1  0.4614520000000  0.5262680000000  0.3894380000000 1.0
C      1  0.4589470000000  0.5060850000000  0.4412100000000 1.0
C      1  0.4905210000000  0.4367340000000  0.5148230000000 1.0
C      1  0.4617280000000  0.4659190000000  0.4514130000000 1.0
C      1  0.4808240000000  0.6128190000000  0.5405250000000 1.0
C      1  0.5190980000000  0.4637190000000  0.6037140000000 1.0
C      1  0.5221130000000  0.5557550000000  0.5306270000000 1.0
C      1  0.6127870000000  0.4736230000000  0.4934790000000 1.0
C      1  0.6069370000000  0.5272900000000  0.4884010000000 1.0
C      1  0.5617740000000  0.4141200000000  0.4925060000000 1.0
C      1  0.5199260000000  0.6105720000000  0.4724560000000 1.0
C      1  0.4511300000000  0.5431290000000  0.5564420000000 1.0
C      1  0.5659120000000  0.4983710000000  0.4950790000000 1.0
C      1  0.4682330000000  0.4870530000000  0.5430120000000 1.0
C      1  0.5380590000000  0.4395850000000  0.4624500000000 1.0
C      1  0.5128720000000  0.4563090000000  0.5254580000000 1.0
C      1  0.6136390000000  0.5000420000000  0.5027850000000 1.0
C      1  0.5627870000000  0.5779850000000  0.4704870000000 1.0
C      1  0.5007560000000  0.4614810000000  0.4587860000000 1.0
C      1  0.3959860000000  0.4475780000000  0.5111920000000 1.0
C      1  0.5135220000000  0.5656530000000  0.5860900000000 1.0
C      1  0.4885930000000  0.5311900000000  0.4503740000000 1.0
C      1  0.4248690000000  0.5125060000000  0.4214010000000 1.0
C      1  0.4212850000000  0.4628980000000  0.5797830000000 1.0
C      1  0.4847580000000  0.4828850000000  0.3838420000000 1.0
C      1  0.4623840000000  0.5329000000000  0.4202570000000 1.0
C      1  0.5186760000000  0.5128440000000  0.4319130000000 1.0
C      1  0.4271430000000  0.5843770000000  0.5280360000000 1.0
C      1  0.5076590000000  0.6143310000000  0.4988520000000 1.0
C      1  0.5437080000000  0.4497550000000  0.5858270000000 1.0
C      1  0.5542990000000  0.5613260000000  0.5393920000000 1.0
C      1  0.4465510000000  0.4198080000000  0.4570220000000 1.0
C      1  0.4950500000000  0.4927980000000  0.4824380000000 1.0
C      1  0.4372090000000  0.4893410000000  0.4091100000000 1.0
C      1  0.4729120000000  0.4460510000000  0.4258900000000 1.0
C      1  0.4954250000000  0.4929010000000  0.5146970000000 1.0
C      1  0.5823680000000  0.4846840000000  0.4700630000000 1.0
C      1  0.4650650000000  0.5818740000000  0.4498430000000 1.0
C      1  0.4224920000000  0.4360170000000  0.4844040000000 1.0
C      1  0.4936940000000  0.5408710000000  0.4195650000000 1.0
C      1  0.5630910000000  0.4712440000000  0.5866320000000 1.0
C      1  0.4530250000000  0.6042160000000  0.5250470000000 1.0
C      1  0.3950490000000  0.5004270000000  0.5408220000000 1.0
C      1  0.5642610000000  0.5402230000000  0.5716720000000 1.0
C      1  0.5740540000000  0.4886280000000  0.5239260000000 1.0
C      1  0.5478100000000  0.4627820000000  0.5087660000000 1.0
C      1  0.4544200000000  0.4959730000000  0.3873670000000 1.0
C      1  0.4465960000000  0.4668440000000  0.4220090000000 1.0
C      1  0.4454280000000  0.4936420000000  0.4924430000000 1.0
C      1  0.5167380000000  0.5663470000000  0.5022610000000 1.0
C      1  0.5390380000000  0.5410340000000  0.4116810000000 1.0
C      1  0.5477210000000  0.4980010000000  0.5820250000000 1.0
C      1  0.5277940000000  0.3887630000000  0.4615850000000 1.0
C      1  0.5101620000000  0.5292090000000  0.4767620000000 1.0
C      1  0.5053510000000  0.4470280000000  0.4193300000000 1.0
C      1  0.4386480000000  0.4713110000000  0.5991130000000 1.0
C      1  0.5614110000000  0.5237780000000  0.4187020000000 1.0
C      1  0.5376630000000  0.5481860000000  0.5914670000000 1.0
C      1  0.4872930000000  0.5142600000000  0.3757350000000 1.0
C      1  0.4732780000000  0.4551280000000  0.4780680000000 1.0
C      1  0.5833590000000  0.4291490000000  0.4797430000000 1.0
C      1  0.5378550000000  0.5176340000000  0.4504080000000 1.0
C      1  0.5926740000000  0.5489920000000  0.5083160000000 1.0
C      1  0.4850270000000  0.3968900000000  0.4828090000000 1.0
C      1  0.4198810000000  0.4104250000000  0.4950730000000 1.0
C      1  0.5247910000000  0.5217440000000  0.5786640000000 1.0
C      1  0.4839110000000  0.5674870000000  0.4943650000000 1.0
C      1  0.4835470000000  0.4050440000000  0.4539630000000 1.0
C      1  0.5491850000000  0.5713040000000  0.5693210000000 1.0
C      1  0.4895220000000  0.5140530000000  0.5408390000000 1.0
C      1  0.5628410000000  0.5636550000000  0.4462050000000 1.0
C      1  0.4239880000000  0.5360990000000  0.4377860000000 1.0
C      1  0.5364840000000  0.4342440000000  0.4960580000000 1.0
END
