TITL C-2778427-5640-192 -0.00166838755540634 125000 -696.919173090907 0 0 117 (C1) n - 1
REM
REM in /home/nfs/bkarasulu/CARBON/AIRSS/Generating-Clusters/REBO/Only-C1/SD-CG/HFTN-CG
REM
REM
REM
REM
REM
REM ./C.cell (11c1c37f851c82e70ff6c80c92926a4b)
REM
REM compiler GCC version 9.2.1 20190827 (Red Hat 9.2.1-1)
REM options -cpp -mtune=generic -march=x86-64 -g -O0 -fpre-include=/usr/include/finclude/math-vector-fortran.h
REM seed -1730049278 -1979074562 490935189 24817032 -858362790 -2127605751 2004897548 -586304581 -1698844345 733541281 -1964728934 1422965342 -2057017401 1999192522 1056406206 1336952501 1434842238 -2042658090 -798818117 918220037 -252902401 313852764 -815569648 -1429819191 467205043 1634012192 48654348 -2076287366 1687902551 59834933 1482207765 1586616417 -135962536
REM
CELL 1.54180   50.00000   50.00000   50.00000   90.00000   90.00000   90.00000
LATT -1
SFAC C  
C      1  0.4734690000000  0.5784120000000  0.4211060000000 1.0
C      1  0.4571620000000  0.5079220000000  0.4230470000000 1.0
C      1  0.5174930000000  0.5762870000000  0.5552990000000 1.0
C      1  0.5764010000000  0.5009680000000  0.4525850000000 1.0
C      1  0.5135270000000  0.5504890000000  0.5771060000000 1.0
C      1  0.5460340000000  0.5689560000000  0.4763260000000 1.0
C      1  0.4670970000000  0.5397660000000  0.5152700000000 1.0
C      1  0.5870680000000  0.4545800000000  0.4974770000000 1.0
C      1  0.4664120000000  0.4903250000000  0.5857740000000 1.0
C      1  0.5798470000000  0.4830430000000  0.5390390000000 1.0
C      1  0.5436670000000  0.4359480000000  0.5558410000000 1.0
C      1  0.5760990000000  0.5276310000000  0.5429270000000 1.0
C      1  0.5685450000000  0.4322730000000  0.5423610000000 1.0
C      1  0.5565210000000  0.5733780000000  0.5233430000000 1.0
C      1  0.5273580000000  0.5265860000000  0.4186730000000 1.0
C      1  0.4875020000000  0.4712960000000  0.4407130000000 1.0
C      1  0.5633060000000  0.5052340000000  0.4995220000000 1.0
C      1  0.4611350000000  0.4766510000000  0.4302170000000 1.0
C      1  0.5008170000000  0.4560800000000  0.6049310000000 1.0
C      1  0.5390960000000  0.4270740000000  0.5092260000000 1.0
C      1  0.5903400000000  0.5159920000000  0.5189400000000 1.0
C      1  0.4887660000000  0.4352170000000  0.4916030000000 1.0
C      1  0.5213950000000  0.4730620000000  0.5045440000000 1.0
C      1  0.4550420000000  0.5357800000000  0.5691810000000 1.0
C      1  0.4629550000000  0.4763890000000  0.4936950000000 1.0
C      1  0.4997420000000  0.5009860000000  0.5231530000000 1.0
C      1  0.5068760000000  0.4929670000000  0.4079200000000 1.0
C      1  0.4577530000000  0.4253240000000  0.5178120000000 1.0
C      1  0.4197030000000  0.4626680000000  0.5173780000000 1.0
C      1  0.4567570000000  0.5708890000000  0.4677770000000 1.0
C      1  0.4169870000000  0.5240620000000  0.5257240000000 1.0
C      1  0.5408400000000  0.5048370000000  0.5752770000000 1.0
C      1  0.4559440000000  0.5856310000000  0.4960820000000 1.0
C      1  0.4449850000000  0.5572340000000  0.5057130000000 1.0
C      1  0.5447830000000  0.5469170000000  0.4317680000000 1.0
C      1  0.4845740000000  0.5156180000000  0.4380780000000 1.0
C      1  0.4945470000000  0.4728720000000  0.5830480000000 1.0
C      1  0.5026610000000  0.4476930000000  0.4383860000000 1.0
C      1  0.5569280000000  0.4834790000000  0.5643660000000 1.0
C      1  0.5474210000000  0.4271820000000  0.4785000000000 1.0
C      1  0.4567930000000  0.5861890000000  0.5302580000000 1.0
C      1  0.4740470000000  0.4094400000000  0.4530850000000 1.0
C      1  0.4951820000000  0.4241250000000  0.5524260000000 1.0
C      1  0.5341090000000  0.4953820000000  0.4263020000000 1.0
C      1  0.4997400000000  0.5329340000000  0.4212650000000 1.0
C      1  0.4899430000000  0.5475340000000  0.5537570000000 1.0
C      1  0.5814810000000  0.4524590000000  0.5271640000000 1.0
C      1  0.4756620000000  0.4056020000000  0.5373890000000 1.0
C      1  0.5588220000000  0.4830600000000  0.4416020000000 1.0
C      1  0.5156750000000  0.5963050000000  0.5064640000000 1.0
C      1  0.5317220000000  0.5484040000000  0.5418840000000 1.0
C      1  0.4826390000000  0.4965220000000  0.4031760000000 1.0
C      1  0.4867510000000  0.5562300000000  0.4118800000000 1.0
C      1  0.5270060000000  0.5316810000000  0.4582520000000 1.0
C      1  0.4548890000000  0.5186650000000  0.4710320000000 1.0
C      1  0.4906240000000  0.5209920000000  0.5415700000000 1.0
C      1  0.5214840000000  0.4374800000000  0.5226790000000 1.0
C      1  0.5915460000000  0.5056990000000  0.4818470000000 1.0
C      1  0.5213390000000  0.4186230000000  0.5579280000000 1.0
C      1  0.5607470000000  0.5529720000000  0.4564530000000 1.0
C      1  0.4993770000000  0.4599050000000  0.5279660000000 1.0
C      1  0.4340380000000  0.4864180000000  0.4976340000000 1.0
C      1  0.4933170000000  0.5499800000000  0.5141790000000 1.0
C      1  0.4339400000000  0.5488670000000  0.4553540000000 1.0
C      1  0.5557410000000  0.4579370000000  0.4536430000000 1.0
C      1  0.4449080000000  0.4762290000000  0.5741800000000 1.0
C      1  0.5776550000000  0.5311210000000  0.4634780000000 1.0
C      1  0.5958940000000  0.4842900000000  0.5081920000000 1.0
C      1  0.4249220000000  0.5037970000000  0.4727630000000 1.0
C      1  0.5362250000000  0.4632400000000  0.5560120000000 1.0
C      1  0.4133330000000  0.4435970000000  0.4548050000000 1.0
C      1  0.4644930000000  0.4291670000000  0.4737850000000 1.0
C      1  0.4153970000000  0.4960760000000  0.5224560000000 1.0
C      1  0.4407300000000  0.5334440000000  0.4332280000000 1.0
C      1  0.5415740000000  0.5325270000000  0.5699680000000 1.0
C      1  0.4468080000000  0.4536220000000  0.4740220000000 1.0
C      1  0.4598670000000  0.5624050000000  0.5482310000000 1.0
C      1  0.5646800000000  0.5529860000000  0.5450640000000 1.0
C      1  0.4708430000000  0.5182110000000  0.5837210000000 1.0
C      1  0.5269080000000  0.4465490000000  0.4556340000000 1.0
C      1  0.4392890000000  0.4624460000000  0.4428230000000 1.0
C      1  0.4537090000000  0.4574230000000  0.5551160000000 1.0
C      1  0.5728200000000  0.4460230000000  0.4754650000000 1.0
C      1  0.4894100000000  0.4228690000000  0.4326790000000 1.0
C      1  0.5136490000000  0.4987640000000  0.5821890000000 1.0
C      1  0.5154160000000  0.5117830000000  0.4965980000000 1.0
C      1  0.5473010000000  0.5560500000000  0.5017500000000 1.0
C      1  0.4401410000000  0.4465080000000  0.5330510000000 1.0
C      1  0.4652350000000  0.3849040000000  0.5529320000000 1.0
C      1  0.4160530000000  0.4766200000000  0.4633150000000 1.0
C      1  0.4864530000000  0.4951260000000  0.4917690000000 1.0
C      1  0.4184950000000  0.5344800000000  0.4751210000000 1.0
C      1  0.4206680000000  0.5429520000000  0.5023110000000 1.0
C      1  0.5323810000000  0.5893260000000  0.5289970000000 1.0
C      1  0.5275720000000  0.5014840000000  0.4584060000000 1.0
C      1  0.4157660000000  0.4523890000000  0.4877460000000 1.0
C      1  0.4885920000000  0.3977010000000  0.4785540000000 1.0
C      1  0.5159880000000  0.4506210000000  0.4853600000000 1.0
C      1  0.5243580000000  0.5900720000000  0.4792710000000 1.0
C      1  0.4851540000000  0.4550810000000  0.5567720000000 1.0
C      1  0.4945740000000  0.5749280000000  0.5327950000000 1.0
C      1  0.5219520000000  0.5386040000000  0.5109970000000 1.0
C      1  0.4748720000000  0.3997650000000  0.5037860000000 1.0
C      1  0.4835240000000  0.5974210000000  0.5122440000000 1.0
C      1  0.4969730000000  0.4953450000000  0.4596580000000 1.0
C      1  0.4985020000000  0.5229400000000  0.5847700000000 1.0
C      1  0.5147100000000  0.5622070000000  0.4524570000000 1.0
C      1  0.4751450000000  0.5870380000000  0.4482650000000 1.0
C      1  0.4699870000000  0.5410580000000  0.4706970000000 1.0
C      1  0.4966220000000  0.5410220000000  0.4663200000000 1.0
C      1  0.4428090000000  0.5344900000000  0.5385090000000 1.0
C      1  0.4731450000000  0.4535260000000  0.5116740000000 1.0
C      1  0.5150120000000  0.4165690000000  0.4792420000000 1.0
C      1  0.5028790000000  0.5892140000000  0.4570330000000 1.0
C      1  0.5285840000000  0.4864180000000  0.5339950000000 1.0
C      1  0.5544220000000  0.5040290000000  0.5305970000000 1.0
C      1  0.5394300000000  0.4944390000000  0.4862830000000 1.0
END
