TITL C-2778425-5191-789 -0.000870838946129083 125000 -187.85591541955 0 0 34 (C1) n - 1
REM
REM in /home/nfs/bkarasulu/CARBON/AIRSS/Generating-Clusters/REBO/Only-C1/SD-CG/HFTN-CG
REM
REM
REM
REM
REM
REM ./C.cell (11c1c37f851c82e70ff6c80c92926a4b)
REM
REM compiler GCC version 9.2.1 20190827 (Red Hat 9.2.1-1)
REM options -cpp -mtune=generic -march=x86-64 -g -O0 -fpre-include=/usr/include/finclude/math-vector-fortran.h
REM seed 1180693437 -993099421 -2011626904 1369727151 -80264081 -927361819 451984384 849713509 -1744374767 1791691934 -447299737 559532211 661220492 478047411 -486935608 -323805561 1742183182 977704449 2056315541 1375490522 -850815562 -1011620039 -1932777420 -1775653196 1456249522 -370960331 603651360 379069531 -1261242043 1131545321 -975600828 530233347 -1241087703
REM
CELL 1.54180   50.00000   50.00000   50.00000   90.00000   90.00000   90.00000
LATT -1
SFAC C  
C      1  0.5377670000000  0.5591190000000  0.5429780000000 1.0
C      1  0.5012470000000  0.4881720000000  0.4357480000000 1.0
C      1  0.5167920000000  0.4728640000000  0.5299130000000 1.0
C      1  0.5200970000000  0.4689720000000  0.4505600000000 1.0
C      1  0.4994620000000  0.5143770000000  0.4480080000000 1.0
C      1  0.4731340000000  0.5188960000000  0.5515550000000 1.0
C      1  0.4457930000000  0.4851970000000  0.4635090000000 1.0
C      1  0.4764590000000  0.4500020000000  0.4936350000000 1.0
C      1  0.5211150000000  0.5106650000000  0.4958930000000 1.0
C      1  0.5167580000000  0.5404180000000  0.5370280000000 1.0
C      1  0.4586580000000  0.4627210000000  0.4756420000000 1.0
C      1  0.4735240000000  0.5235220000000  0.4556310000000 1.0
C      1  0.4495550000000  0.4961240000000  0.5600530000000 1.0
C      1  0.5052860000000  0.5257630000000  0.5162020000000 1.0
C      1  0.5214690000000  0.5212580000000  0.4647710000000 1.0
C      1  0.5203060000000  0.4783980000000  0.4997300000000 1.0
C      1  0.4598020000000  0.5147700000000  0.5010100000000 1.0
C      1  0.5037320000000  0.4770390000000  0.5524270000000 1.0
C      1  0.4745880000000  0.4817090000000  0.5660140000000 1.0
C      1  0.5140420000000  0.5569500000000  0.5826540000000 1.0
C      1  0.5075330000000  0.4523350000000  0.4848870000000 1.0
C      1  0.4551330000000  0.5107840000000  0.4735110000000 1.0
C      1  0.5356050000000  0.5688950000000  0.5692850000000 1.0
C      1  0.4987010000000  0.5041890000000  0.5711290000000 1.0
C      1  0.4490940000000  0.4824540000000  0.4349290000000 1.0
C      1  0.5237500000000  0.4295480000000  0.4857370000000 1.0
C      1  0.5000040000000  0.5356370000000  0.5641800000000 1.0
C      1  0.5524940000000  0.5213550000000  0.4894650000000 1.0
C      1  0.4753680000000  0.4729600000000  0.4294450000000 1.0
C      1  0.5567650000000  0.4961640000000  0.4689330000000 1.0
C      1  0.5368880000000  0.4760450000000  0.4717420000000 1.0
C      1  0.4781180000000  0.5195550000000  0.5213400000000 1.0
C      1  0.5517470000000  0.5268420000000  0.4560580000000 1.0
C      1  0.4892140000000  0.4563040000000  0.4564000000000 1.0
END
