TITL C-2778437-8639-587 -0.00269481367851404 125000 -1034.51564344314 0 0 177 (C1) n - 1
REM
REM in /home/nfs/bkarasulu/CARBON/AIRSS/Generating-Clusters/REBO/Only-C1/SD-CG/HFTN-CG
REM
REM
REM
REM
REM
REM ./C.cell (11c1c37f851c82e70ff6c80c92926a4b)
REM
REM compiler GCC version 9.2.1 20190827 (Red Hat 9.2.1-1)
REM options -cpp -mtune=generic -march=x86-64 -g -O0 -fpre-include=/usr/include/finclude/math-vector-fortran.h
REM seed 2096787556 987434209 -1344601612 -984803956 -1270829948 922344552 985511631 -170049582 -1324799860 -687245995 25361334 -1584192252 410293381 868314099 2139523445 1230005690 -1920719178 1677767610 -37051620 -1374189071 1931562432 18460897 1655859945 186274997 1769023758 -1247803565 118551225 1954414175 -1418068572 1782774651 -1723373783 -935900729 1242661851
REM
CELL 1.54180   50.00000   50.00000   50.00000   90.00000   90.00000   90.00000
LATT -1
SFAC C  
C      1  0.5213630000000  0.4566200000000  0.5578180000000 1.0
C      1  0.5411030000000  0.4254830000000  0.4336390000000 1.0
C      1  0.4670200000000  0.4515740000000  0.5778550000000 1.0
C      1  0.4925180000000  0.5383290000000  0.3984830000000 1.0
C      1  0.5956680000000  0.4935580000000  0.5537500000000 1.0
C      1  0.4230840000000  0.4645150000000  0.5617920000000 1.0
C      1  0.4843000000000  0.4097140000000  0.4929800000000 1.0
C      1  0.4142670000000  0.4510380000000  0.4382880000000 1.0
C      1  0.5078590000000  0.5824860000000  0.5578830000000 1.0
C      1  0.5906060000000  0.5133880000000  0.4926730000000 1.0
C      1  0.5111710000000  0.4499070000000  0.5978650000000 1.0
C      1  0.4291920000000  0.4534020000000  0.4138890000000 1.0
C      1  0.5533890000000  0.4610160000000  0.4649030000000 1.0
C      1  0.4592730000000  0.4782950000000  0.5315270000000 1.0
C      1  0.5488400000000  0.5318300000000  0.4241330000000 1.0
C      1  0.5064570000000  0.5758170000000  0.4992400000000 1.0
C      1  0.5986360000000  0.5158860000000  0.5229200000000 1.0
C      1  0.5285930000000  0.4018650000000  0.4554960000000 1.0
C      1  0.4101350000000  0.5547540000000  0.4720560000000 1.0
C      1  0.5630870000000  0.4297130000000  0.5506860000000 1.0
C      1  0.5200310000000  0.4804960000000  0.5192560000000 1.0
C      1  0.5471660000000  0.4803770000000  0.5394970000000 1.0
C      1  0.5316670000000  0.4751360000000  0.4035540000000 1.0
C      1  0.5188030000000  0.4883770000000  0.5579050000000 1.0
C      1  0.6037790000000  0.4892820000000  0.4775170000000 1.0
C      1  0.4267770000000  0.5278670000000  0.4855230000000 1.0
C      1  0.4564730000000  0.5801090000000  0.5489290000000 1.0
C      1  0.4833730000000  0.5246780000000  0.5421320000000 1.0
C      1  0.4859010000000  0.4933880000000  0.5036040000000 1.0
C      1  0.3777500000000  0.5169430000000  0.5055880000000 1.0
C      1  0.5355110000000  0.5843770000000  0.5427640000000 1.0
C      1  0.5345240000000  0.6053450000000  0.5189390000000 1.0
C      1  0.4222430000000  0.6008780000000  0.4992830000000 1.0
C      1  0.4417730000000  0.4447620000000  0.5589610000000 1.0
C      1  0.5417390000000  0.5779260000000  0.4412350000000 1.0
C      1  0.4828120000000  0.4225770000000  0.5695630000000 1.0
C      1  0.4489470000000  0.5337970000000  0.4136460000000 1.0
C      1  0.4908290000000  0.5097700000000  0.3978180000000 1.0
C      1  0.5128260000000  0.5163490000000  0.5677740000000 1.0
C      1  0.5326660000000  0.5379580000000  0.5574830000000 1.0
C      1  0.5875670000000  0.5682100000000  0.4891700000000 1.0
C      1  0.4764000000000  0.5825710000000  0.4391460000000 1.0
C      1  0.4283770000000  0.4845990000000  0.5183340000000 1.0
C      1  0.5200180000000  0.4141730000000  0.5285910000000 1.0
C      1  0.4336640000000  0.5190650000000  0.5869170000000 1.0
C      1  0.5581460000000  0.5000490000000  0.4582850000000 1.0
C      1  0.5127020000000  0.4253920000000  0.5808460000000 1.0
C      1  0.4492340000000  0.5505340000000  0.4773110000000 1.0
C      1  0.5506500000000  0.4557310000000  0.4241380000000 1.0
C      1  0.5672650000000  0.5111460000000  0.4312070000000 1.0
C      1  0.4459580000000  0.4907750000000  0.4346310000000 1.0
C      1  0.4439260000000  0.4205470000000  0.4621260000000 1.0
C      1  0.4999190000000  0.4110630000000  0.4667390000000 1.0
C      1  0.4823030000000  0.4995930000000  0.6002380000000 1.0
C      1  0.4604310000000  0.5883130000000  0.4687360000000 1.0
C      1  0.5597410000000  0.3911290000000  0.5050900000000 1.0
C      1  0.5328660000000  0.4309370000000  0.4765840000000 1.0
C      1  0.5702100000000  0.4091540000000  0.5245240000000 1.0
C      1  0.4174380000000  0.4306410000000  0.4613810000000 1.0
C      1  0.4392850000000  0.5139720000000  0.5108340000000 1.0
C      1  0.5088850000000  0.5219710000000  0.4855660000000 1.0
C      1  0.5057490000000  0.5108740000000  0.5238250000000 1.0
C      1  0.4407890000000  0.4665100000000  0.4849190000000 1.0
C      1  0.4044150000000  0.5538310000000  0.5058160000000 1.0
C      1  0.5614940000000  0.4959320000000  0.5976360000000 1.0
C      1  0.5566050000000  0.5450040000000  0.4796610000000 1.0
C      1  0.4292840000000  0.4965330000000  0.4764030000000 1.0
C      1  0.5157870000000  0.4985700000000  0.4401590000000 1.0
C      1  0.4367750000000  0.5318250000000  0.4444950000000 1.0
C      1  0.4687830000000  0.4382660000000  0.5277700000000 1.0
C      1  0.5962920000000  0.5320250000000  0.4480570000000 1.0
C      1  0.4037750000000  0.4702550000000  0.5377880000000 1.0
C      1  0.5881460000000  0.5527500000000  0.4310550000000 1.0
C      1  0.5612110000000  0.5260260000000  0.5166200000000 1.0
C      1  0.5535670000000  0.5441080000000  0.5795290000000 1.0
C      1  0.5496450000000  0.4520290000000  0.5730540000000 1.0
C      1  0.5956920000000  0.4978470000000  0.4455350000000 1.0
C      1  0.4557670000000  0.4584350000000  0.5056490000000 1.0
C      1  0.5706330000000  0.4989960000000  0.5326950000000 1.0
C      1  0.4802640000000  0.6038290000000  0.4879400000000 1.0
C      1  0.5870050000000  0.5378460000000  0.4762670000000 1.0
C      1  0.4207510000000  0.4702790000000  0.4599640000000 1.0
C      1  0.4916480000000  0.4452490000000  0.5473300000000 1.0
C      1  0.5360090000000  0.5547440000000  0.5282820000000 1.0
C      1  0.5755400000000  0.4350650000000  0.5111660000000 1.0
C      1  0.4076460000000  0.4403260000000  0.4858360000000 1.0
C      1  0.4795520000000  0.5063550000000  0.5673270000000 1.0
C      1  0.5828800000000  0.4441470000000  0.4631690000000 1.0
C      1  0.4962520000000  0.5567830000000  0.5747210000000 1.0
C      1  0.5659150000000  0.5676340000000  0.5230500000000 1.0
C      1  0.5078270000000  0.4434930000000  0.4577110000000 1.0
C      1  0.4664720000000  0.5502500000000  0.5860730000000 1.0
C      1  0.4051340000000  0.5272090000000  0.4520920000000 1.0
C      1  0.5095410000000  0.4302880000000  0.5004540000000 1.0
C      1  0.5015740000000  0.3900920000000  0.5359560000000 1.0
C      1  0.5989120000000  0.5246560000000  0.5618280000000 1.0
C      1  0.4765120000000  0.5241040000000  0.4321250000000 1.0
C      1  0.5881620000000  0.5463620000000  0.5151770000000 1.0
C      1  0.5480250000000  0.4692710000000  0.6021260000000 1.0
C      1  0.4848190000000  0.4645490000000  0.4144110000000 1.0
C      1  0.5054280000000  0.4940230000000  0.4689550000000 1.0
C      1  0.4592120000000  0.4814750000000  0.5635340000000 1.0
C      1  0.4370100000000  0.4020160000000  0.5116320000000 1.0
C      1  0.4713060000000  0.5594910000000  0.4146410000000 1.0
C      1  0.4067780000000  0.4995700000000  0.5526570000000 1.0
C      1  0.4635090000000  0.4344440000000  0.4426110000000 1.0
C      1  0.4527440000000  0.4078070000000  0.4852340000000 1.0
C      1  0.4808980000000  0.5565500000000  0.5441090000000 1.0
C      1  0.4779960000000  0.5112220000000  0.4756310000000 1.0
C      1  0.4690210000000  0.5216780000000  0.5128910000000 1.0
C      1  0.3838960000000  0.4901390000000  0.4897070000000 1.0
C      1  0.5722490000000  0.4782110000000  0.5721950000000 1.0
C      1  0.4789560000000  0.5597860000000  0.4750950000000 1.0
C      1  0.4923890000000  0.4661870000000  0.4709590000000 1.0
C      1  0.5575100000000  0.5819500000000  0.4964400000000 1.0
C      1  0.4299340000000  0.4917960000000  0.5758680000000 1.0
C      1  0.5520360000000  0.4722300000000  0.4942730000000 1.0
C      1  0.5387480000000  0.4801070000000  0.4425020000000 1.0
C      1  0.4602520000000  0.5044050000000  0.4073800000000 1.0
C      1  0.4157030000000  0.4999100000000  0.4344230000000 1.0
C      1  0.5082090000000  0.5984190000000  0.4725870000000 1.0
C      1  0.4564330000000  0.4504880000000  0.4153560000000 1.0
C      1  0.5317960000000  0.4440990000000  0.5304460000000 1.0
C      1  0.5816520000000  0.5904380000000  0.4658430000000 1.0
C      1  0.5617440000000  0.4222930000000  0.4605590000000 1.0
C      1  0.5520620000000  0.4513830000000  0.5125240000000 1.0
C      1  0.4695490000000  0.5854440000000  0.5120450000000 1.0
C      1  0.4869760000000  0.4153530000000  0.4384180000000 1.0
C      1  0.4857010000000  0.5958060000000  0.5405570000000 1.0
C      1  0.5198610000000  0.5431400000000  0.4640760000000 1.0
C      1  0.4536860000000  0.5582570000000  0.4442750000000 1.0
C      1  0.5371300000000  0.6066970000000  0.4849680000000 1.0
C      1  0.5617850000000  0.5672830000000  0.5561380000000 1.0
C      1  0.5886780000000  0.5470760000000  0.5610370000000 1.0
C      1  0.6056120000000  0.4688730000000  0.4983800000000 1.0
C      1  0.5943500000000  0.4440490000000  0.4909860000000 1.0
C      1  0.4777330000000  0.3980240000000  0.5515210000000 1.0
C      1  0.3929800000000  0.5347400000000  0.5222030000000 1.0
C      1  0.5593040000000  0.5586020000000  0.4281050000000 1.0
C      1  0.4595880000000  0.5247700000000  0.5966890000000 1.0
C      1  0.5089610000000  0.5773850000000  0.4465770000000 1.0
C      1  0.4359930000000  0.4287500000000  0.5310810000000 1.0
C      1  0.4989370000000  0.5287310000000  0.5939760000000 1.0
C      1  0.5059860000000  0.4852940000000  0.4006460000000 1.0
C      1  0.4038280000000  0.4714990000000  0.4983140000000 1.0
C      1  0.4280150000000  0.5838440000000  0.4737180000000 1.0
C      1  0.5117450000000  0.4170690000000  0.4184720000000 1.0
C      1  0.4338360000000  0.5630940000000  0.5029650000000 1.0
C      1  0.4056010000000  0.5276340000000  0.5475770000000 1.0
C      1  0.5324540000000  0.4184150000000  0.5601630000000 1.0
C      1  0.5518570000000  0.3959100000000  0.4796120000000 1.0
C      1  0.4452330000000  0.5603320000000  0.5695030000000 1.0
C      1  0.5552460000000  0.5958460000000  0.4591830000000 1.0
C      1  0.4664480000000  0.4677830000000  0.4496940000000 1.0
C      1  0.5242840000000  0.5271300000000  0.4367230000000 1.0
C      1  0.4391220000000  0.5884150000000  0.5224920000000 1.0
C      1  0.4983660000000  0.4615330000000  0.5021460000000 1.0
C      1  0.5027940000000  0.6067350000000  0.5134600000000 1.0
C      1  0.4678900000000  0.4064730000000  0.5219700000000 1.0
C      1  0.5347890000000  0.5161200000000  0.5345600000000 1.0
C      1  0.5602720000000  0.5237160000000  0.5957020000000 1.0
C      1  0.4134410000000  0.4452250000000  0.5183370000000 1.0
C      1  0.4923400000000  0.4767180000000  0.5394180000000 1.0
C      1  0.4885330000000  0.4670700000000  0.5966430000000 1.0
C      1  0.5319450000000  0.5676690000000  0.4795750000000 1.0
C      1  0.3841270000000  0.5171590000000  0.4729480000000 1.0
C      1  0.5324130000000  0.5344870000000  0.5010480000000 1.0
C      1  0.4857860000000  0.4916330000000  0.4344320000000 1.0
C      1  0.5772380000000  0.4694530000000  0.4410410000000 1.0
C      1  0.4533880000000  0.5104330000000  0.4614450000000 1.0
C      1  0.5749810000000  0.4608670000000  0.5437570000000 1.0
C      1  0.6009480000000  0.4740470000000  0.5261840000000 1.0
C      1  0.5650300000000  0.4960720000000  0.4844920000000 1.0
C      1  0.5078570000000  0.4470020000000  0.4272130000000 1.0
C      1  0.4820080000000  0.5534270000000  0.5092900000000 1.0
C      1  0.4239910000000  0.5401650000000  0.5676810000000 1.0
C      1  0.4919280000000  0.5471450000000  0.4475990000000 1.0
END
