TITL C-2778435-5768-252 0.00200191485176514 125000 -234.185315424616 0 0 41 (C1) n - 1
REM
REM in /home/nfs/bkarasulu/CARBON/AIRSS/Generating-Clusters/REBO/Only-C1/SD-CG/HFTN-CG
REM
REM
REM
REM
REM
REM ./C.cell (11c1c37f851c82e70ff6c80c92926a4b)
REM
REM compiler GCC version 9.2.1 20190827 (Red Hat 9.2.1-1)
REM options -cpp -mtune=generic -march=x86-64 -g -O0 -fpre-include=/usr/include/finclude/math-vector-fortran.h
REM seed -1413591497 -1295672625 1619720462 1072929580 687213148 1197551662 -1987456125 -328375799 -603543345 -1502277165 -1576259624 1769544211 1425400855 427409912 583589612 -1685339240 557180050 2135636502 1363186787 -517951429 1337508151 537300092 695657319 1264960325 717785030 -1351255532 396791528 -1169114877 -1018353573 -552755415 -1581040101 -1310914213 1020209856
REM
CELL 1.54180   50.00000   50.00000   50.00000   90.00000   90.00000   90.00000
LATT -1
SFAC C  
C      1  0.4932760000000  0.4906730000000  0.5313520000000 1.0
C      1  0.5429390000000  0.5200620000000  0.4862310000000 1.0
C      1  0.4858410000000  0.5007580000000  0.4935980000000 1.0
C      1  0.4871410000000  0.4266820000000  0.4958940000000 1.0
C      1  0.5388530000000  0.5090470000000  0.5187400000000 1.0
C      1  0.5543910000000  0.5392240000000  0.5191380000000 1.0
C      1  0.5410890000000  0.4714070000000  0.4761370000000 1.0
C      1  0.5212940000000  0.5727910000000  0.5005220000000 1.0
C      1  0.4650600000000  0.5376440000000  0.4683480000000 1.0
C      1  0.5568060000000  0.4916500000000  0.4876410000000 1.0
C      1  0.4733550000000  0.4772130000000  0.5519630000000 1.0
C      1  0.5219260000000  0.5039740000000  0.5702190000000 1.0
C      1  0.5104280000000  0.4338200000000  0.4799930000000 1.0
C      1  0.5060590000000  0.5383930000000  0.5327950000000 1.0
C      1  0.5031710000000  0.5338440000000  0.4389250000000 1.0
C      1  0.4118430000000  0.4546560000000  0.5216950000000 1.0
C      1  0.4860400000000  0.5307010000000  0.5105220000000 1.0
C      1  0.5174770000000  0.5505090000000  0.4572050000000 1.0
C      1  0.4793850000000  0.4480550000000  0.5138760000000 1.0
C      1  0.5215370000000  0.4582660000000  0.4920940000000 1.0
C      1  0.4358790000000  0.4670290000000  0.5213320000000 1.0
C      1  0.5720200000000  0.5112980000000  0.5109350000000 1.0
C      1  0.4433660000000  0.4900010000000  0.5057160000000 1.0
C      1  0.5416810000000  0.5389910000000  0.4663710000000 1.0
C      1  0.5066720000000  0.4537360000000  0.4273520000000 1.0
C      1  0.4469750000000  0.4906250000000  0.4783190000000 1.0
C      1  0.4804640000000  0.5501600000000  0.4876170000000 1.0
C      1  0.5295070000000  0.5552340000000  0.5215360000000 1.0
C      1  0.4913810000000  0.5385230000000  0.5619920000000 1.0
C      1  0.4943310000000  0.5137950000000  0.5774140000000 1.0
C      1  0.5071460000000  0.4851670000000  0.4342270000000 1.0
C      1  0.4989800000000  0.4721340000000  0.5065260000000 1.0
C      1  0.4720600000000  0.5064470000000  0.4645250000000 1.0
C      1  0.4604000000000  0.4571270000000  0.5341560000000 1.0
C      1  0.5166010000000  0.5079450000000  0.5385970000000 1.0
C      1  0.4740450000000  0.4930190000000  0.5757850000000 1.0
C      1  0.5321640000000  0.4658350000000  0.4472650000000 1.0
C      1  0.5162270000000  0.4353720000000  0.4517700000000 1.0
C      1  0.4930130000000  0.5073520000000  0.4422180000000 1.0
C      1  0.4651860000000  0.5067320000000  0.5203340000000 1.0
C      1  0.5039920000000  0.5641080000000  0.4791260000000 1.0
END
