TITL C-2778422-5617-1432 0.00513638235489211 125000 -839.536009342692 0 0 145 (C1) n - 1
REM
REM in /home/nfs/bkarasulu/CARBON/AIRSS/Generating-Clusters/REBO/Only-C1/SD-CG/HFTN-CG
REM
REM
REM
REM
REM
REM ./C.cell (11c1c37f851c82e70ff6c80c92926a4b)
REM
REM compiler GCC version 9.2.1 20190827 (Red Hat 9.2.1-1)
REM options -cpp -mtune=generic -march=x86-64 -g -O0 -fpre-include=/usr/include/finclude/math-vector-fortran.h
REM seed 1610367856 -1110798935 214679373 1829368819 -2052036050 -1903607842 134511441 -1021073779 -1831968379 -1326763087 -367565607 -271151847 -1712303269 1020344671 1627149747 -1913779880 -735826278 1104686902 -290538196 -1375794268 -190433464 -730422758 588827807 -1360207801 2022293347 1209093217 972491823 -2094915125 -1138551620 236691377 526536073 -1630647458 1039594934
REM
CELL 1.54180   50.00000   50.00000   50.00000   90.00000   90.00000   90.00000
LATT -1
SFAC C  
C      1  0.4389430000000  0.5338520000000  0.5886760000000 1.0
C      1  0.4359680000000  0.5569590000000  0.4465840000000 1.0
C      1  0.5822260000000  0.5640510000000  0.5161560000000 1.0
C      1  0.5229460000000  0.5238470000000  0.5949830000000 1.0
C      1  0.4635070000000  0.5470050000000  0.5020960000000 1.0
C      1  0.5630490000000  0.4361550000000  0.4443100000000 1.0
C      1  0.5334620000000  0.5181300000000  0.4052930000000 1.0
C      1  0.4714150000000  0.4912610000000  0.4281820000000 1.0
C      1  0.4803420000000  0.4265600000000  0.5727360000000 1.0
C      1  0.4691730000000  0.5867180000000  0.5196120000000 1.0
C      1  0.5252220000000  0.5889470000000  0.4585720000000 1.0
C      1  0.4071780000000  0.4996360000000  0.4610900000000 1.0
C      1  0.4534070000000  0.4424770000000  0.4221430000000 1.0
C      1  0.4921410000000  0.5643890000000  0.5081760000000 1.0
C      1  0.5017170000000  0.4394740000000  0.5014720000000 1.0
C      1  0.5723750000000  0.5022020000000  0.4397290000000 1.0
C      1  0.3934510000000  0.5521300000000  0.4975240000000 1.0
C      1  0.5518460000000  0.5782600000000  0.4692910000000 1.0
C      1  0.5337100000000  0.4732930000000  0.4635400000000 1.0
C      1  0.4080200000000  0.5077560000000  0.5154230000000 1.0
C      1  0.6016220000000  0.4805820000000  0.5067970000000 1.0
C      1  0.4461610000000  0.4886530000000  0.5400170000000 1.0
C      1  0.4285310000000  0.5542390000000  0.5409940000000 1.0
C      1  0.4962650000000  0.4051740000000  0.4668680000000 1.0
C      1  0.5249280000000  0.5592330000000  0.5094780000000 1.0
C      1  0.5681030000000  0.5687720000000  0.4915680000000 1.0
C      1  0.4943470000000  0.5644770000000  0.4652140000000 1.0
C      1  0.4596560000000  0.5076220000000  0.5889120000000 1.0
C      1  0.4474380000000  0.4490280000000  0.5703010000000 1.0
C      1  0.5089470000000  0.4962590000000  0.4161020000000 1.0
C      1  0.4422310000000  0.4435970000000  0.5018400000000 1.0
C      1  0.4445730000000  0.5674900000000  0.4838570000000 1.0
C      1  0.4981890000000  0.4608060000000  0.6037560000000 1.0
C      1  0.5895960000000  0.4859290000000  0.5318530000000 1.0
C      1  0.4916970000000  0.4907790000000  0.6055490000000 1.0
C      1  0.5595520000000  0.4906000000000  0.4776070000000 1.0
C      1  0.4072510000000  0.4563410000000  0.4354490000000 1.0
C      1  0.5430170000000  0.5171010000000  0.5610500000000 1.0
C      1  0.4812790000000  0.5141960000000  0.4517900000000 1.0
C      1  0.5664750000000  0.4182170000000  0.5355820000000 1.0
C      1  0.5522990000000  0.6041570000000  0.5439730000000 1.0
C      1  0.5133000000000  0.4276430000000  0.4538950000000 1.0
C      1  0.4265110000000  0.5350650000000  0.4275560000000 1.0
C      1  0.4571860000000  0.5615220000000  0.5387750000000 1.0
C      1  0.5336880000000  0.4181030000000  0.5417700000000 1.0
C      1  0.4634320000000  0.4246860000000  0.5429320000000 1.0
C      1  0.4672310000000  0.4144290000000  0.4641370000000 1.0
C      1  0.4721820000000  0.5393540000000  0.5930580000000 1.0
C      1  0.5901240000000  0.4618700000000  0.4857140000000 1.0
C      1  0.5375150000000  0.4718900000000  0.5786110000000 1.0
C      1  0.4927030000000  0.4140420000000  0.5181230000000 1.0
C      1  0.4734640000000  0.4785340000000  0.4881910000000 1.0
C      1  0.3958800000000  0.5301300000000  0.4713710000000 1.0
C      1  0.4936990000000  0.5137500000000  0.5521070000000 1.0
C      1  0.4825140000000  0.5169870000000  0.4119180000000 1.0
C      1  0.4646490000000  0.4387590000000  0.4502250000000 1.0
C      1  0.5579560000000  0.4983830000000  0.4155840000000 1.0
C      1  0.5689660000000  0.5770790000000  0.5374340000000 1.0
C      1  0.4965260000000  0.5181250000000  0.6037740000000 1.0
C      1  0.5676600000000  0.4469480000000  0.4957100000000 1.0
C      1  0.5235490000000  0.4965880000000  0.5160680000000 1.0
C      1  0.5996640000000  0.5293490000000  0.4894170000000 1.0
C      1  0.5366950000000  0.5777720000000  0.5285450000000 1.0
C      1  0.5979750000000  0.5485950000000  0.4680870000000 1.0
C      1  0.5125310000000  0.6131510000000  0.5018580000000 1.0
C      1  0.4840050000000  0.5686830000000  0.4344250000000 1.0
C      1  0.5626900000000  0.5357390000000  0.5600920000000 1.0
C      1  0.4409530000000  0.5079480000000  0.5621400000000 1.0
C      1  0.5916830000000  0.5013860000000  0.4834280000000 1.0
C      1  0.5186700000000  0.4486630000000  0.4761350000000 1.0
C      1  0.5276120000000  0.6093390000000  0.5235300000000 1.0
C      1  0.4399200000000  0.4862260000000  0.4178240000000 1.0
C      1  0.4779160000000  0.4653990000000  0.4587450000000 1.0
C      1  0.5429670000000  0.5232130000000  0.5120620000000 1.0
C      1  0.5039700000000  0.5540830000000  0.5620300000000 1.0
C      1  0.5144080000000  0.4274670000000  0.5683920000000 1.0
C      1  0.5295410000000  0.4510800000000  0.4126850000000 1.0
C      1  0.4705090000000  0.5891210000000  0.4856080000000 1.0
C      1  0.4157040000000  0.5576620000000  0.4729170000000 1.0
C      1  0.5504380000000  0.4906140000000  0.5320320000000 1.0
C      1  0.4534390000000  0.4881570000000  0.4637360000000 1.0
C      1  0.4732310000000  0.4508040000000  0.5143400000000 1.0
C      1  0.5728470000000  0.4188350000000  0.5071010000000 1.0
C      1  0.5912220000000  0.5368950000000  0.5154830000000 1.0
C      1  0.4718910000000  0.4795330000000  0.5806300000000 1.0
C      1  0.5576630000000  0.5213660000000  0.4641380000000 1.0
C      1  0.4976070000000  0.4602930000000  0.5352790000000 1.0
C      1  0.5474930000000  0.5435690000000  0.4885850000000 1.0
C      1  0.5248200000000  0.5475960000000  0.5793420000000 1.0
C      1  0.4787940000000  0.5412450000000  0.5431130000000 1.0
C      1  0.4550410000000  0.4579550000000  0.5425450000000 1.0
C      1  0.4096460000000  0.5626270000000  0.5236860000000 1.0
C      1  0.4934290000000  0.4091610000000  0.5487950000000 1.0
C      1  0.4843670000000  0.5258270000000  0.5153240000000 1.0
C      1  0.4173700000000  0.4614870000000  0.5129460000000 1.0
C      1  0.4999720000000  0.4925860000000  0.4996340000000 1.0
C      1  0.4835430000000  0.4838230000000  0.5532130000000 1.0
C      1  0.5511430000000  0.4114740000000  0.4877880000000 1.0
C      1  0.4742630000000  0.4957500000000  0.5221600000000 1.0
C      1  0.5262040000000  0.5239220000000  0.4565560000000 1.0
C      1  0.5391930000000  0.4994470000000  0.5855090000000 1.0
C      1  0.4931090000000  0.5388070000000  0.4728640000000 1.0
C      1  0.4794130000000  0.4593530000000  0.4194260000000 1.0
C      1  0.5148350000000  0.5316210000000  0.4293960000000 1.0
C      1  0.4675510000000  0.5888740000000  0.5537600000000 1.0
C      1  0.5112740000000  0.5308000000000  0.4997330000000 1.0
C      1  0.5635700000000  0.4638660000000  0.4560550000000 1.0
C      1  0.4055490000000  0.4687070000000  0.4610680000000 1.0
C      1  0.4455070000000  0.5276400000000  0.4857530000000 1.0
C      1  0.5833210000000  0.4364680000000  0.5500670000000 1.0
C      1  0.4775230000000  0.5434610000000  0.4167520000000 1.0
C      1  0.5389440000000  0.4298120000000  0.4329290000000 1.0
C      1  0.5164680000000  0.5716840000000  0.4327210000000 1.0
C      1  0.4238140000000  0.5352990000000  0.5606560000000 1.0
C      1  0.5260440000000  0.4155530000000  0.4970390000000 1.0
C      1  0.5743710000000  0.5489630000000  0.4539610000000 1.0
C      1  0.4194060000000  0.4850950000000  0.5264210000000 1.0
C      1  0.5723830000000  0.5149760000000  0.5273840000000 1.0
C      1  0.5410280000000  0.5540630000000  0.4486110000000 1.0
C      1  0.5021890000000  0.5943160000000  0.4797130000000 1.0
C      1  0.5917660000000  0.4802750000000  0.4567680000000 1.0
C      1  0.4302710000000  0.4595240000000  0.4189460000000 1.0
C      1  0.5069880000000  0.5018250000000  0.4701880000000 1.0
C      1  0.4331540000000  0.5050840000000  0.4424200000000 1.0
C      1  0.5299100000000  0.5520490000000  0.4083400000000 1.0
C      1  0.5277620000000  0.4498410000000  0.5319420000000 1.0
C      1  0.4656580000000  0.4011300000000  0.4919870000000 1.0
C      1  0.5054500000000  0.4796540000000  0.4456150000000 1.0
C      1  0.4969320000000  0.3886050000000  0.4966100000000 1.0
C      1  0.5779820000000  0.4644770000000  0.5467880000000 1.0
C      1  0.5470760000000  0.4669170000000  0.5508130000000 1.0
C      1  0.4532960000000  0.4163210000000  0.5132300000000 1.0
C      1  0.5027790000000  0.4447450000000  0.4263260000000 1.0
C      1  0.4589460000000  0.5791600000000  0.4548850000000 1.0
C      1  0.5393260000000  0.4529680000000  0.5015550000000 1.0
C      1  0.4784010000000  0.5665540000000  0.5739960000000 1.0
C      1  0.4711170000000  0.4477710000000  0.5927990000000 1.0
C      1  0.5206630000000  0.5141030000000  0.5436720000000 1.0
C      1  0.3900710000000  0.5280580000000  0.5205720000000 1.0
C      1  0.4535580000000  0.5295480000000  0.4564360000000 1.0
C      1  0.4164770000000  0.4550770000000  0.4825090000000 1.0
C      1  0.4192820000000  0.5138430000000  0.4886830000000 1.0
C      1  0.5353360000000  0.4785470000000  0.4096650000000 1.0
C      1  0.5202070000000  0.4521740000000  0.5878280000000 1.0
C      1  0.5192690000000  0.3943080000000  0.5221660000000 1.0
END
