TITL C-2778431-5191-608 0.000970899097945977 125000 -1129.37142786826 0 0 194 (C1) n - 1
REM
REM in /home/nfs/bkarasulu/CARBON/AIRSS/Generating-Clusters/REBO/Only-C1/SD-CG/HFTN-CG
REM
REM
REM
REM
REM
REM ./C.cell (11c1c37f851c82e70ff6c80c92926a4b)
REM
REM compiler GCC version 9.2.1 20190827 (Red Hat 9.2.1-1)
REM options -cpp -mtune=generic -march=x86-64 -g -O0 -fpre-include=/usr/include/finclude/math-vector-fortran.h
REM seed -969968311 1224991035 -1080975504 -2059401347 1409350684 -1817591097 2067950526 99394072 -486923692 -696801346 1406790363 -1144678289 1999017358 1717859850 1920144954 -1668322883 847054855 2100367608 -1870952219 369793604 813334899 -1053813093 -1328998357 1124094988 33278547 -1391681678 297152237 1092338070 562802120 -934538093 89981952 1851722514 -1183342069
REM
CELL 1.54180   50.00000   50.00000   50.00000   90.00000   90.00000   90.00000
LATT -1
SFAC C  
C      1  0.4974360000000  0.4445100000000  0.4955350000000 1.0
C      1  0.4929360000000  0.4743210000000  0.4696440000000 1.0
C      1  0.5026990000000  0.5272880000000  0.5993950000000 1.0
C      1  0.5655710000000  0.5653310000000  0.5662500000000 1.0
C      1  0.4957360000000  0.6124230000000  0.5560880000000 1.0
C      1  0.4237760000000  0.4972610000000  0.5537130000000 1.0
C      1  0.5365470000000  0.5183340000000  0.5403450000000 1.0
C      1  0.5482360000000  0.4817250000000  0.5513080000000 1.0
C      1  0.4446510000000  0.5567630000000  0.3578730000000 1.0
C      1  0.5769070000000  0.4975020000000  0.5225710000000 1.0
C      1  0.5601050000000  0.3970360000000  0.4940940000000 1.0
C      1  0.3906800000000  0.4996440000000  0.5599320000000 1.0
C      1  0.5540430000000  0.4789260000000  0.5119310000000 1.0
C      1  0.5179100000000  0.5007590000000  0.6112890000000 1.0
C      1  0.5997470000000  0.4752220000000  0.4323700000000 1.0
C      1  0.6137810000000  0.5088470000000  0.5327900000000 1.0
C      1  0.4203140000000  0.5343540000000  0.4521950000000 1.0
C      1  0.4920400000000  0.5599330000000  0.5992820000000 1.0
C      1  0.3747200000000  0.4949480000000  0.5318770000000 1.0
C      1  0.5015660000000  0.4743550000000  0.5708500000000 1.0
C      1  0.4742790000000  0.4074500000000  0.5118260000000 1.0
C      1  0.4634770000000  0.4831760000000  0.4578180000000 1.0
C      1  0.6018850000000  0.5257700000000  0.5507950000000 1.0
C      1  0.4850430000000  0.5865920000000  0.5061080000000 1.0
C      1  0.4599770000000  0.5474980000000  0.4134330000000 1.0
C      1  0.5635890000000  0.5257140000000  0.5206040000000 1.0
C      1  0.5524680000000  0.4470290000000  0.5171190000000 1.0
C      1  0.5457430000000  0.5047350000000  0.6110900000000 1.0
C      1  0.5173000000000  0.5289720000000  0.4268860000000 1.0
C      1  0.5344380000000  0.4082400000000  0.4330400000000 1.0
C      1  0.5063020000000  0.4732670000000  0.6023900000000 1.0
C      1  0.4022600000000  0.4480860000000  0.5611730000000 1.0
C      1  0.4885920000000  0.4901820000000  0.5220180000000 1.0
C      1  0.5308520000000  0.5660310000000  0.4334050000000 1.0
C      1  0.5777760000000  0.5328710000000  0.4539950000000 1.0
C      1  0.5561320000000  0.4568090000000  0.5856840000000 1.0
C      1  0.5375260000000  0.4215240000000  0.5586270000000 1.0
C      1  0.4723500000000  0.6096230000000  0.5395150000000 1.0
C      1  0.3900510000000  0.4535070000000  0.5301680000000 1.0
C      1  0.5328380000000  0.4136800000000  0.5015820000000 1.0
C      1  0.5272960000000  0.3970170000000  0.3863010000000 1.0
C      1  0.3987770000000  0.4691420000000  0.5079120000000 1.0
C      1  0.4177230000000  0.5603220000000  0.4372090000000 1.0
C      1  0.5332560000000  0.5185690000000  0.4775040000000 1.0
C      1  0.4724380000000  0.5722950000000  0.4290860000000 1.0
C      1  0.5517410000000  0.4870530000000  0.4161790000000 1.0
C      1  0.5807030000000  0.4727720000000  0.4125430000000 1.0
C      1  0.4622780000000  0.5353260000000  0.5337120000000 1.0
C      1  0.4308460000000  0.5057370000000  0.6035030000000 1.0
C      1  0.4777080000000  0.4845320000000  0.3543120000000 1.0
C      1  0.4324130000000  0.4427920000000  0.4996430000000 1.0
C      1  0.4290300000000  0.4393600000000  0.5652920000000 1.0
C      1  0.5729300000000  0.4593670000000  0.5491870000000 1.0
C      1  0.4962900000000  0.5875620000000  0.5794520000000 1.0
C      1  0.5847720000000  0.4341480000000  0.4697180000000 1.0
C      1  0.4429710000000  0.5026410000000  0.4433500000000 1.0
C      1  0.5287720000000  0.4716750000000  0.4007920000000 1.0
C      1  0.4617910000000  0.5111450000000  0.5199980000000 1.0
C      1  0.5180770000000  0.5931860000000  0.5013400000000 1.0
C      1  0.4934310000000  0.5495540000000  0.4937280000000 1.0
C      1  0.4917000000000  0.5018540000000  0.4211390000000 1.0
C      1  0.5224400000000  0.6064470000000  0.4745190000000 1.0
C      1  0.5775380000000  0.5371180000000  0.5716980000000 1.0
C      1  0.4944810000000  0.5495700000000  0.5674060000000 1.0
C      1  0.6127180000000  0.4738320000000  0.4854530000000 1.0
C      1  0.5350780000000  0.6034270000000  0.5250280000000 1.0
C      1  0.5113580000000  0.5208960000000  0.5609310000000 1.0
C      1  0.4104510000000  0.5030070000000  0.5845850000000 1.0
C      1  0.5106540000000  0.5120560000000  0.4549270000000 1.0
C      1  0.4619170000000  0.5179450000000  0.4208700000000 1.0
C      1  0.4737250000000  0.5662440000000  0.4615040000000 1.0
C      1  0.4978280000000  0.4284070000000  0.5247720000000 1.0
C      1  0.5283310000000  0.6277390000000  0.4416010000000 1.0
C      1  0.5290360000000  0.4435190000000  0.4002510000000 1.0
C      1  0.4253890000000  0.5065940000000  0.4725840000000 1.0
C      1  0.4658640000000  0.5624890000000  0.4910320000000 1.0
C      1  0.5051180000000  0.4766810000000  0.5004650000000 1.0
C      1  0.5661870000000  0.4087020000000  0.5447060000000 1.0
C      1  0.5996790000000  0.4556030000000  0.5285170000000 1.0
C      1  0.4564690000000  0.4901010000000  0.5938230000000 1.0
C      1  0.5138590000000  0.6005640000000  0.4437080000000 1.0
C      1  0.5222000000000  0.6188650000000  0.5457990000000 1.0
C      1  0.5456510000000  0.3930400000000  0.5250120000000 1.0
C      1  0.6030700000000  0.4446550000000  0.4965060000000 1.0
C      1  0.5422470000000  0.3983120000000  0.4649740000000 1.0
C      1  0.4241960000000  0.5832350000000  0.4528940000000 1.0
C      1  0.5214040000000  0.3757090000000  0.4692850000000 1.0
C      1  0.4122240000000  0.5853950000000  0.4785400000000 1.0
C      1  0.3864680000000  0.4928650000000  0.4433520000000 1.0
C      1  0.5663190000000  0.4343680000000  0.5660710000000 1.0
C      1  0.5158470000000  0.5619700000000  0.4994490000000 1.0
C      1  0.5476020000000  0.5492490000000  0.4104920000000 1.0
C      1  0.4301060000000  0.4710690000000  0.4400690000000 1.0
C      1  0.5785470000000  0.4293980000000  0.5237200000000 1.0
C      1  0.5097170000000  0.3937730000000  0.5651680000000 1.0
C      1  0.4780530000000  0.4610140000000  0.5602730000000 1.0
C      1  0.4673220000000  0.4376350000000  0.4187320000000 1.0
C      1  0.5296700000000  0.5384090000000  0.5824720000000 1.0
C      1  0.4601570000000  0.4403710000000  0.5791680000000 1.0
C      1  0.4806940000000  0.5267560000000  0.4634970000000 1.0
C      1  0.4828280000000  0.4294310000000  0.5552960000000 1.0
C      1  0.4677540000000  0.6007770000000  0.4804510000000 1.0
C      1  0.5629240000000  0.5957390000000  0.5283580000000 1.0
C      1  0.5782070000000  0.5816810000000  0.5086010000000 1.0
C      1  0.5472480000000  0.5161040000000  0.4164120000000 1.0
C      1  0.5368910000000  0.6378610000000  0.5589130000000 1.0
C      1  0.4909150000000  0.4438410000000  0.5937740000000 1.0
C      1  0.5648190000000  0.5179650000000  0.4740220000000 1.0
C      1  0.3914010000000  0.5180990000000  0.4557140000000 1.0
C      1  0.4786040000000  0.5142250000000  0.5845460000000 1.0
C      1  0.3943080000000  0.5123390000000  0.4856200000000 1.0
C      1  0.5717880000000  0.4796480000000  0.5835290000000 1.0
C      1  0.5142430000000  0.4230890000000  0.5812650000000 1.0
C      1  0.4432260000000  0.4985680000000  0.4958480000000 1.0
C      1  0.4419730000000  0.5568760000000  0.5437230000000 1.0
C      1  0.5293510000000  0.5479990000000  0.4600600000000 1.0
C      1  0.5182620000000  0.5797990000000  0.5570110000000 1.0
C      1  0.4439050000000  0.5546870000000  0.3846230000000 1.0
C      1  0.5375420000000  0.5434690000000  0.5096730000000 1.0
C      1  0.4615570000000  0.5584390000000  0.6060770000000 1.0
C      1  0.4394960000000  0.5443460000000  0.4955480000000 1.0
C      1  0.4846930000000  0.5053930000000  0.5522490000000 1.0
C      1  0.4933860000000  0.5177260000000  0.4938280000000 1.0
C      1  0.4613780000000  0.4170970000000  0.5363570000000 1.0
C      1  0.5212940000000  0.4314100000000  0.4794060000000 1.0
C      1  0.6026270000000  0.4974810000000  0.5026670000000 1.0
C      1  0.4509080000000  0.5291470000000  0.5958510000000 1.0
C      1  0.5225290000000  0.3850330000000  0.5453680000000 1.0
C      1  0.5372260000000  0.6345950000000  0.4699180000000 1.0
C      1  0.5158860000000  0.4248500000000  0.4510880000000 1.0
C      1  0.5668150000000  0.4464320000000  0.4130530000000 1.0
C      1  0.5503820000000  0.4445740000000  0.4351440000000 1.0
C      1  0.5856020000000  0.4149350000000  0.4959570000000 1.0
C      1  0.4755350000000  0.4348860000000  0.4722900000000 1.0
C      1  0.5135110000000  0.4821020000000  0.4481530000000 1.0
C      1  0.4292020000000  0.5591370000000  0.4121260000000 1.0
C      1  0.5719610000000  0.5350180000000  0.4279070000000 1.0
C      1  0.4301350000000  0.4105840000000  0.4908160000000 1.0
C      1  0.4728770000000  0.4947330000000  0.4856950000000 1.0
C      1  0.4169880000000  0.5529550000000  0.5270600000000 1.0
C      1  0.4802480000000  0.4885920000000  0.3809130000000 1.0
C      1  0.5867500000000  0.4890030000000  0.5542620000000 1.0
C      1  0.5287780000000  0.4295590000000  0.5305240000000 1.0
C      1  0.5379320000000  0.5634940000000  0.5686830000000 1.0
C      1  0.5224350000000  0.4793430000000  0.5553830000000 1.0
C      1  0.5054540000000  0.4867180000000  0.3963850000000 1.0
C      1  0.4647230000000  0.4747360000000  0.5365270000000 1.0
C      1  0.5489870000000  0.4470020000000  0.4865300000000 1.0
C      1  0.5042730000000  0.3571290000000  0.4728280000000 1.0
C      1  0.5294570000000  0.4156440000000  0.4060330000000 1.0
C      1  0.4983950000000  0.5490090000000  0.4484070000000 1.0
C      1  0.4158800000000  0.5683820000000  0.5002350000000 1.0
C      1  0.3772270000000  0.4704660000000  0.5557180000000 1.0
C      1  0.4191210000000  0.5242340000000  0.5145620000000 1.0
C      1  0.4891540000000  0.4371810000000  0.4421840000000 1.0
C      1  0.5767030000000  0.4936650000000  0.4824620000000 1.0
C      1  0.5550940000000  0.5243850000000  0.5940030000000 1.0
C      1  0.4602030000000  0.4179590000000  0.4029790000000 1.0
C      1  0.4220670000000  0.4905780000000  0.5204200000000 1.0
C      1  0.4995820000000  0.5746150000000  0.5336220000000 1.0
C      1  0.5617750000000  0.4687930000000  0.4684890000000 1.0
C      1  0.5559460000000  0.4282480000000  0.4597730000000 1.0
C      1  0.5634280000000  0.5114580000000  0.5576460000000 1.0
C      1  0.4884970000000  0.4690550000000  0.4303000000000 1.0
C      1  0.4578790000000  0.5869320000000  0.5432700000000 1.0
C      1  0.6012210000000  0.5915370000000  0.4970050000000 1.0
C      1  0.4687040000000  0.5716740000000  0.5691720000000 1.0
C      1  0.3805040000000  0.5047130000000  0.5080450000000 1.0
C      1  0.5011600000000  0.5800340000000  0.4233780000000 1.0
C      1  0.5682000000000  0.5543940000000  0.5028040000000 1.0
C      1  0.5530530000000  0.5560670000000  0.4751650000000 1.0
C      1  0.5732460000000  0.5896430000000  0.5544300000000 1.0
C      1  0.5411640000000  0.4737720000000  0.4435150000000 1.0
C      1  0.4560560000000  0.4677550000000  0.4189690000000 1.0
C      1  0.4591390000000  0.4922330000000  0.4001290000000 1.0
C      1  0.4411700000000  0.4618970000000  0.5221110000000 1.0
C      1  0.4607600000000  0.4121970000000  0.4877910000000 1.0
C      1  0.5289780000000  0.4510280000000  0.5935880000000 1.0
C      1  0.4541180000000  0.4930290000000  0.5612650000000 1.0
C      1  0.4513050000000  0.5339690000000  0.4663590000000 1.0
C      1  0.6195430000000  0.4794160000000  0.5339430000000 1.0
C      1  0.4298600000000  0.4418410000000  0.4671790000000 1.0
C      1  0.5324710000000  0.4910800000000  0.4975280000000 1.0
C      1  0.5105450000000  0.5262590000000  0.5211120000000 1.0
C      1  0.4027280000000  0.4271020000000  0.4791130000000 1.0
C      1  0.4023130000000  0.4709970000000  0.4531550000000 1.0
C      1  0.4390150000000  0.4340700000000  0.5380330000000 1.0
C      1  0.4552250000000  0.4530340000000  0.4559600000000 1.0
C      1  0.5146980000000  0.5558540000000  0.4049990000000 1.0
C      1  0.3967180000000  0.4589290000000  0.4803840000000 1.0
C      1  0.4907650000000  0.5443470000000  0.5362040000000 1.0
C      1  0.5942750000000  0.4647450000000  0.4611970000000 1.0
C      1  0.4537690000000  0.5904810000000  0.4511810000000 1.0
C      1  0.4422890000000  0.5553370000000  0.5777900000000 1.0
END
