TITL C-2778427-5640-177 -0.00482598977461511 125000 -1093.48848001348 0 0 191 (C1) n - 1
REM
REM in /home/nfs/bkarasulu/CARBON/AIRSS/Generating-Clusters/REBO/Only-C1/SD-CG/HFTN-CG
REM
REM
REM
REM
REM
REM ./C.cell (11c1c37f851c82e70ff6c80c92926a4b)
REM
REM compiler GCC version 9.2.1 20190827 (Red Hat 9.2.1-1)
REM options -cpp -mtune=generic -march=x86-64 -g -O0 -fpre-include=/usr/include/finclude/math-vector-fortran.h
REM seed -772250299 -468009127 -1176632077 -995587240 -599545485 -850364649 -389918649 -149008785 293056775 -2042701062 920283906 -1353849820 -1029095569 261702229 1832471357 -1802220025 739771220 1308664938 759234617 -1170194844 -868246306 -1837153222 -881242618 -950601296 -63571697 1622688862 1785791915 -1221854263 1471755878 274854037 -576039562 596561316 -1500043556
REM
CELL 1.54180   50.00000   50.00000   50.00000   90.00000   90.00000   90.00000
LATT -1
SFAC C  
C      1  0.5588850000000  0.5502370000000  0.4874620000000 1.0
C      1  0.4146950000000  0.4770060000000  0.5798460000000 1.0
C      1  0.4926970000000  0.5474230000000  0.4447860000000 1.0
C      1  0.5124430000000  0.4049800000000  0.4557890000000 1.0
C      1  0.5336110000000  0.4988570000000  0.6059700000000 1.0
C      1  0.5793000000000  0.4562170000000  0.4779180000000 1.0
C      1  0.5101350000000  0.4133070000000  0.4225460000000 1.0
C      1  0.5263460000000  0.5225680000000  0.4066230000000 1.0
C      1  0.5733060000000  0.5230980000000  0.4623420000000 1.0
C      1  0.4193940000000  0.5476290000000  0.5455640000000 1.0
C      1  0.4468970000000  0.4199920000000  0.4549470000000 1.0
C      1  0.4486530000000  0.4323060000000  0.5673350000000 1.0
C      1  0.4590870000000  0.6030660000000  0.5327790000000 1.0
C      1  0.5504790000000  0.5769850000000  0.5469810000000 1.0
C      1  0.4074120000000  0.4740220000000  0.5371300000000 1.0
C      1  0.5962360000000  0.4380250000000  0.4994360000000 1.0
C      1  0.5667990000000  0.4924570000000  0.4116660000000 1.0
C      1  0.5138850000000  0.5708920000000  0.4427330000000 1.0
C      1  0.3926980000000  0.4657580000000  0.5073880000000 1.0
C      1  0.4860850000000  0.4990510000000  0.5427090000000 1.0
C      1  0.5623600000000  0.4375660000000  0.5197940000000 1.0
C      1  0.5570970000000  0.5888360000000  0.5235930000000 1.0
C      1  0.5028810000000  0.4642260000000  0.5947870000000 1.0
C      1  0.5110140000000  0.3875450000000  0.5139900000000 1.0
C      1  0.5293350000000  0.5029090000000  0.4840000000000 1.0
C      1  0.5053530000000  0.4893660000000  0.4121380000000 1.0
C      1  0.5046170000000  0.5819540000000  0.5441370000000 1.0
C      1  0.4994360000000  0.4761330000000  0.5231520000000 1.0
C      1  0.4693600000000  0.6327610000000  0.5311640000000 1.0
C      1  0.4908270000000  0.5141170000000  0.4863630000000 1.0
C      1  0.5396600000000  0.3984040000000  0.5024060000000 1.0
C      1  0.5349590000000  0.5558850000000  0.4637090000000 1.0
C      1  0.4891540000000  0.5857200000000  0.5743210000000 1.0
C      1  0.4824710000000  0.4501410000000  0.5199170000000 1.0
C      1  0.5744720000000  0.5561850000000  0.4586520000000 1.0
C      1  0.4395660000000  0.5371730000000  0.4939540000000 1.0
C      1  0.5762180000000  0.5845580000000  0.4639020000000 1.0
C      1  0.4496000000000  0.4523980000000  0.5162290000000 1.0
C      1  0.4743260000000  0.5257050000000  0.4295240000000 1.0
C      1  0.4085480000000  0.5502180000000  0.5016680000000 1.0
C      1  0.4576760000000  0.5665280000000  0.4422840000000 1.0
C      1  0.5564450000000  0.5140850000000  0.5535710000000 1.0
C      1  0.5602550000000  0.4914980000000  0.5314950000000 1.0
C      1  0.4285500000000  0.4385110000000  0.4426010000000 1.0
C      1  0.4677840000000  0.4921610000000  0.4983950000000 1.0
C      1  0.5396020000000  0.4780560000000  0.4548960000000 1.0
C      1  0.6151650000000  0.4949870000000  0.4848120000000 1.0
C      1  0.5449160000000  0.4419510000000  0.4388440000000 1.0
C      1  0.4661160000000  0.4268800000000  0.4129170000000 1.0
C      1  0.4421030000000  0.4450010000000  0.4857400000000 1.0
C      1  0.4713750000000  0.4204950000000  0.4398280000000 1.0
C      1  0.5128070000000  0.5500260000000  0.4888510000000 1.0
C      1  0.4052500000000  0.5515430000000  0.4695390000000 1.0
C      1  0.4942950000000  0.5443540000000  0.3970910000000 1.0
C      1  0.3867520000000  0.4963580000000  0.5215580000000 1.0
C      1  0.4485260000000  0.5950330000000  0.4686860000000 1.0
C      1  0.5268580000000  0.4288310000000  0.4959110000000 1.0
C      1  0.5138570000000  0.5124640000000  0.5314710000000 1.0
C      1  0.4619300000000  0.4025030000000  0.5288330000000 1.0
C      1  0.4688700000000  0.5309630000000  0.5066470000000 1.0
C      1  0.5438200000000  0.5109990000000  0.4579100000000 1.0
C      1  0.4259620000000  0.4884670000000  0.5048490000000 1.0
C      1  0.4086600000000  0.4568770000000  0.4515440000000 1.0
C      1  0.4825210000000  0.5515050000000  0.4755800000000 1.0
C      1  0.4467390000000  0.5010640000000  0.4133330000000 1.0
C      1  0.4482000000000  0.5343110000000  0.5325900000000 1.0
C      1  0.4858970000000  0.4697650000000  0.4454220000000 1.0
C      1  0.5321400000000  0.4488740000000  0.4686790000000 1.0
C      1  0.5886150000000  0.5506710000000  0.5269910000000 1.0
C      1  0.5927280000000  0.4638450000000  0.4514430000000 1.0
C      1  0.4657910000000  0.5255780000000  0.3989080000000 1.0
C      1  0.4683900000000  0.5323790000000  0.5581550000000 1.0
C      1  0.5296600000000  0.4705210000000  0.6012980000000 1.0
C      1  0.5884770000000  0.5108800000000  0.5305760000000 1.0
C      1  0.6083400000000  0.4893410000000  0.4574650000000 1.0
C      1  0.5023030000000  0.4410930000000  0.4045100000000 1.0
C      1  0.6228660000000  0.5216230000000  0.4927980000000 1.0
C      1  0.5010570000000  0.5964480000000  0.4554360000000 1.0
C      1  0.5306950000000  0.4082450000000  0.5606490000000 1.0
C      1  0.5089870000000  0.4388310000000  0.5474570000000 1.0
C      1  0.5281480000000  0.5383490000000  0.5686700000000 1.0
C      1  0.5559340000000  0.5248800000000  0.3921730000000 1.0
C      1  0.4995950000000  0.6207000000000  0.4793020000000 1.0
C      1  0.4624210000000  0.5784630000000  0.5560180000000 1.0
C      1  0.6077420000000  0.5324960000000  0.5136770000000 1.0
C      1  0.5242500000000  0.4455400000000  0.5222360000000 1.0
C      1  0.4648620000000  0.4538160000000  0.4663140000000 1.0
C      1  0.4725290000000  0.4987270000000  0.4442170000000 1.0
C      1  0.4986830000000  0.4814330000000  0.4914460000000 1.0
C      1  0.4980240000000  0.4640820000000  0.5633760000000 1.0
C      1  0.4670040000000  0.4659550000000  0.5563040000000 1.0
C      1  0.4349150000000  0.5292240000000  0.4239180000000 1.0
C      1  0.5118110000000  0.4917830000000  0.4435530000000 1.0
C      1  0.5460030000000  0.4549300000000  0.5801300000000 1.0
C      1  0.5265540000000  0.5281440000000  0.4361710000000 1.0
C      1  0.4336970000000  0.4774670000000  0.4281830000000 1.0
C      1  0.4167560000000  0.4746870000000  0.4772110000000 1.0
C      1  0.5953240000000  0.5109630000000  0.4439540000000 1.0
C      1  0.4707860000000  0.5957040000000  0.4456180000000 1.0
C      1  0.4943980000000  0.5497200000000  0.5175340000000 1.0
C      1  0.5079580000000  0.5998650000000  0.5215280000000 1.0
C      1  0.5082020000000  0.5626900000000  0.4113490000000 1.0
C      1  0.4200180000000  0.4458880000000  0.5286350000000 1.0
C      1  0.5309440000000  0.4875780000000  0.5142640000000 1.0
C      1  0.4668130000000  0.4810430000000  0.5932600000000 1.0
C      1  0.5504680000000  0.5293660000000  0.5233940000000 1.0
C      1  0.3965620000000  0.5186270000000  0.4708940000000 1.0
C      1  0.5798500000000  0.5372360000000  0.5543070000000 1.0
C      1  0.4551910000000  0.4071820000000  0.4796660000000 1.0
C      1  0.4348490000000  0.5659670000000  0.4762190000000 1.0
C      1  0.5244410000000  0.5258040000000  0.5045490000000 1.0
C      1  0.5224510000000  0.4661930000000  0.3984520000000 1.0
C      1  0.5119330000000  0.5422000000000  0.6047450000000 1.0
C      1  0.5645380000000  0.5371660000000  0.5848410000000 1.0
C      1  0.5739760000000  0.4365390000000  0.4435030000000 1.0
C      1  0.4996930000000  0.4163370000000  0.5722090000000 1.0
C      1  0.5123770000000  0.4513190000000  0.4341660000000 1.0
C      1  0.5976480000000  0.4850050000000  0.5103250000000 1.0
C      1  0.4781350000000  0.4504560000000  0.6033250000000 1.0
C      1  0.4591590000000  0.6005900000000  0.4991120000000 1.0
C      1  0.5204550000000  0.5720230000000  0.5725440000000 1.0
C      1  0.4837190000000  0.3996640000000  0.4739490000000 1.0
C      1  0.4108970000000  0.5022290000000  0.5694140000000 1.0
C      1  0.4071030000000  0.5653360000000  0.5259910000000 1.0
C      1  0.4570500000000  0.5352930000000  0.4580370000000 1.0
C      1  0.4342790000000  0.4174710000000  0.5044740000000 1.0
C      1  0.4959360000000  0.4322470000000  0.4543810000000 1.0
C      1  0.4602340000000  0.4823590000000  0.5275190000000 1.0
C      1  0.5747530000000  0.5243600000000  0.4203950000000 1.0
C      1  0.5403800000000  0.5561860000000  0.5952380000000 1.0
C      1  0.4423840000000  0.4769490000000  0.4584240000000 1.0
C      1  0.6029680000000  0.4568540000000  0.5211620000000 1.0
C      1  0.5434360000000  0.5508540000000  0.5454320000000 1.0
C      1  0.5475630000000  0.4621000000000  0.5011400000000 1.0
C      1  0.4805800000000  0.4355270000000  0.4910360000000 1.0
C      1  0.5726700000000  0.5686910000000  0.5082680000000 1.0
C      1  0.5093610000000  0.5143240000000  0.6108880000000 1.0
C      1  0.5728180000000  0.4316290000000  0.5485640000000 1.0
C      1  0.4754560000000  0.4352710000000  0.5472820000000 1.0
C      1  0.5696690000000  0.4850280000000  0.4932850000000 1.0
C      1  0.5645550000000  0.5174020000000  0.4947480000000 1.0
C      1  0.4462540000000  0.5538930000000  0.4191750000000 1.0
C      1  0.5408920000000  0.4099670000000  0.4713440000000 1.0
C      1  0.4740460000000  0.4866770000000  0.4011410000000 1.0
C      1  0.5585530000000  0.5931250000000  0.4846360000000 1.0
C      1  0.4761590000000  0.5124980000000  0.6024830000000 1.0
C      1  0.4026570000000  0.5184950000000  0.5420450000000 1.0
C      1  0.4864100000000  0.6163080000000  0.5067680000000 1.0
C      1  0.3998000000000  0.4752480000000  0.4294080000000 1.0
C      1  0.4743290000000  0.4268920000000  0.5863960000000 1.0
C      1  0.4657910000000  0.6136280000000  0.4245430000000 1.0
C      1  0.5941700000000  0.4514520000000  0.5480470000000 1.0
C      1  0.4422290000000  0.4496670000000  0.4137910000000 1.0
C      1  0.4331850000000  0.4934310000000  0.5375170000000 1.0
C      1  0.5392370000000  0.4948370000000  0.3917470000000 1.0
C      1  0.5658540000000  0.4266350000000  0.4877170000000 1.0
C      1  0.5339380000000  0.6007370000000  0.5070160000000 1.0
C      1  0.5280690000000  0.4782410000000  0.5622190000000 1.0
C      1  0.4423120000000  0.4638930000000  0.5781010000000 1.0
C      1  0.5665610000000  0.4753910000000  0.4384310000000 1.0
C      1  0.4690210000000  0.5675530000000  0.5948500000000 1.0
C      1  0.5901050000000  0.4724640000000  0.5664880000000 1.0
C      1  0.5516620000000  0.4301410000000  0.5672620000000 1.0
C      1  0.5179960000000  0.5103250000000  0.5637350000000 1.0
C      1  0.4387300000000  0.5154380000000  0.5590420000000 1.0
C      1  0.4644700000000  0.5681610000000  0.4928240000000 1.0
C      1  0.4944130000000  0.5112500000000  0.3889930000000 1.0
C      1  0.4918960000000  0.5478820000000  0.5856850000000 1.0
C      1  0.4711530000000  0.5723430000000  0.5244660000000 1.0
C      1  0.5536290000000  0.5457520000000  0.4362910000000 1.0
C      1  0.5380790000000  0.3908630000000  0.5347950000000 1.0
C      1  0.4554220000000  0.5036510000000  0.4713640000000 1.0
C      1  0.5577950000000  0.5098840000000  0.5932350000000 1.0
C      1  0.5030890000000  0.5195610000000  0.4592120000000 1.0
C      1  0.3907280000000  0.4939730000000  0.4877140000000 1.0
C      1  0.5026430000000  0.4552950000000  0.4785050000000 1.0
C      1  0.4722310000000  0.4560760000000  0.3988520000000 1.0
C      1  0.5711260000000  0.4909480000000  0.5737590000000 1.0
C      1  0.4438300000000  0.5541350000000  0.5670360000000 1.0
C      1  0.4175580000000  0.5191760000000  0.5112840000000 1.0
C      1  0.5007630000000  0.4004480000000  0.5428870000000 1.0
C      1  0.4395440000000  0.4204840000000  0.5381310000000 1.0
C      1  0.4862070000000  0.4102360000000  0.5131140000000 1.0
C      1  0.4549460000000  0.5378700000000  0.5951540000000 1.0
C      1  0.4234080000000  0.5292750000000  0.4528220000000 1.0
C      1  0.5495040000000  0.4625990000000  0.4127370000000 1.0
C      1  0.4099960000000  0.4404170000000  0.4966060000000 1.0
C      1  0.5480740000000  0.4619050000000  0.5405450000000 1.0
C      1  0.4941960000000  0.5502580000000  0.5516920000000 1.0
C      1  0.4869500000000  0.5007860000000  0.5739870000000 1.0
C      1  0.5282090000000  0.6047050000000  0.4745780000000 1.0
END
