TITL C-2778434-4341-1489 -0.00413191398718254 125000 -1003.20809019932 0 0 173 (C1) n - 1
REM
REM in /home/nfs/bkarasulu/CARBON/AIRSS/Generating-Clusters/REBO/Only-C1/SD-CG/HFTN-CG
REM
REM
REM
REM
REM
REM ./C.cell (11c1c37f851c82e70ff6c80c92926a4b)
REM
REM compiler GCC version 9.2.1 20190827 (Red Hat 9.2.1-1)
REM options -cpp -mtune=generic -march=x86-64 -g -O0 -fpre-include=/usr/include/finclude/math-vector-fortran.h
REM seed 1504936322 139126700 -1562981380 -1195239304 -449052468 1442266632 -1876314261 265169134 -1648175607 1611130567 1946917936 -1375243277 455919671 1414311598 1141471944 -1007098311 -725395097 -1824270424 -1027818269 -1308327720 1665359784 685404366 -240568828 1008990478 -280774472 53742117 1407939645 -714808277 1326171214 -1020274959 1146557403 1870724997 1424337361
REM
CELL 1.54180   50.00000   50.00000   50.00000   90.00000   90.00000   90.00000
LATT -1
SFAC C  
C      1  0.5532310000000  0.6029540000000  0.5373610000000 1.0
C      1  0.5932480000000  0.5260590000000  0.4498120000000 1.0
C      1  0.5034170000000  0.6118420000000  0.4598890000000 1.0
C      1  0.4705250000000  0.5395810000000  0.5143720000000 1.0
C      1  0.5031310000000  0.5048200000000  0.4645620000000 1.0
C      1  0.5044410000000  0.5602340000000  0.6084270000000 1.0
C      1  0.4486930000000  0.5556050000000  0.5251500000000 1.0
C      1  0.5307070000000  0.5601240000000  0.5374540000000 1.0
C      1  0.3974000000000  0.5077930000000  0.4751260000000 1.0
C      1  0.4121450000000  0.5280130000000  0.5148940000000 1.0
C      1  0.5699480000000  0.5050000000000  0.5453380000000 1.0
C      1  0.5485050000000  0.5826590000000  0.4431820000000 1.0
C      1  0.4347820000000  0.4301990000000  0.5923020000000 1.0
C      1  0.4721220000000  0.5113720000000  0.5299690000000 1.0
C      1  0.5152260000000  0.4857930000000  0.4970610000000 1.0
C      1  0.5974140000000  0.5547140000000  0.4925480000000 1.0
C      1  0.4609520000000  0.5024100000000  0.4076890000000 1.0
C      1  0.5203290000000  0.5403870000000  0.4587150000000 1.0
C      1  0.5140590000000  0.4494070000000  0.5213560000000 1.0
C      1  0.4876210000000  0.4975900000000  0.5756190000000 1.0
C      1  0.5573090000000  0.5866980000000  0.4721010000000 1.0
C      1  0.5054470000000  0.3902730000000  0.4470810000000 1.0
C      1  0.5371760000000  0.5750060000000  0.4936670000000 1.0
C      1  0.5571160000000  0.4125720000000  0.5255490000000 1.0
C      1  0.5368710000000  0.5307760000000  0.4366380000000 1.0
C      1  0.4213690000000  0.5714580000000  0.5491340000000 1.0
C      1  0.5491340000000  0.4663840000000  0.5301320000000 1.0
C      1  0.4111920000000  0.4563890000000  0.4324210000000 1.0
C      1  0.5820080000000  0.5362330000000  0.5436580000000 1.0
C      1  0.5116910000000  0.4858360000000  0.4006130000000 1.0
C      1  0.4822830000000  0.4113500000000  0.4499940000000 1.0
C      1  0.4916560000000  0.5110740000000  0.4037250000000 1.0
C      1  0.5289640000000  0.4639480000000  0.4292000000000 1.0
C      1  0.4046150000000  0.4854870000000  0.4909340000000 1.0
C      1  0.5204180000000  0.4582090000000  0.4774420000000 1.0
C      1  0.4275290000000  0.5633650000000  0.5042400000000 1.0
C      1  0.5621370000000  0.4467080000000  0.4018440000000 1.0
C      1  0.5592940000000  0.4707520000000  0.5797610000000 1.0
C      1  0.5295840000000  0.5155870000000  0.5055650000000 1.0
C      1  0.5886880000000  0.4672500000000  0.5344810000000 1.0
C      1  0.4789030000000  0.5285300000000  0.4708960000000 1.0
C      1  0.5481120000000  0.4108580000000  0.4929030000000 1.0
C      1  0.4767620000000  0.4637280000000  0.5229040000000 1.0
C      1  0.4251650000000  0.4273350000000  0.5419850000000 1.0
C      1  0.5613250000000  0.4993710000000  0.4887150000000 1.0
C      1  0.4950050000000  0.4999710000000  0.4339910000000 1.0
C      1  0.4963780000000  0.5514590000000  0.5033000000000 1.0
C      1  0.4863220000000  0.4338060000000  0.5110960000000 1.0
C      1  0.4613630000000  0.5480750000000  0.5770200000000 1.0
C      1  0.4071720000000  0.4155680000000  0.5169170000000 1.0
C      1  0.4283870000000  0.5033380000000  0.4176600000000 1.0
C      1  0.4566780000000  0.5839570000000  0.4683270000000 1.0
C      1  0.4136480000000  0.5037130000000  0.4483720000000 1.0
C      1  0.5535300000000  0.4919200000000  0.4433820000000 1.0
C      1  0.5789480000000  0.4778450000000  0.4473310000000 1.0
C      1  0.5933500000000  0.4825680000000  0.4717290000000 1.0
C      1  0.4287440000000  0.4551670000000  0.5525010000000 1.0
C      1  0.4694020000000  0.5138360000000  0.4450750000000 1.0
C      1  0.4994310000000  0.5408920000000  0.4043840000000 1.0
C      1  0.4410940000000  0.5579250000000  0.4259560000000 1.0
C      1  0.4868120000000  0.4787700000000  0.4792300000000 1.0
C      1  0.4943170000000  0.6106530000000  0.4884600000000 1.0
C      1  0.5153930000000  0.5013560000000  0.6038590000000 1.0
C      1  0.5511140000000  0.5188880000000  0.4044130000000 1.0
C      1  0.5938900000000  0.5121390000000  0.5141830000000 1.0
C      1  0.3950610000000  0.5307710000000  0.4920800000000 1.0
C      1  0.5701010000000  0.5310920000000  0.4272150000000 1.0
C      1  0.5364400000000  0.4288160000000  0.4698820000000 1.0
C      1  0.5127890000000  0.4752370000000  0.5820220000000 1.0
C      1  0.4580140000000  0.5977680000000  0.5166890000000 1.0
C      1  0.4535000000000  0.5828660000000  0.5449560000000 1.0
C      1  0.4582170000000  0.4645480000000  0.5496200000000 1.0
C      1  0.4630860000000  0.5768340000000  0.4370860000000 1.0
C      1  0.5407320000000  0.4912360000000  0.4133690000000 1.0
C      1  0.5260780000000  0.4020270000000  0.5157440000000 1.0
C      1  0.4784330000000  0.5821830000000  0.5629240000000 1.0
C      1  0.5088980000000  0.4331040000000  0.5849740000000 1.0
C      1  0.6012280000000  0.4961780000000  0.5408010000000 1.0
C      1  0.4870520000000  0.5623320000000  0.4175090000000 1.0
C      1  0.4222300000000  0.4711010000000  0.4096840000000 1.0
C      1  0.4086440000000  0.4682140000000  0.5136460000000 1.0
C      1  0.4830860000000  0.5106470000000  0.6062970000000 1.0
C      1  0.4779430000000  0.5391710000000  0.6051800000000 1.0
C      1  0.4730760000000  0.5117140000000  0.4970320000000 1.0
C      1  0.4369150000000  0.5101750000000  0.4802330000000 1.0
C      1  0.5717070000000  0.4522510000000  0.5598570000000 1.0
C      1  0.4732890000000  0.4704560000000  0.5748660000000 1.0
C      1  0.4880200000000  0.3887370000000  0.5531290000000 1.0
C      1  0.4941320000000  0.5900680000000  0.4361720000000 1.0
C      1  0.5144280000000  0.4041890000000  0.4725760000000 1.0
C      1  0.4565650000000  0.4408580000000  0.4418720000000 1.0
C      1  0.4462710000000  0.4935990000000  0.4519520000000 1.0
C      1  0.5716240000000  0.4413790000000  0.5218670000000 1.0
C      1  0.5784240000000  0.4366610000000  0.4931400000000 1.0
C      1  0.4155540000000  0.5615900000000  0.4353360000000 1.0
C      1  0.5768790000000  0.5913790000000  0.5306890000000 1.0
C      1  0.5054870000000  0.4788400000000  0.5332990000000 1.0
C      1  0.4844490000000  0.4483060000000  0.5956520000000 1.0
C      1  0.4171220000000  0.5051980000000  0.5470700000000 1.0
C      1  0.4826450000000  0.4356150000000  0.4204910000000 1.0
C      1  0.4755570000000  0.4732610000000  0.4120820000000 1.0
C      1  0.4988490000000  0.4328530000000  0.4824140000000 1.0
C      1  0.4628070000000  0.4559800000000  0.4704270000000 1.0
C      1  0.5755790000000  0.5408520000000  0.5138660000000 1.0
C      1  0.5805520000000  0.4751560000000  0.5023920000000 1.0
C      1  0.5216620000000  0.4246470000000  0.5390150000000 1.0
C      1  0.4131370000000  0.5384850000000  0.5442310000000 1.0
C      1  0.4926730000000  0.5514350000000  0.5658480000000 1.0
C      1  0.5492130000000  0.4515640000000  0.4504930000000 1.0
C      1  0.5395720000000  0.4547590000000  0.5024530000000 1.0
C      1  0.4585350000000  0.4342250000000  0.5810840000000 1.0
C      1  0.4514490000000  0.4143760000000  0.5254450000000 1.0
C      1  0.4961320000000  0.5053800000000  0.5463840000000 1.0
C      1  0.4762550000000  0.5723700000000  0.5954480000000 1.0
C      1  0.6028810000000  0.5195820000000  0.5650320000000 1.0
C      1  0.5082840000000  0.5701270000000  0.5205850000000 1.0
C      1  0.5265980000000  0.5236110000000  0.5870520000000 1.0
C      1  0.5286820000000  0.4660740000000  0.5545420000000 1.0
C      1  0.4515750000000  0.4389830000000  0.4962320000000 1.0
C      1  0.4289020000000  0.5763370000000  0.4829530000000 1.0
C      1  0.4227800000000  0.4426330000000  0.5083190000000 1.0
C      1  0.4580740000000  0.5515370000000  0.4713870000000 1.0
C      1  0.5151380000000  0.5980540000000  0.5062350000000 1.0
C      1  0.4422320000000  0.5466770000000  0.5574810000000 1.0
C      1  0.4492730000000  0.5297030000000  0.4230420000000 1.0
C      1  0.4117090000000  0.4757350000000  0.5410260000000 1.0
C      1  0.5840110000000  0.5720890000000  0.4717440000000 1.0
C      1  0.4992740000000  0.3954140000000  0.5009590000000 1.0
C      1  0.5176770000000  0.5856600000000  0.4681740000000 1.0
C      1  0.5949090000000  0.5754420000000  0.5184160000000 1.0
C      1  0.5290670000000  0.5678680000000  0.5667180000000 1.0
C      1  0.5084490000000  0.5640000000000  0.4511610000000 1.0
C      1  0.4683300000000  0.6008900000000  0.4918190000000 1.0
C      1  0.4485910000000  0.4703840000000  0.4303360000000 1.0
C      1  0.4470820000000  0.4936190000000  0.5358210000000 1.0
C      1  0.5735700000000  0.4528210000000  0.4277890000000 1.0
C      1  0.5273470000000  0.5628990000000  0.5942910000000 1.0
C      1  0.5376160000000  0.4444060000000  0.5792100000000 1.0
C      1  0.4515500000000  0.4150650000000  0.4635430000000 1.0
C      1  0.6082480000000  0.5304280000000  0.4746840000000 1.0
C      1  0.4998970000000  0.4682510000000  0.4357330000000 1.0
C      1  0.5102370000000  0.5893170000000  0.5555670000000 1.0
C      1  0.5147810000000  0.5359580000000  0.4866120000000 1.0
C      1  0.4139290000000  0.4706750000000  0.4555450000000 1.0
C      1  0.5612080000000  0.4972390000000  0.5733310000000 1.0
C      1  0.4171030000000  0.3942470000000  0.5024850000000 1.0
C      1  0.5656530000000  0.5542370000000  0.4508520000000 1.0
C      1  0.5273820000000  0.5404240000000  0.4065400000000 1.0
C      1  0.4997610000000  0.4192760000000  0.5590130000000 1.0
C      1  0.4758390000000  0.3969180000000  0.4799770000000 1.0
C      1  0.5775970000000  0.5380180000000  0.5770290000000 1.0
C      1  0.5095110000000  0.5291030000000  0.5643520000000 1.0
C      1  0.4822290000000  0.4037490000000  0.5266580000000 1.0
C      1  0.6046930000000  0.5056720000000  0.4888350000000 1.0
C      1  0.4608730000000  0.4814880000000  0.5003910000000 1.0
C      1  0.4103150000000  0.5496670000000  0.4596940000000 1.0
C      1  0.5247470000000  0.6033570000000  0.5355210000000 1.0
C      1  0.5528520000000  0.4964670000000  0.5215970000000 1.0
C      1  0.5449480000000  0.5461630000000  0.5103860000000 1.0
C      1  0.5518020000000  0.4278700000000  0.5537320000000 1.0
C      1  0.5546820000000  0.5225140000000  0.5857590000000 1.0
C      1  0.4323390000000  0.5081330000000  0.5087740000000 1.0
C      1  0.5341920000000  0.4504320000000  0.4000240000000 1.0
C      1  0.4917220000000  0.4774250000000  0.6096240000000 1.0
C      1  0.4674610000000  0.4277060000000  0.5524460000000 1.0
C      1  0.4466480000000  0.4011310000000  0.4943230000000 1.0
C      1  0.5348570000000  0.5042720000000  0.4675440000000 1.0
C      1  0.4950070000000  0.4416950000000  0.4516120000000 1.0
C      1  0.4327730000000  0.5379320000000  0.4725880000000 1.0
C      1  0.5003440000000  0.4539320000000  0.3986080000000 1.0
C      1  0.4340670000000  0.4706980000000  0.4821840000000 1.0
C      1  0.5619360000000  0.4583590000000  0.4783380000000 1.0
C      1  0.5630500000000  0.5235800000000  0.4656880000000 1.0
END
