TITL C-2778436-5916-20 -0.00397144691074634 125000 -1009.20504924495 0 0 172 (C1) n - 1
REM
REM in /home/nfs/bkarasulu/CARBON/AIRSS/Generating-Clusters/REBO/Only-C1/SD-CG/HFTN-CG
REM
REM
REM
REM
REM
REM ./C.cell (11c1c37f851c82e70ff6c80c92926a4b)
REM
REM compiler GCC version 9.2.1 20190827 (Red Hat 9.2.1-1)
REM options -cpp -mtune=generic -march=x86-64 -g -O0 -fpre-include=/usr/include/finclude/math-vector-fortran.h
REM seed -1591556767 -1865663529 1263937100 864871641 1414389402 -1563874568 726452472 -682132918 -1460235166 1016121388 584863685 1773766742 -506547138 1734579045 1835703257 -877666879 1120613775 -851116771 803009280 885411690 1585091969 -148223165 -801427167 -1472999562 -12486553 241576506 -2061749223 -192329908 -75463397 -1077672673 -1423033083 1535139059 -4390586
REM
CELL 1.54180   50.00000   50.00000   50.00000   90.00000   90.00000   90.00000
LATT -1
SFAC C  
C      1  0.5014330000000  0.4865570000000  0.3979460000000 1.0
C      1  0.5262110000000  0.4496680000000  0.5472960000000 1.0
C      1  0.4922500000000  0.5098050000000  0.6029410000000 1.0
C      1  0.4348760000000  0.5362920000000  0.4497300000000 1.0
C      1  0.5343810000000  0.4708180000000  0.6047100000000 1.0
C      1  0.4243090000000  0.5807380000000  0.4358750000000 1.0
C      1  0.4702530000000  0.5351380000000  0.5955950000000 1.0
C      1  0.5548660000000  0.5604600000000  0.5661170000000 1.0
C      1  0.4663430000000  0.4732890000000  0.5363140000000 1.0
C      1  0.4379430000000  0.4550580000000  0.4680660000000 1.0
C      1  0.4714340000000  0.5652360000000  0.5090670000000 1.0
C      1  0.5659850000000  0.5124630000000  0.4321440000000 1.0
C      1  0.4601350000000  0.4553480000000  0.5011860000000 1.0
C      1  0.4615910000000  0.5844830000000  0.4754980000000 1.0
C      1  0.4600290000000  0.5565070000000  0.4576220000000 1.0
C      1  0.5266290000000  0.4045230000000  0.5290880000000 1.0
C      1  0.5742560000000  0.5076410000000  0.4704520000000 1.0
C      1  0.5902960000000  0.5365430000000  0.5109090000000 1.0
C      1  0.4838790000000  0.5163750000000  0.5708730000000 1.0
C      1  0.4011500000000  0.5014310000000  0.5292870000000 1.0
C      1  0.6171110000000  0.4857120000000  0.5045530000000 1.0
C      1  0.6041880000000  0.4681500000000  0.4860700000000 1.0
C      1  0.5614240000000  0.5420120000000  0.5185700000000 1.0
C      1  0.4861500000000  0.4225560000000  0.5563130000000 1.0
C      1  0.4446730000000  0.4056790000000  0.4897020000000 1.0
C      1  0.5136930000000  0.5332480000000  0.4017560000000 1.0
C      1  0.5364520000000  0.4559390000000  0.4169980000000 1.0
C      1  0.4431610000000  0.3998290000000  0.4623700000000 1.0
C      1  0.5841440000000  0.5417510000000  0.4348690000000 1.0
C      1  0.5887450000000  0.5313760000000  0.4641300000000 1.0
C      1  0.4036410000000  0.4754990000000  0.4683070000000 1.0
C      1  0.5136300000000  0.5692050000000  0.4920830000000 1.0
C      1  0.5944140000000  0.5490340000000  0.4861440000000 1.0
C      1  0.4378080000000  0.5008940000000  0.5128040000000 1.0
C      1  0.5548410000000  0.5738540000000  0.4573290000000 1.0
C      1  0.4473730000000  0.5940800000000  0.5227030000000 1.0
C      1  0.5073160000000  0.4160870000000  0.4880920000000 1.0
C      1  0.5038740000000  0.5165480000000  0.5477090000000 1.0
C      1  0.5464750000000  0.4494950000000  0.5927570000000 1.0
C      1  0.5191260000000  0.5610890000000  0.5248020000000 1.0
C      1  0.4934100000000  0.5753480000000  0.4675430000000 1.0
C      1  0.4194810000000  0.5670440000000  0.4871440000000 1.0
C      1  0.5839630000000  0.5697090000000  0.4537520000000 1.0
C      1  0.5950770000000  0.5070240000000  0.5168390000000 1.0
C      1  0.5148280000000  0.5226820000000  0.4715330000000 1.0
C      1  0.4666450000000  0.4545130000000  0.5850280000000 1.0
C      1  0.5330190000000  0.5092730000000  0.4284150000000 1.0
C      1  0.4519410000000  0.5064040000000  0.5922760000000 1.0
C      1  0.5218790000000  0.4948410000000  0.6053840000000 1.0
C      1  0.5250740000000  0.5297060000000  0.5296650000000 1.0
C      1  0.5366250000000  0.4903940000000  0.5056450000000 1.0
C      1  0.5534260000000  0.5196030000000  0.5387050000000 1.0
C      1  0.4207580000000  0.5633410000000  0.4583290000000 1.0
C      1  0.5507430000000  0.4181250000000  0.5479930000000 1.0
C      1  0.4591660000000  0.5893370000000  0.5693890000000 1.0
C      1  0.5687890000000  0.4387580000000  0.5694120000000 1.0
C      1  0.4043450000000  0.4438980000000  0.5089060000000 1.0
C      1  0.4386340000000  0.5026660000000  0.5422340000000 1.0
C      1  0.4210460000000  0.4762070000000  0.4393550000000 1.0
C      1  0.4851880000000  0.4527160000000  0.4668600000000 1.0
C      1  0.4703940000000  0.4262530000000  0.4982570000000 1.0
C      1  0.4658940000000  0.5327350000000  0.4869740000000 1.0
C      1  0.5437570000000  0.5678770000000  0.4849360000000 1.0
C      1  0.5900320000000  0.4243900000000  0.5475560000000 1.0
C      1  0.5306710000000  0.6041210000000  0.5203140000000 1.0
C      1  0.5230650000000  0.4842300000000  0.4640080000000 1.0
C      1  0.4547180000000  0.5508490000000  0.4067220000000 1.0
C      1  0.4428340000000  0.4989340000000  0.4119260000000 1.0
C      1  0.4805610000000  0.4886220000000  0.5093200000000 1.0
C      1  0.5047870000000  0.5284600000000  0.4332830000000 1.0
C      1  0.4365430000000  0.4724950000000  0.5038240000000 1.0
C      1  0.4902650000000  0.5491150000000  0.5295080000000 1.0
C      1  0.5656240000000  0.5071640000000  0.4997660000000 1.0
C      1  0.4095250000000  0.5444820000000  0.5007490000000 1.0
C      1  0.5378970000000  0.6569580000000  0.5175410000000 1.0
C      1  0.5385710000000  0.4758610000000  0.5560590000000 1.0
C      1  0.4883210000000  0.5510060000000  0.4438160000000 1.0
C      1  0.5268020000000  0.4846370000000  0.4109720000000 1.0
C      1  0.4907440000000  0.3988260000000  0.4561980000000 1.0
C      1  0.4865850000000  0.4385300000000  0.4147950000000 1.0
C      1  0.5089160000000  0.4761130000000  0.4942500000000 1.0
C      1  0.4929920000000  0.4719060000000  0.5722700000000 1.0
C      1  0.5630270000000  0.5374500000000  0.4096170000000 1.0
C      1  0.4418740000000  0.5421010000000  0.5474060000000 1.0
C      1  0.5721880000000  0.4599100000000  0.4531020000000 1.0
C      1  0.4583590000000  0.4751690000000  0.4146860000000 1.0
C      1  0.4042970000000  0.4829680000000  0.5007800000000 1.0
C      1  0.5797690000000  0.4579190000000  0.5007250000000 1.0
C      1  0.4982910000000  0.5415470000000  0.4914360000000 1.0
C      1  0.4921350000000  0.4504950000000  0.5094970000000 1.0
C      1  0.5039440000000  0.4180010000000  0.5814310000000 1.0
C      1  0.4676300000000  0.5954820000000  0.5436800000000 1.0
C      1  0.4400340000000  0.5719890000000  0.4149010000000 1.0
C      1  0.5779350000000  0.4726070000000  0.5274990000000 1.0
C      1  0.4148330000000  0.5057190000000  0.4656070000000 1.0
C      1  0.4343840000000  0.5307560000000  0.5786140000000 1.0
C      1  0.4913040000000  0.5135550000000  0.3988030000000 1.0
C      1  0.5250710000000  0.5203230000000  0.5828810000000 1.0
C      1  0.5602850000000  0.5297790000000  0.5664850000000 1.0
C      1  0.4246620000000  0.4830650000000  0.5666620000000 1.0
C      1  0.4842160000000  0.5910160000000  0.5077310000000 1.0
C      1  0.5402410000000  0.4080610000000  0.4675300000000 1.0
C      1  0.5139180000000  0.4615430000000  0.4409000000000 1.0
C      1  0.4813880000000  0.4716520000000  0.4395110000000 1.0
C      1  0.4931180000000  0.4528170000000  0.5436620000000 1.0
C      1  0.4392290000000  0.5850570000000  0.4967330000000 1.0
C      1  0.5505530000000  0.5352670000000  0.4866060000000 1.0
C      1  0.5189980000000  0.5166300000000  0.5025760000000 1.0
C      1  0.4590210000000  0.5138640000000  0.4448990000000 1.0
C      1  0.5385940000000  0.5307650000000  0.4545070000000 1.0
C      1  0.6080100000000  0.4830720000000  0.5373670000000 1.0
C      1  0.5553390000000  0.4875870000000  0.4533990000000 1.0
C      1  0.4687620000000  0.4778610000000  0.4791900000000 1.0
C      1  0.5535170000000  0.4886670000000  0.5329020000000 1.0
C      1  0.4119050000000  0.5178720000000  0.5574390000000 1.0
C      1  0.5637440000000  0.4308730000000  0.4675430000000 1.0
C      1  0.4986930000000  0.4977880000000  0.4452220000000 1.0
C      1  0.5609110000000  0.4832930000000  0.5776000000000 1.0
C      1  0.5234740000000  0.5495620000000  0.5741190000000 1.0
C      1  0.4211690000000  0.5097530000000  0.4334160000000 1.0
C      1  0.5570160000000  0.5088850000000  0.5871710000000 1.0
C      1  0.4824870000000  0.6094400000000  0.4849680000000 1.0
C      1  0.4835920000000  0.3962800000000  0.4879380000000 1.0
C      1  0.4650230000000  0.4061450000000  0.4448160000000 1.0
C      1  0.4412440000000  0.4484390000000  0.4372070000000 1.0
C      1  0.4623470000000  0.4951240000000  0.5616170000000 1.0
C      1  0.5086740000000  0.4394340000000  0.4737640000000 1.0
C      1  0.4771230000000  0.3926510000000  0.5187400000000 1.0
C      1  0.5567620000000  0.5862030000000  0.5071490000000 1.0
C      1  0.5329190000000  0.5784200000000  0.5497410000000 1.0
C      1  0.5343510000000  0.6310280000000  0.5189010000000 1.0
C      1  0.4127410000000  0.4479270000000  0.4834130000000 1.0
C      1  0.5241630000000  0.5742390000000  0.4222430000000 1.0
C      1  0.5003450000000  0.5794000000000  0.4344000000000 1.0
C      1  0.5744660000000  0.4133530000000  0.5238320000000 1.0
C      1  0.5992550000000  0.4651840000000  0.4584450000000 1.0
C      1  0.4737670000000  0.4827790000000  0.5979010000000 1.0
C      1  0.4629110000000  0.4303800000000  0.4294680000000 1.0
C      1  0.4546070000000  0.5367650000000  0.5183360000000 1.0
C      1  0.4976520000000  0.4026340000000  0.5356470000000 1.0
C      1  0.4530720000000  0.5590880000000  0.5818120000000 1.0
C      1  0.4372180000000  0.5170370000000  0.4886190000000 1.0
C      1  0.4823280000000  0.5174880000000  0.4644170000000 1.0
C      1  0.5368050000000  0.4431030000000  0.5197060000000 1.0
C      1  0.4728480000000  0.5548020000000  0.5551440000000 1.0
C      1  0.5007750000000  0.5952780000000  0.5344540000000 1.0
C      1  0.5399130000000  0.5407950000000  0.3968160000000 1.0
C      1  0.5486410000000  0.4526400000000  0.4974570000000 1.0
C      1  0.5169300000000  0.4089070000000  0.4492810000000 1.0
C      1  0.5304570000000  0.4299600000000  0.5725920000000 1.0
C      1  0.4566380000000  0.4302850000000  0.5637370000000 1.0
C      1  0.4485860000000  0.4863350000000  0.4567280000000 1.0
C      1  0.5158330000000  0.4310240000000  0.4278460000000 1.0
C      1  0.4372720000000  0.4560250000000  0.5401300000000 1.0
C      1  0.4649140000000  0.5220400000000  0.4122310000000 1.0
C      1  0.4366540000000  0.4562910000000  0.5732930000000 1.0
C      1  0.4158730000000  0.5324280000000  0.5271670000000 1.0
C      1  0.5354280000000  0.4475050000000  0.4717060000000 1.0
C      1  0.5151070000000  0.4921110000000  0.5661430000000 1.0
C      1  0.4086690000000  0.4681230000000  0.5313880000000 1.0
C      1  0.5018440000000  0.5718560000000  0.5597840000000 1.0
C      1  0.4826890000000  0.5169930000000  0.5210520000000 1.0
C      1  0.4408660000000  0.4226430000000  0.5369380000000 1.0
C      1  0.5592830000000  0.5689600000000  0.5332090000000 1.0
C      1  0.5321970000000  0.4056950000000  0.5005330000000 1.0
C      1  0.5774460000000  0.4252130000000  0.4981410000000 1.0
C      1  0.5918750000000  0.4573070000000  0.5526790000000 1.0
C      1  0.4832610000000  0.4639830000000  0.4005430000000 1.0
C      1  0.4484150000000  0.4014700000000  0.5203960000000 1.0
C      1  0.5409580000000  0.5583250000000  0.4381050000000 1.0
C      1  0.3986020000000  0.5262940000000  0.4834460000000 1.0
C      1  0.5823160000000  0.5778960000000  0.4859190000000 1.0
END
