TITL C-2778431-5191-1177 0.000597551837457353 125000 -1030.37390866649 0 0 176 (C1) n - 1
REM
REM in /home/nfs/bkarasulu/CARBON/AIRSS/Generating-Clusters/REBO/Only-C1/SD-CG/HFTN-CG
REM
REM
REM
REM
REM
REM ./C.cell (11c1c37f851c82e70ff6c80c92926a4b)
REM
REM compiler GCC version 9.2.1 20190827 (Red Hat 9.2.1-1)
REM options -cpp -mtune=generic -march=x86-64 -g -O0 -fpre-include=/usr/include/finclude/math-vector-fortran.h
REM seed -1684500804 314669450 -452636679 1368929594 -1482588968 1796001189 -1339498094 -433380293 1090127490 -1146525277 1366317128 -81001039 1867403900 -857199860 1951129437 417547945 -285674875 -1483163683 -1249531927 -553930902 -11260183 -1470114463 1277274355 1438093988 -994221822 1885471701 -2049804297 -1868079025 1476963469 1645745948 -588678656 930846221 26559179
REM
CELL 1.54180   50.00000   50.00000   50.00000   90.00000   90.00000   90.00000
LATT -1
SFAC C  
C      1  0.4073470000000  0.4616460000000  0.4648540000000 1.0
C      1  0.4711400000000  0.4636840000000  0.4156860000000 1.0
C      1  0.5517680000000  0.4811550000000  0.5136450000000 1.0
C      1  0.5455240000000  0.5772990000000  0.4835340000000 1.0
C      1  0.5254370000000  0.5303700000000  0.4245460000000 1.0
C      1  0.4969190000000  0.5756740000000  0.5368710000000 1.0
C      1  0.5953970000000  0.4509480000000  0.5025580000000 1.0
C      1  0.6024180000000  0.4970140000000  0.4793490000000 1.0
C      1  0.4762080000000  0.4389100000000  0.5382970000000 1.0
C      1  0.5091280000000  0.5960700000000  0.4522820000000 1.0
C      1  0.4856540000000  0.5755120000000  0.5874510000000 1.0
C      1  0.4420060000000  0.4805720000000  0.4686720000000 1.0
C      1  0.5633780000000  0.4191880000000  0.5301170000000 1.0
C      1  0.5501680000000  0.5543760000000  0.5159120000000 1.0
C      1  0.3964400000000  0.5004790000000  0.5005240000000 1.0
C      1  0.4972720000000  0.5589160000000  0.4605960000000 1.0
C      1  0.4629770000000  0.4977090000000  0.4535050000000 1.0
C      1  0.5441950000000  0.4879450000000  0.3918550000000 1.0
C      1  0.4509970000000  0.4607690000000  0.4929810000000 1.0
C      1  0.4555760000000  0.5365710000000  0.5749840000000 1.0
C      1  0.4044560000000  0.4450020000000  0.4940370000000 1.0
C      1  0.4604550000000  0.4116580000000  0.5629560000000 1.0
C      1  0.4683850000000  0.4941360000000  0.4097530000000 1.0
C      1  0.4668230000000  0.4065300000000  0.4526610000000 1.0
C      1  0.4507710000000  0.5721790000000  0.5387910000000 1.0
C      1  0.5430570000000  0.5908860000000  0.5305640000000 1.0
C      1  0.5892200000000  0.5253780000000  0.5480820000000 1.0
C      1  0.5257170000000  0.4461300000000  0.5639130000000 1.0
C      1  0.4379470000000  0.4484880000000  0.4576030000000 1.0
C      1  0.4935680000000  0.4507240000000  0.5159720000000 1.0
C      1  0.5594040000000  0.4852740000000  0.5570100000000 1.0
C      1  0.5136980000000  0.5347530000000  0.5656750000000 1.0
C      1  0.5938050000000  0.5429030000000  0.5124710000000 1.0
C      1  0.4696360000000  0.5632440000000  0.4787360000000 1.0
C      1  0.4376630000000  0.5607100000000  0.5746030000000 1.0
C      1  0.6044910000000  0.5060140000000  0.4466740000000 1.0
C      1  0.5176340000000  0.5019320000000  0.5722590000000 1.0
C      1  0.5316990000000  0.5462440000000  0.4815260000000 1.0
C      1  0.3964340000000  0.5502590000000  0.4859060000000 1.0
C      1  0.4775020000000  0.4471390000000  0.4449360000000 1.0
C      1  0.5605630000000  0.4553110000000  0.4614430000000 1.0
C      1  0.5819990000000  0.5094930000000  0.4303350000000 1.0
C      1  0.5509000000000  0.5314020000000  0.5799720000000 1.0
C      1  0.4593010000000  0.5865050000000  0.5687300000000 1.0
C      1  0.4880950000000  0.5216610000000  0.4901140000000 1.0
C      1  0.5482050000000  0.4311100000000  0.4907400000000 1.0
C      1  0.5637440000000  0.4542370000000  0.5035420000000 1.0
C      1  0.5603020000000  0.5286550000000  0.5301080000000 1.0
C      1  0.4553760000000  0.5407440000000  0.4158720000000 1.0
C      1  0.4433110000000  0.5336200000000  0.5203290000000 1.0
C      1  0.4634400000000  0.5914130000000  0.4898580000000 1.0
C      1  0.5730550000000  0.5709220000000  0.5006410000000 1.0
C      1  0.5461640000000  0.5576430000000  0.5702330000000 1.0
C      1  0.5658090000000  0.5120600000000  0.5659410000000 1.0
C      1  0.4150670000000  0.5676500000000  0.4983600000000 1.0
C      1  0.3998180000000  0.5272530000000  0.5609420000000 1.0
C      1  0.4929040000000  0.5377390000000  0.3996100000000 1.0
C      1  0.4884200000000  0.5966670000000  0.5541580000000 1.0
C      1  0.5310440000000  0.5201000000000  0.6005180000000 1.0
C      1  0.4259780000000  0.5688950000000  0.4514250000000 1.0
C      1  0.4939650000000  0.4687190000000  0.4616300000000 1.0
C      1  0.4075900000000  0.4958460000000  0.5508920000000 1.0
C      1  0.5715030000000  0.4900660000000  0.4121000000000 1.0
C      1  0.5296510000000  0.4872490000000  0.5997820000000 1.0
C      1  0.4741660000000  0.5575440000000  0.5288630000000 1.0
C      1  0.5846100000000  0.5583330000000  0.5401850000000 1.0
C      1  0.4867700000000  0.6013930000000  0.5051670000000 1.0
C      1  0.5604270000000  0.5726360000000  0.5496760000000 1.0
C      1  0.5194710000000  0.5589980000000  0.5282350000000 1.0
C      1  0.5421680000000  0.4453290000000  0.5275380000000 1.0
C      1  0.4213810000000  0.5358520000000  0.4484090000000 1.0
C      1  0.5176420000000  0.4318400000000  0.5164590000000 1.0
C      1  0.4033080000000  0.4559050000000  0.5212250000000 1.0
C      1  0.5338930000000  0.4708340000000  0.5457970000000 1.0
C      1  0.5594220000000  0.5217750000000  0.4484060000000 1.0
C      1  0.5067430000000  0.4768430000000  0.5263140000000 1.0
C      1  0.4388360000000  0.5112820000000  0.4973640000000 1.0
C      1  0.4309070000000  0.4797090000000  0.5698040000000 1.0
C      1  0.3967900000000  0.5235610000000  0.4790570000000 1.0
C      1  0.4424120000000  0.4518550000000  0.4263600000000 1.0
C      1  0.5893940000000  0.4685970000000  0.4542670000000 1.0
C      1  0.5890590000000  0.4403670000000  0.5307820000000 1.0
C      1  0.4437320000000  0.5204260000000  0.4671740000000 1.0
C      1  0.5004520000000  0.5263880000000  0.6024210000000 1.0
C      1  0.4479210000000  0.4287850000000  0.4799580000000 1.0
C      1  0.5712330000000  0.4950810000000  0.4658990000000 1.0
C      1  0.4236560000000  0.4233210000000  0.4972430000000 1.0
C      1  0.4846040000000  0.5446160000000  0.5811780000000 1.0
C      1  0.4952370000000  0.4312760000000  0.4131220000000 1.0
C      1  0.4819340000000  0.5120650000000  0.5582370000000 1.0
C      1  0.4578390000000  0.4872580000000  0.5383010000000 1.0
C      1  0.4822740000000  0.5025600000000  0.5909110000000 1.0
C      1  0.6077210000000  0.4647430000000  0.4812360000000 1.0
C      1  0.5290100000000  0.5272300000000  0.5361360000000 1.0
C      1  0.4683650000000  0.5438010000000  0.5003600000000 1.0
C      1  0.5456140000000  0.5432200000000  0.4025010000000 1.0
C      1  0.5511980000000  0.4360690000000  0.4348520000000 1.0
C      1  0.5153680000000  0.4887600000000  0.3861760000000 1.0
C      1  0.4197610000000  0.4758910000000  0.4360140000000 1.0
C      1  0.5401850000000  0.3960940000000  0.4744440000000 1.0
C      1  0.5341980000000  0.5075910000000  0.5086380000000 1.0
C      1  0.4604610000000  0.4125540000000  0.5306770000000 1.0
C      1  0.4241290000000  0.5583320000000  0.5255410000000 1.0
C      1  0.5721860000000  0.5028700000000  0.5199810000000 1.0
C      1  0.4104000000000  0.5538970000000  0.5553370000000 1.0
C      1  0.4499780000000  0.5046220000000  0.5834320000000 1.0
C      1  0.5382700000000  0.5610620000000  0.4286060000000 1.0
C      1  0.5144740000000  0.4038420000000  0.4589540000000 1.0
C      1  0.5432570000000  0.4025820000000  0.5078780000000 1.0
C      1  0.4465080000000  0.5115990000000  0.4139330000000 1.0
C      1  0.4163650000000  0.5076330000000  0.5820040000000 1.0
C      1  0.5538170000000  0.5242350000000  0.4879210000000 1.0
C      1  0.4685300000000  0.4047250000000  0.4822090000000 1.0
C      1  0.5173320000000  0.5667880000000  0.5770190000000 1.0
C      1  0.5204230000000  0.4977730000000  0.4247560000000 1.0
C      1  0.5168440000000  0.4539770000000  0.4447040000000 1.0
C      1  0.5644970000000  0.4487740000000  0.5725530000000 1.0
C      1  0.5482590000000  0.4219290000000  0.5591070000000 1.0
C      1  0.5176910000000  0.4503010000000  0.5952180000000 1.0
C      1  0.5754240000000  0.4585690000000  0.4248510000000 1.0
C      1  0.4117520000000  0.4939190000000  0.4716230000000 1.0
C      1  0.5116860000000  0.4008750000000  0.5207140000000 1.0
C      1  0.4976010000000  0.4841900000000  0.5564550000000 1.0
C      1  0.5499240000000  0.4587900000000  0.4042400000000 1.0
C      1  0.5795950000000  0.5349130000000  0.4852350000000 1.0
C      1  0.4819920000000  0.5800610000000  0.4385140000000 1.0
C      1  0.4956370000000  0.4981540000000  0.4590620000000 1.0
C      1  0.4790140000000  0.4525500000000  0.5866880000000 1.0
C      1  0.5430520000000  0.4790870000000  0.4720470000000 1.0
C      1  0.4386050000000  0.4815060000000  0.5139710000000 1.0
C      1  0.6013130000000  0.5098590000000  0.5075850000000 1.0
C      1  0.4533870000000  0.4350060000000  0.5758820000000 1.0
C      1  0.4193530000000  0.4403530000000  0.5403680000000 1.0
C      1  0.4807420000000  0.4527750000000  0.4886860000000 1.0
C      1  0.5789060000000  0.5616450000000  0.4684440000000 1.0
C      1  0.4592230000000  0.5480960000000  0.4548090000000 1.0
C      1  0.4332370000000  0.5796930000000  0.4793080000000 1.0
C      1  0.4952230000000  0.5077870000000  0.4041960000000 1.0
C      1  0.4956000000000  0.5615220000000  0.4050190000000 1.0
C      1  0.5101550000000  0.5409720000000  0.5036610000000 1.0
C      1  0.5188310000000  0.4413980000000  0.4864920000000 1.0
C      1  0.5136380000000  0.5783820000000  0.4252390000000 1.0
C      1  0.5392750000000  0.5995440000000  0.4620560000000 1.0
C      1  0.4312440000000  0.4192570000000  0.5242800000000 1.0
C      1  0.4836890000000  0.4973850000000  0.5213720000000 1.0
C      1  0.5603740000000  0.4209520000000  0.4628150000000 1.0
C      1  0.4236740000000  0.5852960000000  0.5550650000000 1.0
C      1  0.5980970000000  0.4937290000000  0.5380730000000 1.0
C      1  0.4521870000000  0.5192690000000  0.5458950000000 1.0
C      1  0.4526090000000  0.5699440000000  0.4304790000000 1.0
C      1  0.5346090000000  0.5036520000000  0.4526660000000 1.0
C      1  0.4991060000000  0.4611660000000  0.3982810000000 1.0
C      1  0.4956980000000  0.4296330000000  0.4679010000000 1.0
C      1  0.4740390000000  0.5248960000000  0.4394740000000 1.0
C      1  0.5175900000000  0.5088660000000  0.4814070000000 1.0
C      1  0.4903770000000  0.5281480000000  0.5294210000000 1.0
C      1  0.4327680000000  0.4504910000000  0.5639170000000 1.0
C      1  0.4683170000000  0.4978460000000  0.4931050000000 1.0
C      1  0.5523600000000  0.5504700000000  0.4546750000000 1.0
C      1  0.5114310000000  0.5802490000000  0.4824680000000 1.0
C      1  0.5042180000000  0.5294350000000  0.4478430000000 1.0
C      1  0.4641050000000  0.4253190000000  0.4244430000000 1.0
C      1  0.5085060000000  0.5994400000000  0.5784410000000 1.0
C      1  0.4969210000000  0.4765310000000  0.5985340000000 1.0
C      1  0.4951310000000  0.4334790000000  0.5635950000000 1.0
C      1  0.5194480000000  0.4237230000000  0.4345650000000 1.0
C      1  0.5856520000000  0.4648710000000  0.5512850000000 1.0
C      1  0.4079220000000  0.4858230000000  0.5234440000000 1.0
C      1  0.4247560000000  0.5054450000000  0.4332320000000 1.0
C      1  0.5170120000000  0.4098830000000  0.5524950000000 1.0
C      1  0.5196770000000  0.5956040000000  0.5116990000000 1.0
C      1  0.4712300000000  0.4646520000000  0.5561500000000 1.0
C      1  0.4797850000000  0.4006490000000  0.5088840000000 1.0
C      1  0.5230740000000  0.4699180000000  0.4885940000000 1.0
C      1  0.5486180000000  0.4613810000000  0.5928450000000 1.0
C      1  0.5229680000000  0.4682810000000  0.4193430000000 1.0
END
