TITL C-2778428-5639-960 0.00126529383983102 125000 -564.383381437824 0 0 97 (C1) n - 1
REM
REM in /home/nfs/bkarasulu/CARBON/AIRSS/Generating-Clusters/REBO/Only-C1/SD-CG/HFTN-CG
REM
REM
REM
REM
REM
REM ./C.cell (11c1c37f851c82e70ff6c80c92926a4b)
REM
REM compiler GCC version 9.2.1 20190827 (Red Hat 9.2.1-1)
REM options -cpp -mtune=generic -march=x86-64 -g -O0 -fpre-include=/usr/include/finclude/math-vector-fortran.h
REM seed -212349248 -783248197 -1665030089 -1043055631 -1349560993 1550253612 1398703053 1653803553 -334525614 -444335401 1169698813 -2127770105 1213595639 971500561 1614102936 -1953976691 -2068379038 1091440063 -665894671 -1271731539 -734259140 364110744 -544518927 1055146718 341468012 823432304 -139913587 -706515093 1550271784 -124642824 1571190538 567382645 -1126363232
REM
CELL 1.54180   50.00000   50.00000   50.00000   90.00000   90.00000   90.00000
LATT -1
SFAC C  
C      1  0.4261280000000  0.5067960000000  0.5602560000000 1.0
C      1  0.5288840000000  0.5179790000000  0.4951160000000 1.0
C      1  0.4474900000000  0.4706110000000  0.4467630000000 1.0
C      1  0.5180390000000  0.5035490000000  0.5828220000000 1.0
C      1  0.5494410000000  0.5505440000000  0.4576290000000 1.0
C      1  0.5294630000000  0.4744700000000  0.4265940000000 1.0
C      1  0.4679200000000  0.4765940000000  0.5774160000000 1.0
C      1  0.4213480000000  0.4748320000000  0.5490850000000 1.0
C      1  0.5581910000000  0.4340220000000  0.4964840000000 1.0
C      1  0.5475680000000  0.4722870000000  0.5002020000000 1.0
C      1  0.5065690000000  0.5232240000000  0.5621490000000 1.0
C      1  0.4975780000000  0.4834480000000  0.5681750000000 1.0
C      1  0.4091370000000  0.4703670000000  0.4784300000000 1.0
C      1  0.5033140000000  0.5445840000000  0.4338400000000 1.0
C      1  0.4560460000000  0.5757370000000  0.5006640000000 1.0
C      1  0.5529720000000  0.5028480000000  0.4920180000000 1.0
C      1  0.5157950000000  0.4589250000000  0.5630410000000 1.0
C      1  0.4687640000000  0.4588510000000  0.4311000000000 1.0
C      1  0.5378710000000  0.5633100000000  0.5321990000000 1.0
C      1  0.5192100000000  0.5178470000000  0.5338190000000 1.0
C      1  0.4884160000000  0.4986780000000  0.4291740000000 1.0
C      1  0.4780080000000  0.4984840000000  0.4885740000000 1.0
C      1  0.5233140000000  0.5787640000000  0.5063020000000 1.0
C      1  0.4820120000000  0.5382700000000  0.4888720000000 1.0
C      1  0.5539550000000  0.5345700000000  0.5666990000000 1.0
C      1  0.5014330000000  0.5841340000000  0.4580620000000 1.0
C      1  0.5288390000000  0.4501630000000  0.5335770000000 1.0
C      1  0.4821210000000  0.5565360000000  0.5567640000000 1.0
C      1  0.5319070000000  0.5455160000000  0.5048060000000 1.0
C      1  0.5182680000000  0.4591750000000  0.4930830000000 1.0
C      1  0.5309650000000  0.4881710000000  0.5218130000000 1.0
C      1  0.5289830000000  0.5623870000000  0.4771390000000 1.0
C      1  0.4927110000000  0.5223200000000  0.5171260000000 1.0
C      1  0.4227700000000  0.4472880000000  0.5283400000000 1.0
C      1  0.4440900000000  0.4732180000000  0.5724390000000 1.0
C      1  0.5752320000000  0.4551350000000  0.5105800000000 1.0
C      1  0.5738770000000  0.4738920000000  0.5375260000000 1.0
C      1  0.5072940000000  0.5626730000000  0.5674830000000 1.0
C      1  0.5040800000000  0.4730960000000  0.5276660000000 1.0
C      1  0.5469040000000  0.5009280000000  0.5711450000000 1.0
C      1  0.4999240000000  0.5514100000000  0.4670620000000 1.0
C      1  0.5363750000000  0.4275640000000  0.5132240000000 1.0
C      1  0.4907690000000  0.4412110000000  0.4259670000000 1.0
C      1  0.4730680000000  0.4295370000000  0.5511500000000 1.0
C      1  0.4783630000000  0.4630720000000  0.4700040000000 1.0
C      1  0.5849190000000  0.4762430000000  0.4866230000000 1.0
C      1  0.5469230000000  0.4707890000000  0.5546990000000 1.0
C      1  0.5075950000000  0.5160300000000  0.4201920000000 1.0
C      1  0.5897900000000  0.5218760000000  0.5178200000000 1.0
C      1  0.4186370000000  0.5289650000000  0.5435250000000 1.0
C      1  0.4730490000000  0.4403500000000  0.4909530000000 1.0
C      1  0.5495230000000  0.5071770000000  0.5388190000000 1.0
C      1  0.4296260000000  0.5294320000000  0.5174540000000 1.0
C      1  0.4648130000000  0.5692100000000  0.4601570000000 1.0
C      1  0.5149580000000  0.4122000000000  0.4976720000000 1.0
C      1  0.4849940000000  0.4984150000000  0.5401610000000 1.0
C      1  0.4739750000000  0.5243610000000  0.5595440000000 1.0
C      1  0.4208080000000  0.4959950000000  0.4790790000000 1.0
C      1  0.4202260000000  0.4510950000000  0.4991490000000 1.0
C      1  0.5394370000000  0.5073920000000  0.4233010000000 1.0
C      1  0.4491930000000  0.5128430000000  0.5741590000000 1.0
C      1  0.4481080000000  0.5335980000000  0.4523120000000 1.0
C      1  0.5688420000000  0.4684000000000  0.4639010000000 1.0
C      1  0.5319300000000  0.4317290000000  0.4543060000000 1.0
C      1  0.4802860000000  0.4758460000000  0.5077770000000 1.0
C      1  0.5548020000000  0.4429460000000  0.4685830000000 1.0
C      1  0.5363130000000  0.5382380000000  0.4352750000000 1.0
C      1  0.4691690000000  0.5765620000000  0.5324540000000 1.0
C      1  0.4399390000000  0.5573640000000  0.4755660000000 1.0
C      1  0.5182630000000  0.4466790000000  0.4335040000000 1.0
C      1  0.5543320000000  0.4869440000000  0.4462500000000 1.0
C      1  0.4864590000000  0.5536120000000  0.5172190000000 1.0
C      1  0.4797370000000  0.5904620000000  0.4811070000000 1.0
C      1  0.4529830000000  0.4393100000000  0.5346230000000 1.0
C      1  0.4437870000000  0.4999000000000  0.4467840000000 1.0
C      1  0.5048910000000  0.4703990000000  0.4709590000000 1.0
C      1  0.5215260000000  0.4906610000000  0.4546470000000 1.0
C      1  0.4993710000000  0.4377350000000  0.5026400000000 1.0
C      1  0.4827690000000  0.4997870000000  0.4552500000000 1.0
C      1  0.4512600000000  0.5110400000000  0.4768030000000 1.0
C      1  0.5758080000000  0.5202990000000  0.4903200000000 1.0
C      1  0.4725390000000  0.5503770000000  0.4382300000000 1.0
C      1  0.5733710000000  0.5281220000000  0.5404100000000 1.0
C      1  0.5729790000000  0.5402570000000  0.4700340000000 1.0
C      1  0.5340580000000  0.5552490000000  0.5589360000000 1.0
C      1  0.4568320000000  0.4651750000000  0.5177720000000 1.0
C      1  0.4935030000000  0.5853720000000  0.5098440000000 1.0
C      1  0.4852170000000  0.4166240000000  0.4152470000000 1.0
C      1  0.5897970000000  0.4916240000000  0.5144000000000 1.0
C      1  0.4363350000000  0.4840150000000  0.5225580000000 1.0
C      1  0.4456740000000  0.4544440000000  0.4767840000000 1.0
C      1  0.4258650000000  0.5040630000000  0.5067480000000 1.0
C      1  0.4507950000000  0.5432100000000  0.5025440000000 1.0
C      1  0.5072560000000  0.5096800000000  0.4770860000000 1.0
C      1  0.5146210000000  0.5977240000000  0.4403380000000 1.0
C      1  0.4964760000000  0.4338250000000  0.5640700000000 1.0
C      1  0.5202370000000  0.4093370000000  0.4690320000000 1.0
END
