TITL C-2778424-3986-1118 5.07405118691368e-05 125000 -892.629175129328 0 0 153 (C1) n - 1
REM
REM in /home/nfs/bkarasulu/CARBON/AIRSS/Generating-Clusters/REBO/Only-C1/SD-CG/HFTN-CG
REM
REM
REM
REM
REM
REM ./C.cell (11c1c37f851c82e70ff6c80c92926a4b)
REM
REM compiler GCC version 9.2.1 20190827 (Red Hat 9.2.1-1)
REM options -cpp -mtune=generic -march=x86-64 -g -O0 -fpre-include=/usr/include/finclude/math-vector-fortran.h
REM seed -1264825785 119231372 723525608 1697908919 -1473978460 804449207 1372489101 55345358 1313021143 -1096823197 -1849753769 1992544813 -1082029776 218456001 -1791473588 -309016612 1246757873 -932599954 -2074145909 -1869442591 -908059113 2868787 125600740 1209103406 234253422 1535003774 1592108279 -646566986 -213101620 -1353416672 -2146094832 1880849014 -2002968038
REM
CELL 1.54180   50.00000   50.00000   50.00000   90.00000   90.00000   90.00000
LATT -1
SFAC C  
C      1  0.5541260000000  0.5739550000000  0.4406260000000 1.0
C      1  0.4496220000000  0.4459580000000  0.5739440000000 1.0
C      1  0.4226800000000  0.4966560000000  0.4904720000000 1.0
C      1  0.4772720000000  0.4660700000000  0.5534130000000 1.0
C      1  0.5920050000000  0.5546930000000  0.4756910000000 1.0
C      1  0.5310630000000  0.5889910000000  0.4475890000000 1.0
C      1  0.5128690000000  0.5815850000000  0.5358190000000 1.0
C      1  0.4851330000000  0.5335230000000  0.4597810000000 1.0
C      1  0.5309960000000  0.4926450000000  0.4055760000000 1.0
C      1  0.5281860000000  0.4603210000000  0.4046270000000 1.0
C      1  0.4719520000000  0.4929280000000  0.5087820000000 1.0
C      1  0.4422300000000  0.4405800000000  0.4549300000000 1.0
C      1  0.5423080000000  0.5561260000000  0.5582770000000 1.0
C      1  0.5222430000000  0.6118650000000  0.4632400000000 1.0
C      1  0.4768460000000  0.5769450000000  0.4522630000000 1.0
C      1  0.4590340000000  0.5935140000000  0.5004820000000 1.0
C      1  0.5434490000000  0.5015800000000  0.4562390000000 1.0
C      1  0.4867570000000  0.5859120000000  0.5554840000000 1.0
C      1  0.5044670000000  0.4824370000000  0.5465330000000 1.0
C      1  0.5830950000000  0.5004700000000  0.4365970000000 1.0
C      1  0.5377480000000  0.4834660000000  0.5453800000000 1.0
C      1  0.5296030000000  0.4187070000000  0.5774150000000 1.0
C      1  0.4628590000000  0.4474440000000  0.5319730000000 1.0
C      1  0.4512890000000  0.4953240000000  0.4625960000000 1.0
C      1  0.4631720000000  0.4552390000000  0.4324420000000 1.0
C      1  0.5134750000000  0.5080940000000  0.5755170000000 1.0
C      1  0.4016500000000  0.5107250000000  0.5447520000000 1.0
C      1  0.4680790000000  0.5388990000000  0.5512380000000 1.0
C      1  0.5516270000000  0.5437790000000  0.4250790000000 1.0
C      1  0.4733510000000  0.4618030000000  0.5929790000000 1.0
C      1  0.4853780000000  0.4025720000000  0.5136630000000 1.0
C      1  0.4145830000000  0.4374240000000  0.5246470000000 1.0
C      1  0.5067890000000  0.5272480000000  0.5109800000000 1.0
C      1  0.5821130000000  0.5330040000000  0.4336130000000 1.0
C      1  0.5411500000000  0.4519770000000  0.5368460000000 1.0
C      1  0.5508960000000  0.4677830000000  0.5721730000000 1.0
C      1  0.6012990000000  0.4924290000000  0.4925390000000 1.0
C      1  0.4301270000000  0.4717130000000  0.5076740000000 1.0
C      1  0.5350000000000  0.5318390000000  0.4704860000000 1.0
C      1  0.5340460000000  0.4163430000000  0.4890980000000 1.0
C      1  0.4982180000000  0.5155090000000  0.5399850000000 1.0
C      1  0.4253930000000  0.4852410000000  0.4464910000000 1.0
C      1  0.5055530000000  0.4059590000000  0.4876450000000 1.0
C      1  0.4761240000000  0.5919920000000  0.5268770000000 1.0
C      1  0.4705960000000  0.4212750000000  0.4518150000000 1.0
C      1  0.5697660000000  0.4740070000000  0.4765960000000 1.0
C      1  0.4945340000000  0.4882770000000  0.4375160000000 1.0
C      1  0.4907030000000  0.4949140000000  0.4683190000000 1.0
C      1  0.4452040000000  0.5012980000000  0.4237180000000 1.0
C      1  0.5013770000000  0.5220870000000  0.6029210000000 1.0
C      1  0.4287670000000  0.4755400000000  0.5386560000000 1.0
C      1  0.4881070000000  0.4324170000000  0.5265240000000 1.0
C      1  0.4223660000000  0.4232470000000  0.5011140000000 1.0
C      1  0.4623910000000  0.4932170000000  0.5876070000000 1.0
C      1  0.5860240000000  0.4696780000000  0.4466160000000 1.0
C      1  0.5027840000000  0.4797920000000  0.5130860000000 1.0
C      1  0.4715860000000  0.4483060000000  0.4827970000000 1.0
C      1  0.5124560000000  0.4758170000000  0.5796790000000 1.0
C      1  0.4482790000000  0.5331220000000  0.4120460000000 1.0
C      1  0.5142690000000  0.5602370000000  0.5687390000000 1.0
C      1  0.5166650000000  0.4027420000000  0.5635020000000 1.0
C      1  0.5041140000000  0.6062830000000  0.4850740000000 1.0
C      1  0.5134390000000  0.5602060000000  0.4893610000000 1.0
C      1  0.4730000000000  0.4060380000000  0.4819860000000 1.0
C      1  0.5108870000000  0.4625440000000  0.4405130000000 1.0
C      1  0.5116620000000  0.5101780000000  0.4259110000000 1.0
C      1  0.4070130000000  0.4600800000000  0.4874690000000 1.0
C      1  0.4523500000000  0.5112230000000  0.4907420000000 1.0
C      1  0.4755940000000  0.5411910000000  0.4077020000000 1.0
C      1  0.4354820000000  0.5410710000000  0.4411360000000 1.0
C      1  0.5808710000000  0.4808750000000  0.5173530000000 1.0
C      1  0.5353250000000  0.5425910000000  0.5089560000000 1.0
C      1  0.4621100000000  0.5207140000000  0.4470360000000 1.0
C      1  0.5124010000000  0.5307470000000  0.4476920000000 1.0
C      1  0.5868070000000  0.4419610000000  0.5240240000000 1.0
C      1  0.4886310000000  0.5677780000000  0.5074510000000 1.0
C      1  0.4988870000000  0.4402150000000  0.5913220000000 1.0
C      1  0.4805180000000  0.5119500000000  0.5680200000000 1.0
C      1  0.5019100000000  0.4306640000000  0.4423020000000 1.0
C      1  0.5451170000000  0.4418990000000  0.4190350000000 1.0
C      1  0.4705330000000  0.5424400000000  0.5173960000000 1.0
C      1  0.5455950000000  0.5634490000000  0.4782330000000 1.0
C      1  0.4413420000000  0.5331210000000  0.5223070000000 1.0
C      1  0.5724360000000  0.5719190000000  0.4638920000000 1.0
C      1  0.4771200000000  0.5972200000000  0.4779380000000 1.0
C      1  0.4693030000000  0.4691650000000  0.4616410000000 1.0
C      1  0.4913330000000  0.4894900000000  0.6026750000000 1.0
C      1  0.5375870000000  0.4324900000000  0.5112710000000 1.0
C      1  0.5659180000000  0.5504190000000  0.5152210000000 1.0
C      1  0.5472160000000  0.4228420000000  0.4653930000000 1.0
C      1  0.5588270000000  0.4544170000000  0.4438070000000 1.0
C      1  0.4461390000000  0.5144480000000  0.5479470000000 1.0
C      1  0.4585400000000  0.4878180000000  0.5381810000000 1.0
C      1  0.4178230000000  0.4598510000000  0.4600590000000 1.0
C      1  0.4755450000000  0.5421490000000  0.5935100000000 1.0
C      1  0.6025950000000  0.4926670000000  0.4640760000000 1.0
C      1  0.4120270000000  0.5295580000000  0.4600690000000 1.0
C      1  0.4467350000000  0.4249700000000  0.4832900000000 1.0
C      1  0.5278610000000  0.4602240000000  0.4845220000000 1.0
C      1  0.4541230000000  0.5585340000000  0.4623600000000 1.0
C      1  0.4083360000000  0.5294900000000  0.5242080000000 1.0
C      1  0.5906510000000  0.5161520000000  0.5114660000000 1.0
C      1  0.5871970000000  0.5292830000000  0.4637790000000 1.0
C      1  0.4508510000000  0.5659180000000  0.5430650000000 1.0
C      1  0.4800680000000  0.4340430000000  0.5654620000000 1.0
C      1  0.4696090000000  0.4825740000000  0.4176940000000 1.0
C      1  0.5111090000000  0.4499070000000  0.5219990000000 1.0
C      1  0.5479790000000  0.5098760000000  0.5372780000000 1.0
C      1  0.5515980000000  0.5095510000000  0.4259470000000 1.0
C      1  0.4757260000000  0.5475910000000  0.4853410000000 1.0
C      1  0.4358620000000  0.5393700000000  0.4809270000000 1.0
C      1  0.4976160000000  0.4857800000000  0.3978620000000 1.0
C      1  0.5908600000000  0.5552880000000  0.5038470000000 1.0
C      1  0.5782470000000  0.4887100000000  0.5523730000000 1.0
C      1  0.4496900000000  0.5324020000000  0.5861070000000 1.0
C      1  0.5352640000000  0.4708280000000  0.4563110000000 1.0
C      1  0.5581700000000  0.5120660000000  0.5072160000000 1.0
C      1  0.5081170000000  0.5690200000000  0.4579350000000 1.0
C      1  0.5165330000000  0.5963010000000  0.5092660000000 1.0
C      1  0.5421790000000  0.5815300000000  0.5069760000000 1.0
C      1  0.4411340000000  0.5747740000000  0.5183890000000 1.0
C      1  0.5090080000000  0.5477830000000  0.5378980000000 1.0
C      1  0.5512260000000  0.5295960000000  0.5600210000000 1.0
C      1  0.4042410000000  0.5063470000000  0.4730210000000 1.0
C      1  0.4927550000000  0.5194520000000  0.4010540000000 1.0
C      1  0.5105570000000  0.5116110000000  0.4831850000000 1.0
C      1  0.5736200000000  0.4405320000000  0.4709700000000 1.0
C      1  0.4906780000000  0.4074520000000  0.5470950000000 1.0
C      1  0.3903980000000  0.4853780000000  0.5350680000000 1.0
C      1  0.4217960000000  0.5537720000000  0.5049560000000 1.0
C      1  0.4354920000000  0.4367680000000  0.5442530000000 1.0
C      1  0.5527320000000  0.4723350000000  0.5043020000000 1.0
C      1  0.3937680000000  0.4607310000000  0.5190750000000 1.0
C      1  0.5508210000000  0.5693850000000  0.5342180000000 1.0
C      1  0.5680650000000  0.5080400000000  0.4767800000000 1.0
C      1  0.5324850000000  0.4246570000000  0.4409760000000 1.0
C      1  0.5713380000000  0.4565040000000  0.5470160000000 1.0
C      1  0.4591650000000  0.4629940000000  0.5068400000000 1.0
C      1  0.4965880000000  0.4540430000000  0.4103120000000 1.0
C      1  0.4228390000000  0.5177900000000  0.5704330000000 1.0
C      1  0.4277510000000  0.4683910000000  0.5670580000000 1.0
C      1  0.5289020000000  0.4948210000000  0.5040280000000 1.0
C      1  0.5353660000000  0.5194500000000  0.5958130000000 1.0
C      1  0.5962960000000  0.5101090000000  0.5404120000000 1.0
C      1  0.5566010000000  0.5011220000000  0.5759140000000 1.0
C      1  0.5015130000000  0.4392090000000  0.4847840000000 1.0
C      1  0.4863810000000  0.5651200000000  0.5794630000000 1.0
C      1  0.5864180000000  0.4366760000000  0.4999020000000 1.0
C      1  0.4883170000000  0.5615230000000  0.4241970000000 1.0
C      1  0.4776340000000  0.4287550000000  0.4190320000000 1.0
C      1  0.5299400000000  0.4495290000000  0.5859570000000 1.0
C      1  0.5207430000000  0.5554590000000  0.4289390000000 1.0
C      1  0.4333300000000  0.4915700000000  0.5830040000000 1.0
END
