TITL C-2778428-5639-503 -0.00742005100959462 125000 -355.209710746555 0 0 60 (C1) n - 1
REM
REM in /home/nfs/bkarasulu/CARBON/AIRSS/Generating-Clusters/REBO/Only-C1/SD-CG/HFTN-CG
REM
REM
REM
REM
REM
REM ./C.cell (11c1c37f851c82e70ff6c80c92926a4b)
REM
REM compiler GCC version 9.2.1 20190827 (Red Hat 9.2.1-1)
REM options -cpp -mtune=generic -march=x86-64 -g -O0 -fpre-include=/usr/include/finclude/math-vector-fortran.h
REM seed -1215552240 -882615479 1234151248 -540652437 -1017500990 -1183721379 1220421769 -126617055 -1134544258 1211232601 -362179938 -952816401 -572196634 -1748454521 44051085 -1214473847 1982125527 1092750240 124205084 -763482958 280078347 -1153986370 1182249997 1503955792 1321349551 -643788992 150954216 781880901 -549005951 297910690 583678703 -1838172289 -486118043
REM
CELL 1.54180   50.00000   50.00000   50.00000   90.00000   90.00000   90.00000
LATT -1
SFAC C  
C      1  0.5052230000000  0.5842840000000  0.4582310000000 1.0
C      1  0.5105680000000  0.5473820000000  0.5490980000000 1.0
C      1  0.5319650000000  0.5064440000000  0.4381390000000 1.0
C      1  0.5090910000000  0.5805180000000  0.4912880000000 1.0
C      1  0.5028970000000  0.4579030000000  0.4483170000000 1.0
C      1  0.4828020000000  0.5673440000000  0.4400380000000 1.0
C      1  0.4774390000000  0.4536620000000  0.4597340000000 1.0
C      1  0.4611190000000  0.5133750000000  0.5381840000000 1.0
C      1  0.4392870000000  0.5120650000000  0.5166680000000 1.0
C      1  0.4791540000000  0.4999030000000  0.5126790000000 1.0
C      1  0.5537050000000  0.4957630000000  0.4530470000000 1.0
C      1  0.4896720000000  0.5047400000000  0.4642340000000 1.0
C      1  0.4941420000000  0.5115810000000  0.4908260000000 1.0
C      1  0.4783280000000  0.4318330000000  0.5416250000000 1.0
C      1  0.4781760000000  0.4292720000000  0.5171230000000 1.0
C      1  0.5420320000000  0.5278640000000  0.5147650000000 1.0
C      1  0.4348700000000  0.4776700000000  0.4778510000000 1.0
C      1  0.4414370000000  0.5279150000000  0.4932230000000 1.0
C      1  0.5056180000000  0.4860610000000  0.4406970000000 1.0
C      1  0.4317470000000  0.5109510000000  0.4723030000000 1.0
C      1  0.4648450000000  0.5491370000000  0.4515950000000 1.0
C      1  0.4913440000000  0.5022140000000  0.5744060000000 1.0
C      1  0.4840570000000  0.4685640000000  0.5126300000000 1.0
C      1  0.4649980000000  0.5431470000000  0.5441360000000 1.0
C      1  0.5769480000000  0.4973660000000  0.5422660000000 1.0
C      1  0.5339280000000  0.5281050000000  0.5419670000000 1.0
C      1  0.5390010000000  0.4764570000000  0.5188170000000 1.0
C      1  0.5120370000000  0.4604270000000  0.5226930000000 1.0
C      1  0.5374250000000  0.4388330000000  0.4847010000000 1.0
C      1  0.4608090000000  0.5499480000000  0.4845100000000 1.0
C      1  0.4657340000000  0.4978500000000  0.5634570000000 1.0
C      1  0.5436570000000  0.4953150000000  0.4916830000000 1.0
C      1  0.4850960000000  0.5613530000000  0.5059220000000 1.0
C      1  0.4814400000000  0.4522360000000  0.5658770000000 1.0
C      1  0.5086370000000  0.4757690000000  0.5721930000000 1.0
C      1  0.4494410000000  0.5020730000000  0.4497660000000 1.0
C      1  0.5083090000000  0.5264480000000  0.5718250000000 1.0
C      1  0.5219970000000  0.4318530000000  0.5070760000000 1.0
C      1  0.5673490000000  0.5126810000000  0.4749830000000 1.0
C      1  0.4875860000000  0.5546710000000  0.5343200000000 1.0
C      1  0.5138640000000  0.5605860000000  0.4354130000000 1.0
C      1  0.4776850000000  0.5788130000000  0.4778000000000 1.0
C      1  0.5207110000000  0.4239320000000  0.5357540000000 1.0
C      1  0.5207490000000  0.5178950000000  0.4964180000000 1.0
C      1  0.5197370000000  0.5341320000000  0.4303260000000 1.0
C      1  0.5871950000000  0.5140250000000  0.5226940000000 1.0
C      1  0.5503010000000  0.4684710000000  0.4613390000000 1.0
C      1  0.5277370000000  0.4473720000000  0.4567810000000 1.0
C      1  0.4517840000000  0.4625470000000  0.5032920000000 1.0
C      1  0.4937450000000  0.5153480000000  0.4317580000000 1.0
C      1  0.4301020000000  0.4858110000000  0.5105060000000 1.0
C      1  0.4648120000000  0.5234620000000  0.4394540000000 1.0
C      1  0.5294100000000  0.5009570000000  0.5625600000000 1.0
C      1  0.5562780000000  0.4636600000000  0.4933490000000 1.0
C      1  0.4564850000000  0.4719650000000  0.4533410000000 1.0
C      1  0.4758120000000  0.4454530000000  0.4885450000000 1.0
C      1  0.4582190000000  0.4717370000000  0.5670110000000 1.0
C      1  0.5510630000000  0.4887910000000  0.5435560000000 1.0
C      1  0.5685700000000  0.5241820000000  0.5035800000000 1.0
C      1  0.5118340000000  0.4498810000000  0.5536260000000 1.0
END
