TITL C-2778435-5768-1012 0.176400582151436 125000 -374.092811249826 0 0 66 (C1) n - 1
REM
REM in /home/nfs/bkarasulu/CARBON/AIRSS/Generating-Clusters/REBO/Only-C1/SD-CG/HFTN-CG
REM
REM
REM
REM
REM
REM ./C.cell (11c1c37f851c82e70ff6c80c92926a4b)
REM
REM compiler GCC version 9.2.1 20190827 (Red Hat 9.2.1-1)
REM options -cpp -mtune=generic -march=x86-64 -g -O0 -fpre-include=/usr/include/finclude/math-vector-fortran.h
REM seed -1798291042 437387345 530135100 -185186746 -1292637726 1761216185 1340161633 -1076460037 1360508242 -1759798986 -1550956206 -1992442302 539785488 -2107906467 1417656210 677052144 924899779 1753051121 -253747503 611335368 1267695435 353101418 1306088613 -1829085622 854506490 1336494844 -1946254007 428181809 -120759480 616689250 -2119187806 1113440797 -1060013533
REM
CELL 1.54180   50.00000   50.00000   50.00000   90.00000   90.00000   90.00000
LATT -1
SFAC C  
C      1  0.5487200000000  0.4582660000000  0.5366470000000 1.0
C      1  0.4461660000000  0.4867170000000  0.4790610000000 1.0
C      1  0.4660430000000  0.4767140000000  0.4581690000000 1.0
C      1  0.4641170000000  0.5040430000000  0.5512430000000 1.0
C      1  0.4854660000000  0.4981810000000  0.4139660000000 1.0
C      1  0.4943290000000  0.4717370000000  0.4731870000000 1.0
C      1  0.5542610000000  0.4307790000000  0.5386930000000 1.0
C      1  0.5423160000000  0.4142380000000  0.5192760000000 1.0
C      1  0.5663720000000  0.5277150000000  0.4725850000000 1.0
C      1  0.4160850000000  0.5069570000000  0.5235160000000 1.0
C      1  0.4749810000000  0.5588920000000  0.5668440000000 1.0
C      1  0.4915900000000  0.4873270000000  0.5006830000000 1.0
C      1  0.5197730000000  0.4910120000000  0.4851600000000 1.0
C      1  0.5301640000000  0.4585730000000  0.4839960000000 1.0
C      1  0.5380200000000  0.5223000000000  0.5668290000000 1.0
C      1  0.5540200000000  0.4822580000000  0.5052740000000 1.0
C      1  0.4946850000000  0.4702610000000  0.5756810000000 1.0
C      1  0.5342630000000  0.5081330000000  0.4325790000000 1.0
C      1  0.5246800000000  0.5211040000000  0.4956970000000 1.0
C      1  0.5094300000000  0.5647340000000  0.4666620000000 1.0
C      1  0.4816580000000  0.5649420000000  0.4577690000000 1.0
C      1  0.5098280000000  0.5614460000000  0.6016370000000 1.0
C      1  0.4603930000000  0.5360250000000  0.5497110000000 1.0
C      1  0.4990810000000  0.5502310000000  0.5794380000000 1.0
C      1  0.4079490000000  0.4818630000000  0.5292860000000 1.0
C      1  0.5715000000000  0.4209060000000  0.5572820000000 1.0
C      1  0.4947690000000  0.5169370000000  0.5438010000000 1.0
C      1  0.5292090000000  0.5572080000000  0.4475970000000 1.0
C      1  0.5638190000000  0.4802430000000  0.5440610000000 1.0
C      1  0.4333500000000  0.5853500000000  0.4857320000000 1.0
C      1  0.5611590000000  0.4712480000000  0.4556040000000 1.0
C      1  0.5468420000000  0.5320450000000  0.4448610000000 1.0
C      1  0.4679800000000  0.5168110000000  0.4648440000000 1.0
C      1  0.4365490000000  0.5188370000000  0.4725720000000 1.0
C      1  0.5808250000000  0.5344280000000  0.4454490000000 1.0
C      1  0.4728060000000  0.5110820000000  0.4962020000000 1.0
C      1  0.4769840000000  0.5408020000000  0.4449980000000 1.0
C      1  0.4467970000000  0.4659140000000  0.5030080000000 1.0
C      1  0.4236010000000  0.4616580000000  0.5188180000000 1.0
C      1  0.4337980000000  0.5521640000000  0.4791260000000 1.0
C      1  0.4722640000000  0.4531530000000  0.5077900000000 1.0
C      1  0.4919590000000  0.5570400000000  0.5141850000000 1.0
C      1  0.5127000000000  0.5528130000000  0.4921790000000 1.0
C      1  0.4730300000000  0.5619670000000  0.5343350000000 1.0
C      1  0.4964400000000  0.5244980000000  0.5142930000000 1.0
C      1  0.5589640000000  0.5098350000000  0.5544860000000 1.0
C      1  0.5658560000000  0.5068880000000  0.5224250000000 1.0
C      1  0.4946730000000  0.4689850000000  0.5258870000000 1.0
C      1  0.4457000000000  0.5073220000000  0.5093870000000 1.0
C      1  0.4588520000000  0.5740810000000  0.4710140000000 1.0
C      1  0.4862030000000  0.4797110000000  0.5524880000000 1.0
C      1  0.4982970000000  0.4423780000000  0.4586250000000 1.0
C      1  0.5077390000000  0.4186900000000  0.4803500000000 1.0
C      1  0.4386090000000  0.4924420000000  0.5532140000000 1.0
C      1  0.4224910000000  0.5307390000000  0.5011670000000 1.0
C      1  0.4828980000000  0.4366250000000  0.4885220000000 1.0
C      1  0.4880490000000  0.4645840000000  0.4352000000000 1.0
C      1  0.5257200000000  0.4666190000000  0.5162940000000 1.0
C      1  0.5660510000000  0.4759590000000  0.4818210000000 1.0
C      1  0.4724500000000  0.5134950000000  0.4312940000000 1.0
C      1  0.5120510000000  0.4837720000000  0.4239570000000 1.0
C      1  0.5389790000000  0.4403850000000  0.4680450000000 1.0
C      1  0.5109420000000  0.5288220000000  0.5646230000000 1.0
C      1  0.5427390000000  0.4779020000000  0.4362770000000 1.0
C      1  0.5269510000000  0.4096050000000  0.4976630000000 1.0
C      1  0.5550160000000  0.5216060000000  0.4969350000000 1.0
END
