TITL C-2778426-5645-1249 0.00181547805315758 125000 -236.780352180376 0 0 41 (C1) n - 1
REM
REM in /home/nfs/bkarasulu/CARBON/AIRSS/Generating-Clusters/REBO/Only-C1/SD-CG/HFTN-CG
REM
REM
REM
REM
REM
REM ./C.cell (11c1c37f851c82e70ff6c80c92926a4b)
REM
REM compiler GCC version 9.2.1 20190827 (Red Hat 9.2.1-1)
REM options -cpp -mtune=generic -march=x86-64 -g -O0 -fpre-include=/usr/include/finclude/math-vector-fortran.h
REM seed -1358304814 2094538570 1436922861 -570346329 -192130696 1444359446 -1196347906 -2129660675 22790845 421360976 458131738 -1664088125 -721406751 -1718431695 -2134709359 -1971954579 1282743373 155879608 -1648582905 -1544746604 -270696888 533659598 -354659442 -341058952 -1608859057 1339371423 306813618 -1727672386 -2136874616 2060514597 -1158479704 -209767693 -1542760802
REM
CELL 1.54180   50.00000   50.00000   50.00000   90.00000   90.00000   90.00000
LATT -1
SFAC C  
C      1  0.5057330000000  0.5035780000000  0.5491340000000 1.0
C      1  0.5149190000000  0.4970380000000  0.5203610000000 1.0
C      1  0.4321340000000  0.5165010000000  0.5485890000000 1.0
C      1  0.4899290000000  0.4698270000000  0.4867210000000 1.0
C      1  0.4895550000000  0.5121690000000  0.4376170000000 1.0
C      1  0.4617090000000  0.5050330000000  0.4372590000000 1.0
C      1  0.4503160000000  0.5164130000000  0.5284250000000 1.0
C      1  0.5392480000000  0.4540070000000  0.4886060000000 1.0
C      1  0.5365830000000  0.5070360000000  0.4563240000000 1.0
C      1  0.5449150000000  0.4567450000000  0.4611780000000 1.0
C      1  0.5015830000000  0.4214410000000  0.4865360000000 1.0
C      1  0.4925510000000  0.4814910000000  0.5612150000000 1.0
C      1  0.4597780000000  0.4687840000000  0.5308440000000 1.0
C      1  0.5075900000000  0.4486250000000  0.5291150000000 1.0
C      1  0.5671440000000  0.4969050000000  0.5152390000000 1.0
C      1  0.4915040000000  0.4554950000000  0.5512590000000 1.0
C      1  0.4451520000000  0.5162900000000  0.4636940000000 1.0
C      1  0.4551110000000  0.5396900000000  0.5118560000000 1.0
C      1  0.5046330000000  0.5496540000000  0.5029610000000 1.0
C      1  0.4680810000000  0.4662510000000  0.4710440000000 1.0
C      1  0.4904260000000  0.4969570000000  0.5022450000000 1.0
C      1  0.5546650000000  0.4695800000000  0.5104140000000 1.0
C      1  0.5142720000000  0.4980760000000  0.4340730000000 1.0
C      1  0.5278280000000  0.4693790000000  0.5235830000000 1.0
C      1  0.5560220000000  0.5255820000000  0.5298270000000 1.0
C      1  0.4503750000000  0.4839860000000  0.4585470000000 1.0
C      1  0.4474610000000  0.5348760000000  0.4845370000000 1.0
C      1  0.5238300000000  0.5479490000000  0.4786600000000 1.0
C      1  0.5107880000000  0.5562620000000  0.4527900000000 1.0
C      1  0.4925530000000  0.5241730000000  0.4858400000000 1.0
C      1  0.5093080000000  0.4468820000000  0.4963010000000 1.0
C      1  0.4933470000000  0.5319580000000  0.4583190000000 1.0
C      1  0.5123910000000  0.5292920000000  0.5569450000000 1.0
C      1  0.5082440000000  0.5536510000000  0.5351050000000 1.0
C      1  0.5378950000000  0.4775040000000  0.4439200000000 1.0
C      1  0.5388020000000  0.5112830000000  0.5061720000000 1.0
C      1  0.4655280000000  0.4941150000000  0.5209410000000 1.0
C      1  0.4776180000000  0.5550330000000  0.5200900000000 1.0
C      1  0.5370840000000  0.5232120000000  0.4788570000000 1.0
C      1  0.5390350000000  0.5423770000000  0.5446740000000 1.0
C      1  0.4543580000000  0.4449040000000  0.5401810000000 1.0
END
