TITL C-2778425-5191-287 -0.00280872220114466 125000 -814.046331920139 0 0 139 (C1) n - 1
REM
REM in /home/nfs/bkarasulu/CARBON/AIRSS/Generating-Clusters/REBO/Only-C1/SD-CG/HFTN-CG
REM
REM
REM
REM
REM
REM ./C.cell (11c1c37f851c82e70ff6c80c92926a4b)
REM
REM compiler GCC version 9.2.1 20190827 (Red Hat 9.2.1-1)
REM options -cpp -mtune=generic -march=x86-64 -g -O0 -fpre-include=/usr/include/finclude/math-vector-fortran.h
REM seed 1189300533 -341750164 -1249248822 -1419732938 554299054 1429540310 -1846273775 221101129 813288236 -1045277032 -1946869743 1022979365 2075839814 489798959 1433023767 1520174015 -165395148 1744781963 1847626643 2080634048 -134264451 1516193901 -788616184 240137132 -1333758812 34415763 1289177735 -1575625157 -63275398 -1458376214 2032775339 1229654770 1016130833
REM
CELL 1.54180   50.00000   50.00000   50.00000   90.00000   90.00000   90.00000
LATT -1
SFAC C  
C      1  0.4529410000000  0.5463270000000  0.4439420000000 1.0
C      1  0.4516690000000  0.5638120000000  0.4795580000000 1.0
C      1  0.4003650000000  0.4837850000000  0.4705850000000 1.0
C      1  0.4516600000000  0.5337460000000  0.4855450000000 1.0
C      1  0.5055660000000  0.4614880000000  0.4674700000000 1.0
C      1  0.4458650000000  0.5215680000000  0.5721260000000 1.0
C      1  0.4315030000000  0.4073830000000  0.4998980000000 1.0
C      1  0.5533180000000  0.5236360000000  0.4225340000000 1.0
C      1  0.5893190000000  0.5340330000000  0.5610020000000 1.0
C      1  0.5419700000000  0.5402130000000  0.5879880000000 1.0
C      1  0.4726390000000  0.4776990000000  0.4084790000000 1.0
C      1  0.4840720000000  0.5477220000000  0.5976390000000 1.0
C      1  0.5702520000000  0.4373190000000  0.5287990000000 1.0
C      1  0.4652680000000  0.4817690000000  0.5318970000000 1.0
C      1  0.4438130000000  0.4738190000000  0.5645860000000 1.0
C      1  0.5441960000000  0.4338940000000  0.4714620000000 1.0
C      1  0.5878920000000  0.4360630000000  0.5007320000000 1.0
C      1  0.4754980000000  0.5858920000000  0.5026880000000 1.0
C      1  0.4545560000000  0.4570900000000  0.4185790000000 1.0
C      1  0.5524970000000  0.5642970000000  0.4592920000000 1.0
C      1  0.4379450000000  0.5923850000000  0.4912830000000 1.0
C      1  0.5883560000000  0.5306010000000  0.5126620000000 1.0
C      1  0.4612630000000  0.4633050000000  0.4966930000000 1.0
C      1  0.5027070000000  0.4234900000000  0.4381560000000 1.0
C      1  0.4895900000000  0.5009150000000  0.4627350000000 1.0
C      1  0.5049250000000  0.4992740000000  0.5922680000000 1.0
C      1  0.5367220000000  0.4540250000000  0.4955780000000 1.0
C      1  0.4854990000000  0.5396040000000  0.4224730000000 1.0
C      1  0.4401500000000  0.4893970000000  0.5041300000000 1.0
C      1  0.5256530000000  0.5904500000000  0.5139360000000 1.0
C      1  0.5593810000000  0.4704420000000  0.5652830000000 1.0
C      1  0.4730230000000  0.4147040000000  0.5285910000000 1.0
C      1  0.6011640000000  0.5390880000000  0.5365620000000 1.0
C      1  0.4232270000000  0.5427310000000  0.4548820000000 1.0
C      1  0.5023830000000  0.4691040000000  0.4144560000000 1.0
C      1  0.4204820000000  0.4534130000000  0.5075110000000 1.0
C      1  0.5473270000000  0.4986900000000  0.5613870000000 1.0
C      1  0.4970400000000  0.5375270000000  0.5510960000000 1.0
C      1  0.4904680000000  0.5722720000000  0.4246340000000 1.0
C      1  0.4691700000000  0.5035250000000  0.5548700000000 1.0
C      1  0.4974390000000  0.4803100000000  0.5702960000000 1.0
C      1  0.5304530000000  0.5123690000000  0.5846270000000 1.0
C      1  0.4885160000000  0.5685760000000  0.5462770000000 1.0
C      1  0.5058950000000  0.5947280000000  0.4952680000000 1.0
C      1  0.5689000000000  0.5631840000000  0.4824470000000 1.0
C      1  0.5197530000000  0.5607400000000  0.4367330000000 1.0
C      1  0.5278990000000  0.5639090000000  0.5799450000000 1.0
C      1  0.4314530000000  0.4908860000000  0.5509330000000 1.0
C      1  0.4212770000000  0.4316780000000  0.4892740000000 1.0
C      1  0.5211330000000  0.4229280000000  0.4541550000000 1.0
C      1  0.5592220000000  0.4805360000000  0.4707610000000 1.0
C      1  0.5765940000000  0.4758150000000  0.4356160000000 1.0
C      1  0.4573170000000  0.4212500000000  0.4560260000000 1.0
C      1  0.5164910000000  0.4015020000000  0.5151900000000 1.0
C      1  0.5028270000000  0.4029850000000  0.4910570000000 1.0
C      1  0.4240500000000  0.5381530000000  0.5588050000000 1.0
C      1  0.5064120000000  0.5314860000000  0.4825030000000 1.0
C      1  0.5160980000000  0.5863520000000  0.5402800000000 1.0
C      1  0.4191530000000  0.5566610000000  0.4830560000000 1.0
C      1  0.4885960000000  0.5223260000000  0.6108280000000 1.0
C      1  0.4143730000000  0.5480320000000  0.5298920000000 1.0
C      1  0.5728010000000  0.5180890000000  0.4685320000000 1.0
C      1  0.5590560000000  0.4724090000000  0.4979720000000 1.0
C      1  0.4994370000000  0.4966010000000  0.5401650000000 1.0
C      1  0.5549950000000  0.5613600000000  0.5382680000000 1.0
C      1  0.5171420000000  0.5142260000000  0.4549370000000 1.0
C      1  0.4366630000000  0.5019370000000  0.4665970000000 1.0
C      1  0.5380410000000  0.5766320000000  0.5563310000000 1.0
C      1  0.4725780000000  0.4323740000000  0.4325010000000 1.0
C      1  0.4987090000000  0.5657770000000  0.5791020000000 1.0
C      1  0.5437540000000  0.5169120000000  0.4726310000000 1.0
C      1  0.4888580000000  0.4290940000000  0.5621390000000 1.0
C      1  0.4585460000000  0.5297220000000  0.5168300000000 1.0
C      1  0.4653520000000  0.5719570000000  0.4410420000000 1.0
C      1  0.5640900000000  0.5139150000000  0.5210050000000 1.0
C      1  0.4946960000000  0.4847020000000  0.4904400000000 1.0
C      1  0.5296410000000  0.4825010000000  0.5370890000000 1.0
C      1  0.4478190000000  0.5019960000000  0.4281910000000 1.0
C      1  0.5595670000000  0.4920870000000  0.4192250000000 1.0
C      1  0.4586170000000  0.6369370000000  0.5156430000000 1.0
C      1  0.4304050000000  0.4596870000000  0.4349430000000 1.0
C      1  0.4639030000000  0.5198090000000  0.4600370000000 1.0
C      1  0.5880880000000  0.4915380000000  0.4603700000000 1.0
C      1  0.5733260000000  0.4250480000000  0.4300040000000 1.0
C      1  0.5623170000000  0.4480990000000  0.4469210000000 1.0
C      1  0.5204990000000  0.4338370000000  0.5382170000000 1.0
C      1  0.5219410000000  0.5288540000000  0.5470250000000 1.0
C      1  0.4892350000000  0.5752150000000  0.4731810000000 1.0
C      1  0.4873120000000  0.4602710000000  0.4411770000000 1.0
C      1  0.4934120000000  0.5465970000000  0.4549090000000 1.0
C      1  0.4729790000000  0.4588130000000  0.5693160000000 1.0
C      1  0.4954390000000  0.4389250000000  0.5211220000000 1.0
C      1  0.5248990000000  0.5099640000000  0.4261830000000 1.0
C      1  0.5218840000000  0.5708530000000  0.4680580000000 1.0
C      1  0.5392490000000  0.4522850000000  0.5751140000000 1.0
C      1  0.4584190000000  0.4057260000000  0.5041010000000 1.0
C      1  0.5485920000000  0.4114700000000  0.5211590000000 1.0
C      1  0.6058940000000  0.4536860000000  0.4896440000000 1.0
C      1  0.4042900000000  0.5273120000000  0.5104340000000 1.0
C      1  0.4654970000000  0.4821000000000  0.4476770000000 1.0
C      1  0.5702950000000  0.4846610000000  0.5209600000000 1.0
C      1  0.4769860000000  0.5295270000000  0.5732770000000 1.0
C      1  0.6101710000000  0.4764700000000  0.4754970000000 1.0
C      1  0.4261520000000  0.5193620000000  0.4324210000000 1.0
C      1  0.5522110000000  0.5722550000000  0.5089840000000 1.0
C      1  0.4317100000000  0.5671610000000  0.5135350000000 1.0
C      1  0.5347170000000  0.4676830000000  0.4525710000000 1.0
C      1  0.5118560000000  0.4514540000000  0.5728590000000 1.0
C      1  0.5124170000000  0.4669130000000  0.5112680000000 1.0
C      1  0.5766740000000  0.4661660000000  0.5425850000000 1.0
C      1  0.5382270000000  0.5201420000000  0.5033320000000 1.0
C      1  0.4858480000000  0.4457810000000  0.4903590000000 1.0
C      1  0.4564670000000  0.5916560000000  0.4624330000000 1.0
C      1  0.5072610000000  0.5149430000000  0.5125220000000 1.0
C      1  0.4237030000000  0.5160010000000  0.4931480000000 1.0
C      1  0.4101010000000  0.4786080000000  0.4964780000000 1.0
C      1  0.4645300000000  0.5628330000000  0.5227300000000 1.0
C      1  0.5623080000000  0.4208310000000  0.4936870000000 1.0
C      1  0.4985530000000  0.4015590000000  0.5444620000000 1.0
C      1  0.4333660000000  0.4399830000000  0.4617280000000 1.0
C      1  0.5405300000000  0.4522400000000  0.5351720000000 1.0
C      1  0.4462190000000  0.4694950000000  0.4701090000000 1.0
C      1  0.4939440000000  0.4945230000000  0.6242580000000 1.0
C      1  0.5315670000000  0.4056360000000  0.5502220000000 1.0
C      1  0.4459660000000  0.4567260000000  0.5263060000000 1.0
C      1  0.5045120000000  0.5195420000000  0.4071090000000 1.0
C      1  0.4723710000000  0.5107730000000  0.4097950000000 1.0
C      1  0.5662190000000  0.5244410000000  0.5736280000000 1.0
C      1  0.4602020000000  0.4386820000000  0.5457560000000 1.0
C      1  0.4343590000000  0.5172810000000  0.5347620000000 1.0
C      1  0.5320740000000  0.5517160000000  0.4926920000000 1.0
C      1  0.5290640000000  0.4793150000000  0.4230520000000 1.0
C      1  0.4753690000000  0.4166220000000  0.4802340000000 1.0
C      1  0.5841890000000  0.5389780000000  0.4854230000000 1.0
C      1  0.5509830000000  0.5498070000000  0.4323670000000 1.0
C      1  0.4725240000000  0.5002660000000  0.5066300000000 1.0
C      1  0.5481850000000  0.5338300000000  0.5394010000000 1.0
C      1  0.4575300000000  0.6129770000000  0.5062400000000 1.0
C      1  0.4175090000000  0.4829450000000  0.4458230000000 1.0
END
