TITL C-2778433-5640-763 -0.00173280854052546 125000 -1095.10542914138 0 0 186 (C1) n - 1
REM
REM in /home/nfs/bkarasulu/CARBON/AIRSS/Generating-Clusters/REBO/Only-C1/SD-CG/HFTN-CG
REM
REM
REM
REM
REM
REM ./C.cell (11c1c37f851c82e70ff6c80c92926a4b)
REM
REM compiler GCC version 9.2.1 20190827 (Red Hat 9.2.1-1)
REM options -cpp -mtune=generic -march=x86-64 -g -O0 -fpre-include=/usr/include/finclude/math-vector-fortran.h
REM seed -665406222 -68633679 -535998907 -1251583998 -1795373287 -251814767 -178559200 1202999722 -1953899370 -1875429111 427207058 800227596 1407032207 1543317346 883766215 741314302 1339956578 -1707856510 -948650587 1557423265 1571990254 -193287861 -682262987 444738645 561910602 -508148725 1936831644 -1491922558 -1075172847 -484509098 1057801130 -1264106734 -1606774329
REM
CELL 1.54180   50.00000   50.00000   50.00000   90.00000   90.00000   90.00000
LATT -1
SFAC C  
C      1  0.5563060000000  0.4487710000000  0.5798560000000 1.0
C      1  0.4651560000000  0.4129040000000  0.5300130000000 1.0
C      1  0.4454240000000  0.4996270000000  0.5196860000000 1.0
C      1  0.5110280000000  0.5327300000000  0.5903100000000 1.0
C      1  0.5150250000000  0.5659850000000  0.5472370000000 1.0
C      1  0.5169450000000  0.5238750000000  0.5147600000000 1.0
C      1  0.3889590000000  0.4843270000000  0.4552560000000 1.0
C      1  0.5310240000000  0.5621860000000  0.5735530000000 1.0
C      1  0.4901000000000  0.4980290000000  0.5483150000000 1.0
C      1  0.5954240000000  0.4863920000000  0.5468430000000 1.0
C      1  0.5855070000000  0.4404970000000  0.5647240000000 1.0
C      1  0.5908830000000  0.5032760000000  0.5242860000000 1.0
C      1  0.5208910000000  0.5967990000000  0.4504630000000 1.0
C      1  0.4932610000000  0.5466590000000  0.5105290000000 1.0
C      1  0.4910460000000  0.4860960000000  0.6090120000000 1.0
C      1  0.4339330000000  0.5976640000000  0.4824640000000 1.0
C      1  0.5462650000000  0.5434100000000  0.4559740000000 1.0
C      1  0.6121570000000  0.5030290000000  0.5054000000000 1.0
C      1  0.4424930000000  0.4665630000000  0.5407000000000 1.0
C      1  0.4644660000000  0.5606690000000  0.5788100000000 1.0
C      1  0.4385260000000  0.4961100000000  0.5527940000000 1.0
C      1  0.5110960000000  0.4124540000000  0.5522110000000 1.0
C      1  0.5224770000000  0.5145560000000  0.5635460000000 1.0
C      1  0.4771230000000  0.6020310000000  0.4763550000000 1.0
C      1  0.4913020000000  0.3977680000000  0.5299740000000 1.0
C      1  0.5144540000000  0.5531520000000  0.4188970000000 1.0
C      1  0.4555880000000  0.5073060000000  0.5966250000000 1.0
C      1  0.4848790000000  0.5570170000000  0.4660390000000 1.0
C      1  0.5773550000000  0.5330900000000  0.4488660000000 1.0
C      1  0.5476930000000  0.4928440000000  0.4522090000000 1.0
C      1  0.4282130000000  0.4334080000000  0.4986680000000 1.0
C      1  0.4846530000000  0.5021810000000  0.3943900000000 1.0
C      1  0.4460440000000  0.5603060000000  0.5063270000000 1.0
C      1  0.5008940000000  0.5949640000000  0.5706930000000 1.0
C      1  0.5166060000000  0.5995100000000  0.4813310000000 1.0
C      1  0.4711240000000  0.5284770000000  0.4528940000000 1.0
C      1  0.5920270000000  0.4580300000000  0.4585190000000 1.0
C      1  0.6054840000000  0.5067820000000  0.4787080000000 1.0
C      1  0.4980650000000  0.5635830000000  0.5838690000000 1.0
C      1  0.4363780000000  0.5715490000000  0.5434480000000 1.0
C      1  0.5209540000000  0.4180230000000  0.4398600000000 1.0
C      1  0.5705380000000  0.5666550000000  0.4791090000000 1.0
C      1  0.4467180000000  0.4791690000000  0.4855110000000 1.0
C      1  0.4701310000000  0.4255720000000  0.4089230000000 1.0
C      1  0.5423020000000  0.4931640000000  0.6041590000000 1.0
C      1  0.5538950000000  0.5705690000000  0.5511810000000 1.0
C      1  0.4169120000000  0.4374830000000  0.5309890000000 1.0
C      1  0.5177720000000  0.5557500000000  0.4712990000000 1.0
C      1  0.4258740000000  0.5084290000000  0.4344390000000 1.0
C      1  0.5509670000000  0.3889940000000  0.5048870000000 1.0
C      1  0.4783780000000  0.5353760000000  0.3990050000000 1.0
C      1  0.4744460000000  0.5227370000000  0.5755340000000 1.0
C      1  0.5997870000000  0.4567000000000  0.5405150000000 1.0
C      1  0.5650590000000  0.5100070000000  0.5121460000000 1.0
C      1  0.4157010000000  0.5683840000000  0.5196620000000 1.0
C      1  0.4836150000000  0.4448590000000  0.4812240000000 1.0
C      1  0.5446190000000  0.4347290000000  0.5141410000000 1.0
C      1  0.5611300000000  0.5263340000000  0.5742770000000 1.0
C      1  0.5636280000000  0.4617850000000  0.5170730000000 1.0
C      1  0.5207420000000  0.5317800000000  0.4398240000000 1.0
C      1  0.5621030000000  0.4195640000000  0.5541940000000 1.0
C      1  0.4990940000000  0.4371480000000  0.4126270000000 1.0
C      1  0.4318030000000  0.5540290000000  0.5695140000000 1.0
C      1  0.4291940000000  0.4705640000000  0.5127290000000 1.0
C      1  0.4391870000000  0.4808140000000  0.4373610000000 1.0
C      1  0.4891560000000  0.4129050000000  0.4343510000000 1.0
C      1  0.4749320000000  0.4752700000000  0.5641410000000 1.0
C      1  0.4178410000000  0.5556610000000  0.4446610000000 1.0
C      1  0.4977520000000  0.5760500000000  0.4988140000000 1.0
C      1  0.5086750000000  0.6053510000000  0.5456460000000 1.0
C      1  0.5763390000000  0.4736900000000  0.4322860000000 1.0
C      1  0.4872150000000  0.5165390000000  0.6055090000000 1.0
C      1  0.5942790000000  0.5538200000000  0.5211240000000 1.0
C      1  0.4979360000000  0.4643460000000  0.4063480000000 1.0
C      1  0.4047930000000  0.5372540000000  0.5646070000000 1.0
C      1  0.5788620000000  0.4968900000000  0.4654900000000 1.0
C      1  0.4625570000000  0.4235180000000  0.5590660000000 1.0
C      1  0.5424070000000  0.5214590000000  0.5971060000000 1.0
C      1  0.6025590000000  0.5478450000000  0.5496500000000 1.0
C      1  0.4565530000000  0.5387010000000  0.5536230000000 1.0
C      1  0.4348060000000  0.4434700000000  0.4506140000000 1.0
C      1  0.4699090000000  0.4693140000000  0.5093030000000 1.0
C      1  0.5479090000000  0.5359820000000  0.5144910000000 1.0
C      1  0.3864550000000  0.4919370000000  0.5222220000000 1.0
C      1  0.5641220000000  0.4112340000000  0.5236370000000 1.0
C      1  0.5331800000000  0.5893340000000  0.5330770000000 1.0
C      1  0.4642510000000  0.5483620000000  0.4189810000000 1.0
C      1  0.4632860000000  0.5789200000000  0.5393380000000 1.0
C      1  0.4713000000000  0.4708290000000  0.3938730000000 1.0
C      1  0.4346910000000  0.4411970000000  0.5600470000000 1.0
C      1  0.4412750000000  0.4602760000000  0.5864160000000 1.0
C      1  0.4029670000000  0.5109970000000  0.4509540000000 1.0
C      1  0.5999010000000  0.4452940000000  0.5149980000000 1.0
C      1  0.4280650000000  0.4225360000000  0.4701660000000 1.0
C      1  0.4948650000000  0.6184070000000  0.4958730000000 1.0
C      1  0.5140290000000  0.4815800000000  0.5666060000000 1.0
C      1  0.5356760000000  0.4401990000000  0.4283180000000 1.0
C      1  0.4956680000000  0.5315800000000  0.5532630000000 1.0
C      1  0.5190200000000  0.4909650000000  0.5059920000000 1.0
C      1  0.4390310000000  0.5428500000000  0.4681120000000 1.0
C      1  0.5331910000000  0.5461890000000  0.3982130000000 1.0
C      1  0.5321230000000  0.5057610000000  0.4286730000000 1.0
C      1  0.4957210000000  0.4316110000000  0.5946670000000 1.0
C      1  0.5483480000000  0.4865140000000  0.5015460000000 1.0
C      1  0.5071130000000  0.4865220000000  0.4235110000000 1.0
C      1  0.4442030000000  0.3990420000000  0.4690430000000 1.0
C      1  0.4716260000000  0.4708300000000  0.5934510000000 1.0
C      1  0.4441470000000  0.5925330000000  0.4559910000000 1.0
C      1  0.4913080000000  0.6150000000000  0.5245180000000 1.0
C      1  0.5627630000000  0.4181950000000  0.4641570000000 1.0
C      1  0.5429330000000  0.4374870000000  0.4827530000000 1.0
C      1  0.5009610000000  0.5207410000000  0.4618310000000 1.0
C      1  0.5864440000000  0.4737550000000  0.5737390000000 1.0
C      1  0.4651490000000  0.6038440000000  0.5257360000000 1.0
C      1  0.4384360000000  0.4900860000000  0.5823620000000 1.0
C      1  0.5171550000000  0.4532760000000  0.5862520000000 1.0
C      1  0.4775050000000  0.5181010000000  0.5049380000000 1.0
C      1  0.4041790000000  0.5620850000000  0.4715710000000 1.0
C      1  0.4278110000000  0.5316750000000  0.5084590000000 1.0
C      1  0.4694140000000  0.4827280000000  0.4449190000000 1.0
C      1  0.5354560000000  0.4047290000000  0.4613160000000 1.0
C      1  0.5210610000000  0.4747780000000  0.4513970000000 1.0
C      1  0.5929170000000  0.4186930000000  0.5138790000000 1.0
C      1  0.4223320000000  0.5219370000000  0.5404260000000 1.0
C      1  0.5051040000000  0.5775900000000  0.4291310000000 1.0
C      1  0.5324840000000  0.4282940000000  0.5684300000000 1.0
C      1  0.5523640000000  0.5157430000000  0.4747320000000 1.0
C      1  0.5242230000000  0.5256950000000  0.4839960000000 1.0
C      1  0.4940750000000  0.4498380000000  0.5233790000000 1.0
C      1  0.4798400000000  0.3962640000000  0.4859880000000 1.0
C      1  0.5578220000000  0.4647370000000  0.4780230000000 1.0
C      1  0.5495850000000  0.4666020000000  0.4118010000000 1.0
C      1  0.5298610000000  0.3931300000000  0.4873680000000 1.0
C      1  0.5868220000000  0.4300060000000  0.4557710000000 1.0
C      1  0.4565320000000  0.5646940000000  0.4481240000000 1.0
C      1  0.4702510000000  0.4513740000000  0.5449890000000 1.0
C      1  0.4209540000000  0.4782510000000  0.4650590000000 1.0
C      1  0.3903510000000  0.5145020000000  0.5437640000000 1.0
C      1  0.4816470000000  0.5079560000000  0.4277350000000 1.0
C      1  0.4517590000000  0.3915470000000  0.4990220000000 1.0
C      1  0.5859250000000  0.5395120000000  0.5700570000000 1.0
C      1  0.5730540000000  0.5727520000000  0.4517150000000 1.0
C      1  0.4656260000000  0.5740640000000  0.4886620000000 1.0
C      1  0.5393310000000  0.4874190000000  0.3941510000000 1.0
C      1  0.4137620000000  0.5797350000000  0.4905600000000 1.0
C      1  0.5637780000000  0.5471870000000  0.4066660000000 1.0
C      1  0.4077790000000  0.5296070000000  0.4742000000000 1.0
C      1  0.4738400000000  0.4010250000000  0.4563630000000 1.0
C      1  0.4480710000000  0.6093720000000  0.5038610000000 1.0
C      1  0.4597920000000  0.4577240000000  0.4627010000000 1.0
C      1  0.5517590000000  0.5102760000000  0.5497640000000 1.0
C      1  0.4886850000000  0.4936510000000  0.5180140000000 1.0
C      1  0.3964260000000  0.5192600000000  0.5045340000000 1.0
C      1  0.5151490000000  0.4280120000000  0.5219970000000 1.0
C      1  0.4347310000000  0.4100220000000  0.5204960000000 1.0
C      1  0.3997660000000  0.4658400000000  0.5219770000000 1.0
C      1  0.4060610000000  0.4589030000000  0.4406480000000 1.0
C      1  0.4866000000000  0.5638110000000  0.5458660000000 1.0
C      1  0.4317330000000  0.4548500000000  0.4185780000000 1.0
C      1  0.5545080000000  0.4539200000000  0.4482050000000 1.0
C      1  0.4874760000000  0.4154390000000  0.5736560000000 1.0
C      1  0.4442020000000  0.5288470000000  0.4317430000000 1.0
C      1  0.5635620000000  0.4783140000000  0.5931800000000 1.0
C      1  0.5298110000000  0.5826700000000  0.5043520000000 1.0
C      1  0.5052590000000  0.4023730000000  0.5014770000000 1.0
C      1  0.5140290000000  0.4923960000000  0.3831550000000 1.0
C      1  0.5019100000000  0.4733650000000  0.4862510000000 1.0
C      1  0.5663710000000  0.5525120000000  0.5334190000000 1.0
C      1  0.4630080000000  0.5398540000000  0.5248950000000 1.0
C      1  0.5561190000000  0.4833020000000  0.5405370000000 1.0
C      1  0.4539360000000  0.4483450000000  0.4002530000000 1.0
C      1  0.5877120000000  0.4634880000000  0.4919040000000 1.0
C      1  0.5446880000000  0.5589630000000  0.4925730000000 1.0
C      1  0.5406540000000  0.4669310000000  0.5580660000000 1.0
C      1  0.4885990000000  0.5977310000000  0.4503990000000 1.0
C      1  0.4496750000000  0.5132190000000  0.4895320000000 1.0
C      1  0.5179250000000  0.4779310000000  0.6061270000000 1.0
C      1  0.5729860000000  0.5652590000000  0.4256030000000 1.0
C      1  0.5495850000000  0.5165080000000  0.4028540000000 1.0
C      1  0.3941110000000  0.5466700000000  0.5235950000000 1.0
C      1  0.4949200000000  0.4911910000000  0.4612920000000 1.0
C      1  0.5797970000000  0.5059460000000  0.4325740000000 1.0
C      1  0.5161990000000  0.4473810000000  0.4710890000000 1.0
C      1  0.4612700000000  0.4363920000000  0.5056730000000 1.0
C      1  0.5971020000000  0.5339490000000  0.4704920000000 1.0
C      1  0.5936620000000  0.5539560000000  0.4921910000000 1.0
END
