TITL C-2778437-8639-92 -0.0149837211995132 125000 -633.79678065942 0 0 109 (C1) n - 1
REM
REM in /home/nfs/bkarasulu/CARBON/AIRSS/Generating-Clusters/REBO/Only-C1/SD-CG/HFTN-CG
REM
REM
REM
REM
REM
REM ./C.cell (11c1c37f851c82e70ff6c80c92926a4b)
REM
REM compiler GCC version 9.2.1 20190827 (Red Hat 9.2.1-1)
REM options -cpp -mtune=generic -march=x86-64 -g -O0 -fpre-include=/usr/include/finclude/math-vector-fortran.h
REM seed 920330584 422891609 894808474 -861359569 1051476113 -2034416839 795494930 -169496484 1238268619 1640766544 605150301 575971527 -1450569517 1298493067 1191268650 389066906 316650015 -144497012 -622824621 7215452 1346619796 -1683786970 -1980370383 910115697 -2107611081 1339921957 908306423 149108853 1849525904 881278970 -1822057290 -1214201279 1582997731
REM
CELL 1.54180   50.00000   50.00000   50.00000   90.00000   90.00000   90.00000
LATT -1
SFAC C  
C      1  0.4459560000000  0.5607690000000  0.4909440000000 1.0
C      1  0.5204150000000  0.5914670000000  0.4939850000000 1.0
C      1  0.4401430000000  0.4896110000000  0.4531700000000 1.0
C      1  0.4510110000000  0.4621730000000  0.5722680000000 1.0
C      1  0.5734310000000  0.5500700000000  0.5077260000000 1.0
C      1  0.5013240000000  0.4364900000000  0.5156240000000 1.0
C      1  0.5235500000000  0.5590940000000  0.4425880000000 1.0
C      1  0.5071640000000  0.4410450000000  0.4835930000000 1.0
C      1  0.5626170000000  0.5168590000000  0.4485860000000 1.0
C      1  0.4390270000000  0.5464980000000  0.4546760000000 1.0
C      1  0.4721740000000  0.5047300000000  0.4024260000000 1.0
C      1  0.4885340000000  0.4657620000000  0.4735860000000 1.0
C      1  0.5722140000000  0.4682490000000  0.4712140000000 1.0
C      1  0.5285220000000  0.5692900000000  0.4738790000000 1.0
C      1  0.5448340000000  0.5171900000000  0.5411120000000 1.0
C      1  0.5526930000000  0.4480350000000  0.4772140000000 1.0
C      1  0.5119880000000  0.4756450000000  0.4160640000000 1.0
C      1  0.4503130000000  0.4644090000000  0.4327160000000 1.0
C      1  0.5156050000000  0.4967510000000  0.5276370000000 1.0
C      1  0.5010780000000  0.5047490000000  0.4179040000000 1.0
C      1  0.6041980000000  0.5383110000000  0.5043620000000 1.0
C      1  0.4391180000000  0.5541290000000  0.5168370000000 1.0
C      1  0.5458950000000  0.4932370000000  0.4880180000000 1.0
C      1  0.4896960000000  0.4821840000000  0.5012130000000 1.0
C      1  0.4737430000000  0.5945510000000  0.4827980000000 1.0
C      1  0.4470130000000  0.4418370000000  0.4574000000000 1.0
C      1  0.4831720000000  0.3994610000000  0.5480600000000 1.0
C      1  0.4985240000000  0.5147460000000  0.5040560000000 1.0
C      1  0.4886710000000  0.5603180000000  0.5758330000000 1.0
C      1  0.5138810000000  0.5389000000000  0.5534970000000 1.0
C      1  0.5813070000000  0.4586920000000  0.5430600000000 1.0
C      1  0.5262520000000  0.4570120000000  0.4644870000000 1.0
C      1  0.5061030000000  0.5523980000000  0.5967730000000 1.0
C      1  0.5455890000000  0.4621780000000  0.5668660000000 1.0
C      1  0.5750700000000  0.5211820000000  0.5256410000000 1.0
C      1  0.4513550000000  0.4715110000000  0.5010920000000 1.0
C      1  0.4570300000000  0.5113340000000  0.4417500000000 1.0
C      1  0.4633350000000  0.5493040000000  0.4318630000000 1.0
C      1  0.5418880000000  0.4711920000000  0.4306850000000 1.0
C      1  0.5394230000000  0.5878410000000  0.5154530000000 1.0
C      1  0.5231880000000  0.4118650000000  0.4937390000000 1.0
C      1  0.4568900000000  0.5664660000000  0.5352190000000 1.0
C      1  0.5401760000000  0.4859060000000  0.5876040000000 1.0
C      1  0.5246370000000  0.5449360000000  0.5053370000000 1.0
C      1  0.4944840000000  0.4484770000000  0.5530570000000 1.0
C      1  0.5413830000000  0.4809400000000  0.5159550000000 1.0
C      1  0.5680830000000  0.4877550000000  0.5677710000000 1.0
C      1  0.4128600000000  0.5498070000000  0.4452390000000 1.0
C      1  0.5908840000000  0.5087710000000  0.4983790000000 1.0
C      1  0.5399500000000  0.5155600000000  0.5725080000000 1.0
C      1  0.5029900000000  0.5142690000000  0.5498590000000 1.0
C      1  0.4469420000000  0.4232520000000  0.5020130000000 1.0
C      1  0.5721490000000  0.4703290000000  0.5199360000000 1.0
C      1  0.5197450000000  0.4458470000000  0.4361900000000 1.0
C      1  0.4535370000000  0.5249260000000  0.4139020000000 1.0
C      1  0.4840180000000  0.5435280000000  0.5095250000000 1.0
C      1  0.5318520000000  0.5077730000000  0.4430490000000 1.0
C      1  0.5797940000000  0.5123900000000  0.5583530000000 1.0
C      1  0.4683960000000  0.5421240000000  0.5705390000000 1.0
C      1  0.4096440000000  0.5033750000000  0.5096600000000 1.0
C      1  0.4698690000000  0.4214390000000  0.4599560000000 1.0
C      1  0.4565870000000  0.5748050000000  0.4618570000000 1.0
C      1  0.4774080000000  0.4732120000000  0.4141140000000 1.0
C      1  0.4212740000000  0.5053670000000  0.5411820000000 1.0
C      1  0.5143480000000  0.5304450000000  0.4300560000000 1.0
C      1  0.5107940000000  0.4985250000000  0.5931580000000 1.0
C      1  0.5244420000000  0.4878130000000  0.4673190000000 1.0
C      1  0.4124180000000  0.4711160000000  0.4995850000000 1.0
C      1  0.4816540000000  0.4555930000000  0.4429110000000 1.0
C      1  0.5381770000000  0.4497060000000  0.5229390000000 1.0
C      1  0.4931030000000  0.5911100000000  0.5017960000000 1.0
C      1  0.4736080000000  0.5125860000000  0.5605310000000 1.0
C      1  0.5439000000000  0.4330620000000  0.5005240000000 1.0
C      1  0.5018650000000  0.4661310000000  0.5262020000000 1.0
C      1  0.5029850000000  0.5110310000000  0.4704990000000 1.0
C      1  0.4347780000000  0.4760670000000  0.5496010000000 1.0
C      1  0.5593220000000  0.5574910000000  0.4795170000000 1.0
C      1  0.4306630000000  0.4452540000000  0.4870300000000 1.0
C      1  0.5627140000000  0.4828620000000  0.4469460000000 1.0
C      1  0.4875540000000  0.5716550000000  0.5259050000000 1.0
C      1  0.4516390000000  0.4318750000000  0.5294530000000 1.0
C      1  0.4877410000000  0.4910140000000  0.5794570000000 1.0
C      1  0.4575870000000  0.4697220000000  0.4713990000000 1.0
C      1  0.4928070000000  0.4088130000000  0.5022210000000 1.0
C      1  0.4215310000000  0.4970460000000  0.4788830000000 1.0
C      1  0.4941080000000  0.4255070000000  0.4372470000000 1.0
C      1  0.4325560000000  0.4582340000000  0.5246510000000 1.0
C      1  0.5284570000000  0.4481550000000  0.5498880000000 1.0
C      1  0.5200590000000  0.5284670000000  0.5935300000000 1.0
C      1  0.5072990000000  0.5428850000000  0.4772060000000 1.0
C      1  0.4631040000000  0.4982760000000  0.5126620000000 1.0
C      1  0.5666340000000  0.5071830000000  0.4784390000000 1.0
C      1  0.4776460000000  0.5550000000000  0.4788740000000 1.0
C      1  0.5863760000000  0.4771250000000  0.4955550000000 1.0
C      1  0.4785760000000  0.4649750000000  0.5735510000000 1.0
C      1  0.4906410000000  0.5534790000000  0.4360010000000 1.0
C      1  0.4960540000000  0.4043640000000  0.4194260000000 1.0
C      1  0.4602800000000  0.5238770000000  0.4967570000000 1.0
C      1  0.4421360000000  0.5236370000000  0.4767310000000 1.0
C      1  0.5059380000000  0.5700810000000  0.5500680000000 1.0
C      1  0.5531700000000  0.5465450000000  0.4524420000000 1.0
C      1  0.4229560000000  0.5323380000000  0.5215310000000 1.0
C      1  0.5448730000000  0.5598720000000  0.5165660000000 1.0
C      1  0.4541860000000  0.5015910000000  0.5412820000000 1.0
C      1  0.5379980000000  0.5583690000000  0.5556520000000 1.0
C      1  0.4686910000000  0.4115910000000  0.4869980000000 1.0
C      1  0.4850610000000  0.5089720000000  0.4465440000000 1.0
C      1  0.4751690000000  0.4256680000000  0.5438370000000 1.0
C      1  0.5638010000000  0.5425700000000  0.5570280000000 1.0
END
