TITL C-2778428-5639-742 -0.000649034473285845 125000 -263.074557935717 0 0 46 (C1) n - 1
REM
REM in /home/nfs/bkarasulu/CARBON/AIRSS/Generating-Clusters/REBO/Only-C1/SD-CG/HFTN-CG
REM
REM
REM
REM
REM
REM ./C.cell (11c1c37f851c82e70ff6c80c92926a4b)
REM
REM compiler GCC version 9.2.1 20190827 (Red Hat 9.2.1-1)
REM options -cpp -mtune=generic -march=x86-64 -g -O0 -fpre-include=/usr/include/finclude/math-vector-fortran.h
REM seed -211692751 733987774 -2130125328 1125232325 -978339179 1298783442 743405703 354022408 1187547025 -910200173 1770617439 -402268357 -2103657981 765078333 1073754693 -101829600 -1466038204 -331993044 1116964819 1280162378 1728593042 1455049471 1728113558 -786192597 -309993659 892787481 1038125918 1732948400 -1237188855 390292792 2047407975 -309539362 -207762862
REM
CELL 1.54180   50.00000   50.00000   50.00000   90.00000   90.00000   90.00000
LATT -1
SFAC C  
C      1  0.4506100000000  0.5190080000000  0.4855460000000 1.0
C      1  0.5055820000000  0.5486350000000  0.5294020000000 1.0
C      1  0.5090930000000  0.4737830000000  0.4847790000000 1.0
C      1  0.4593220000000  0.5010500000000  0.5282270000000 1.0
C      1  0.4860990000000  0.4864740000000  0.5371110000000 1.0
C      1  0.5545120000000  0.4834370000000  0.5372460000000 1.0
C      1  0.4623020000000  0.5295740000000  0.5309170000000 1.0
C      1  0.4874150000000  0.4577250000000  0.5307720000000 1.0
C      1  0.4860230000000  0.5495220000000  0.4552490000000 1.0
C      1  0.5339100000000  0.5209190000000  0.4854890000000 1.0
C      1  0.4492240000000  0.5213970000000  0.4563530000000 1.0
C      1  0.5251260000000  0.4972990000000  0.4651830000000 1.0
C      1  0.4946130000000  0.5507860000000  0.5009520000000 1.0
C      1  0.5153960000000  0.5566160000000  0.4526170000000 1.0
C      1  0.4480070000000  0.4946950000000  0.5021990000000 1.0
C      1  0.5467610000000  0.4729750000000  0.4722120000000 1.0
C      1  0.4682050000000  0.5007250000000  0.4431730000000 1.0
C      1  0.4447080000000  0.4675800000000  0.4954110000000 1.0
C      1  0.4932620000000  0.5071640000000  0.4278570000000 1.0
C      1  0.4665840000000  0.5393570000000  0.5024710000000 1.0
C      1  0.5159980000000  0.5477510000000  0.4816150000000 1.0
C      1  0.4915080000000  0.4498710000000  0.4580800000000 1.0
C      1  0.5072340000000  0.4950670000000  0.5586650000000 1.0
C      1  0.4874860000000  0.5220550000000  0.4672930000000 1.0
C      1  0.5061960000000  0.5276900000000  0.5967270000000 1.0
C      1  0.5584850000000  0.5111180000000  0.4990320000000 1.0
C      1  0.5582130000000  0.4771200000000  0.5012340000000 1.0
C      1  0.4826850000000  0.4915580000000  0.4789950000000 1.0
C      1  0.5310520000000  0.4383660000000  0.5150710000000 1.0
C      1  0.4571660000000  0.4436010000000  0.4910590000000 1.0
C      1  0.4749110000000  0.4393630000000  0.5450480000000 1.0
C      1  0.4577450000000  0.5481220000000  0.4476840000000 1.0
C      1  0.5291210000000  0.5375930000000  0.4357180000000 1.0
C      1  0.4724980000000  0.4723330000000  0.4547670000000 1.0
C      1  0.5036460000000  0.5122760000000  0.4953020000000 1.0
C      1  0.5188610000000  0.5107790000000  0.4383000000000 1.0
C      1  0.4853920000000  0.5367220000000  0.5511810000000 1.0
C      1  0.5673140000000  0.5069380000000  0.5260690000000 1.0
C      1  0.5533530000000  0.4500660000000  0.5155020000000 1.0
C      1  0.5040780000000  0.4504600000000  0.5067440000000 1.0
C      1  0.4990810000000  0.5154430000000  0.5247320000000 1.0
C      1  0.5126510000000  0.5359470000000  0.6207470000000 1.0
C      1  0.4994040000000  0.5190030000000  0.5714570000000 1.0
C      1  0.5216570000000  0.4584080000000  0.4568670000000 1.0
C      1  0.4845960000000  0.4393530000000  0.4843350000000 1.0
C      1  0.5329160000000  0.4842770000000  0.5546070000000 1.0
END
