TITL C-2778436-5916-419 -0.00235509967061601 125000 -935.637484508306 0 0 160 (C1) n - 1
REM
REM in /home/nfs/bkarasulu/CARBON/AIRSS/Generating-Clusters/REBO/Only-C1/SD-CG/HFTN-CG
REM
REM
REM
REM
REM
REM ./C.cell (11c1c37f851c82e70ff6c80c92926a4b)
REM
REM compiler GCC version 9.2.1 20190827 (Red Hat 9.2.1-1)
REM options -cpp -mtune=generic -march=x86-64 -g -O0 -fpre-include=/usr/include/finclude/math-vector-fortran.h
REM seed -1376255537 823828408 770380956 -171090298 1176158057 1466571997 2103217495 -1049041986 1286621382 1586943980 -1476163269 -2055009001 -304494363 2145350913 -175745255 478898992 -1907964810 1412422765 -1236525849 -1153266108 -1905681984 -1130474197 1627701697 1428546938 -1678109934 -1235693251 -795476872 1571741902 -71309053 1555436635 -1030022743 1637733936 -448201458
REM
CELL 1.54180   50.00000   50.00000   50.00000   90.00000   90.00000   90.00000
LATT -1
SFAC C  
C      1  0.3815930000000  0.4868720000000  0.4884790000000 1.0
C      1  0.5123020000000  0.5794620000000  0.5249190000000 1.0
C      1  0.4906370000000  0.5966790000000  0.4363600000000 1.0
C      1  0.5086990000000  0.5540640000000  0.4173160000000 1.0
C      1  0.5673760000000  0.4749000000000  0.4320620000000 1.0
C      1  0.4545980000000  0.4587140000000  0.4215880000000 1.0
C      1  0.4811740000000  0.5396520000000  0.6062300000000 1.0
C      1  0.4788960000000  0.4624060000000  0.5676660000000 1.0
C      1  0.3999120000000  0.5158630000000  0.5251890000000 1.0
C      1  0.5575690000000  0.4512410000000  0.5318800000000 1.0
C      1  0.4807030000000  0.4301170000000  0.5318290000000 1.0
C      1  0.5408870000000  0.4328300000000  0.5783750000000 1.0
C      1  0.6031430000000  0.5154060000000  0.4803870000000 1.0
C      1  0.6150330000000  0.4719700000000  0.5042030000000 1.0
C      1  0.5540260000000  0.4566560000000  0.5647720000000 1.0
C      1  0.3884440000000  0.5147900000000  0.4967100000000 1.0
C      1  0.4945360000000  0.5602100000000  0.5925510000000 1.0
C      1  0.4398700000000  0.5156100000000  0.5236690000000 1.0
C      1  0.5646130000000  0.4337890000000  0.5061860000000 1.0
C      1  0.4466370000000  0.5801960000000  0.5190350000000 1.0
C      1  0.4783260000000  0.5679630000000  0.5697910000000 1.0
C      1  0.5664150000000  0.4666090000000  0.4962020000000 1.0
C      1  0.5343330000000  0.5553380000000  0.4854560000000 1.0
C      1  0.4963310000000  0.5608270000000  0.5458920000000 1.0
C      1  0.5796310000000  0.4115890000000  0.4551850000000 1.0
C      1  0.5609510000000  0.5773540000000  0.4657550000000 1.0
C      1  0.5183160000000  0.5212680000000  0.4514130000000 1.0
C      1  0.4826150000000  0.4694270000000  0.4110480000000 1.0
C      1  0.4289720000000  0.4235440000000  0.5229820000000 1.0
C      1  0.4792780000000  0.4983840000000  0.4974550000000 1.0
C      1  0.5740430000000  0.5669210000000  0.5135510000000 1.0
C      1  0.4632170000000  0.5249140000000  0.3943930000000 1.0
C      1  0.5232390000000  0.4336520000000  0.4316250000000 1.0
C      1  0.4757640000000  0.4934550000000  0.3878370000000 1.0
C      1  0.5408540000000  0.5211970000000  0.4094290000000 1.0
C      1  0.5288060000000  0.4931290000000  0.5175100000000 1.0
C      1  0.4327710000000  0.4994000000000  0.5513140000000 1.0
C      1  0.4251140000000  0.4695470000000  0.5432280000000 1.0
C      1  0.4362110000000  0.5169140000000  0.5744510000000 1.0
C      1  0.5377060000000  0.5314470000000  0.5996520000000 1.0
C      1  0.5037060000000  0.4499580000000  0.4526640000000 1.0
C      1  0.5104410000000  0.4342760000000  0.5384760000000 1.0
C      1  0.6039980000000  0.4904540000000  0.5891900000000 1.0
C      1  0.5608840000000  0.4915690000000  0.5122160000000 1.0
C      1  0.5190230000000  0.4873900000000  0.4265470000000 1.0
C      1  0.4480730000000  0.4666070000000  0.5193500000000 1.0
C      1  0.4474170000000  0.5877560000000  0.4724300000000 1.0
C      1  0.4270090000000  0.5249340000000  0.4967990000000 1.0
C      1  0.5331810000000  0.5864550000000  0.4761620000000 1.0
C      1  0.5787300000000  0.4875330000000  0.5718250000000 1.0
C      1  0.5427490000000  0.4864220000000  0.4512010000000 1.0
C      1  0.4278070000000  0.4073990000000  0.4516930000000 1.0
C      1  0.5506990000000  0.5087780000000  0.5533380000000 1.0
C      1  0.4495820000000  0.5437370000000  0.5339000000000 1.0
C      1  0.4395690000000  0.5143040000000  0.4692960000000 1.0
C      1  0.5176480000000  0.5209180000000  0.5257690000000 1.0
C      1  0.5877220000000  0.5010510000000  0.4282360000000 1.0
C      1  0.5502190000000  0.5366350000000  0.5417610000000 1.0
C      1  0.4852130000000  0.4710250000000  0.4438860000000 1.0
C      1  0.5165130000000  0.5783220000000  0.5645330000000 1.0
C      1  0.6048960000000  0.5015070000000  0.4533340000000 1.0
C      1  0.4427960000000  0.4974760000000  0.3927750000000 1.0
C      1  0.5304630000000  0.5514840000000  0.5179280000000 1.0
C      1  0.4820240000000  0.5156680000000  0.5605900000000 1.0
C      1  0.4630170000000  0.4394590000000  0.5543950000000 1.0
C      1  0.4019550000000  0.5271010000000  0.4723800000000 1.0
C      1  0.4860190000000  0.4255780000000  0.4868050000000 1.0
C      1  0.6074570000000  0.4684720000000  0.5342720000000 1.0
C      1  0.5203540000000  0.5124700000000  0.3926460000000 1.0
C      1  0.5494020000000  0.5624160000000  0.5605180000000 1.0
C      1  0.4405790000000  0.4079490000000  0.4967370000000 1.0
C      1  0.5827950000000  0.5708840000000  0.4861700000000 1.0
C      1  0.5179230000000  0.4203180000000  0.4902440000000 1.0
C      1  0.4643900000000  0.5188570000000  0.5853090000000 1.0
C      1  0.4353720000000  0.4395180000000  0.5456610000000 1.0
C      1  0.5612800000000  0.5812090000000  0.5353180000000 1.0
C      1  0.4928110000000  0.5002320000000  0.4545670000000 1.0
C      1  0.4779290000000  0.4897430000000  0.5480530000000 1.0
C      1  0.4208400000000  0.4352200000000  0.4920480000000 1.0
C      1  0.4853050000000  0.5297660000000  0.4976170000000 1.0
C      1  0.5104320000000  0.5335140000000  0.4885590000000 1.0
C      1  0.4708190000000  0.4450840000000  0.5058620000000 1.0
C      1  0.3841710000000  0.4718880000000  0.5129110000000 1.0
C      1  0.4688270000000  0.5482250000000  0.4429360000000 1.0
C      1  0.4620450000000  0.4926990000000  0.5228040000000 1.0
C      1  0.4539380000000  0.4623550000000  0.4537080000000 1.0
C      1  0.4521390000000  0.5606430000000  0.5632980000000 1.0
C      1  0.5931100000000  0.5443820000000  0.4756970000000 1.0
C      1  0.4471880000000  0.6014010000000  0.4995780000000 1.0
C      1  0.4336280000000  0.4699680000000  0.4065810000000 1.0
C      1  0.5052350000000  0.5925380000000  0.4645160000000 1.0
C      1  0.4203700000000  0.4580570000000  0.4544680000000 1.0
C      1  0.4663790000000  0.4709970000000  0.4841610000000 1.0
C      1  0.5948310000000  0.4624620000000  0.4846420000000 1.0
C      1  0.5251910000000  0.5019730000000  0.6037840000000 1.0
C      1  0.4812160000000  0.5709250000000  0.4540740000000 1.0
C      1  0.5034400000000  0.3958300000000  0.5069060000000 1.0
C      1  0.5005590000000  0.4909620000000  0.6092050000000 1.0
C      1  0.4911790000000  0.4623990000000  0.5969910000000 1.0
C      1  0.4274410000000  0.5430700000000  0.5669020000000 1.0
C      1  0.5291230000000  0.5370140000000  0.4310390000000 1.0
C      1  0.5272020000000  0.4608850000000  0.5283940000000 1.0
C      1  0.5684760000000  0.5392390000000  0.5163040000000 1.0
C      1  0.4912530000000  0.5068620000000  0.4218800000000 1.0
C      1  0.4054770000000  0.5103850000000  0.4487670000000 1.0
C      1  0.5725110000000  0.5162630000000  0.4951740000000 1.0
C      1  0.5307550000000  0.4095580000000  0.5325950000000 1.0
C      1  0.4271860000000  0.5111620000000  0.4306890000000 1.0
C      1  0.4138380000000  0.5418810000000  0.5384450000000 1.0
C      1  0.4368940000000  0.5435600000000  0.4515810000000 1.0
C      1  0.4281600000000  0.4867410000000  0.4715370000000 1.0
C      1  0.5280590000000  0.5567330000000  0.5866930000000 1.0
C      1  0.4653920000000  0.5159620000000  0.4509100000000 1.0
C      1  0.5083090000000  0.4809650000000  0.4938360000000 1.0
C      1  0.5335850000000  0.6044650000000  0.5022050000000 1.0
C      1  0.4000980000000  0.4865250000000  0.5324340000000 1.0
C      1  0.6202520000000  0.5024370000000  0.5015520000000 1.0
C      1  0.5158310000000  0.4530000000000  0.4809830000000 1.0
C      1  0.4857530000000  0.4001820000000  0.5243150000000 1.0
C      1  0.5211990000000  0.4668930000000  0.5851130000000 1.0
C      1  0.6096370000000  0.5008600000000  0.5306660000000 1.0
C      1  0.4818100000000  0.4432580000000  0.6146160000000 1.0
C      1  0.5959710000000  0.4387060000000  0.4608530000000 1.0
C      1  0.4497490000000  0.4009220000000  0.4694470000000 1.0
C      1  0.5077100000000  0.4835510000000  0.3941590000000 1.0
C      1  0.5443030000000  0.6029220000000  0.5284460000000 1.0
C      1  0.4471110000000  0.5363990000000  0.4195320000000 1.0
C      1  0.5407850000000  0.4118310000000  0.4456980000000 1.0
C      1  0.5011110000000  0.5938140000000  0.4984380000000 1.0
C      1  0.5341000000000  0.4820510000000  0.5614440000000 1.0
C      1  0.5527800000000  0.5119250000000  0.4690560000000 1.0
C      1  0.4933910000000  0.4204190000000  0.4422910000000 1.0
C      1  0.4130940000000  0.4288380000000  0.4613330000000 1.0
C      1  0.4796660000000  0.5089390000000  0.6128970000000 1.0
C      1  0.4203490000000  0.5668990000000  0.5199130000000 1.0
C      1  0.4944310000000  0.5313150000000  0.3990920000000 1.0
C      1  0.5788170000000  0.4985310000000  0.5393110000000 1.0
C      1  0.4684570000000  0.5549420000000  0.5099430000000 1.0
C      1  0.5838760000000  0.4609170000000  0.5510150000000 1.0
C      1  0.5446920000000  0.4611390000000  0.4716190000000 1.0
C      1  0.5230350000000  0.5057880000000  0.4800860000000 1.0
C      1  0.5201170000000  0.6044050000000  0.5479980000000 1.0
C      1  0.5602120000000  0.5431700000000  0.4684030000000 1.0
C      1  0.5513630000000  0.4085530000000  0.5185350000000 1.0
C      1  0.5049210000000  0.4724570000000  0.5490500000000 1.0
C      1  0.4285760000000  0.5662320000000  0.4693940000000 1.0
C      1  0.3965840000000  0.4815000000000  0.4609710000000 1.0
C      1  0.4762860000000  0.5771490000000  0.4871350000000 1.0
C      1  0.5366890000000  0.4061940000000  0.4698090000000 1.0
C      1  0.5105080000000  0.6284130000000  0.5569710000000 1.0
C      1  0.5195630000000  0.4241180000000  0.5680200000000 1.0
C      1  0.5945820000000  0.4699950000000  0.4518980000000 1.0
C      1  0.5543300000000  0.5052810000000  0.5865180000000 1.0
C      1  0.4757540000000  0.4119860000000  0.4635670000000 1.0
C      1  0.4343050000000  0.4620070000000  0.4916790000000 1.0
C      1  0.4582140000000  0.4984140000000  0.4235980000000 1.0
C      1  0.5384440000000  0.4596860000000  0.4226450000000 1.0
C      1  0.4983210000000  0.5314200000000  0.5445010000000 1.0
C      1  0.4185300000000  0.5557100000000  0.4936920000000 1.0
C      1  0.5650040000000  0.4340990000000  0.4735140000000 1.0
END
