TITL C-2778428-5639-900 0.000938903184732181 125000 -330.859058513826 0 0 57 (C1) n - 1
REM
REM in /home/nfs/bkarasulu/CARBON/AIRSS/Generating-Clusters/REBO/Only-C1/SD-CG/HFTN-CG
REM
REM
REM
REM
REM
REM ./C.cell (11c1c37f851c82e70ff6c80c92926a4b)
REM
REM compiler GCC version 9.2.1 20190827 (Red Hat 9.2.1-1)
REM options -cpp -mtune=generic -march=x86-64 -g -O0 -fpre-include=/usr/include/finclude/math-vector-fortran.h
REM seed -895726881 2135809620 -30374341 928609286 166130638 882858485 -1879512466 1173344494 283641033 2115158290 -894108767 -693530879 -1757554662 -1616855867 -1330616932 -2122716852 1671294392 -1171408698 5504622 -84816705 -2089351980 -1562691168 -1918571822 868799080 -78631829 740796855 1645996707 1530615302 -526709285 626332265 2026607894 1406822735 -1829789472
REM
CELL 1.54180   50.00000   50.00000   50.00000   90.00000   90.00000   90.00000
LATT -1
SFAC C  
C      1  0.5333370000000  0.5724960000000  0.5515830000000 1.0
C      1  0.4610920000000  0.5275220000000  0.4609510000000 1.0
C      1  0.5224580000000  0.5029240000000  0.4662870000000 1.0
C      1  0.5562630000000  0.5414680000000  0.4838360000000 1.0
C      1  0.5765770000000  0.4428280000000  0.5025080000000 1.0
C      1  0.4951150000000  0.4387400000000  0.4817430000000 1.0
C      1  0.4457840000000  0.4565820000000  0.5196540000000 1.0
C      1  0.4632390000000  0.4415310000000  0.4404430000000 1.0
C      1  0.4913090000000  0.4599700000000  0.5529250000000 1.0
C      1  0.5061420000000  0.5199210000000  0.5488160000000 1.0
C      1  0.4833920000000  0.5197210000000  0.4927950000000 1.0
C      1  0.4124380000000  0.5482990000000  0.5507730000000 1.0
C      1  0.5251100000000  0.4765200000000  0.4802570000000 1.0
C      1  0.4632030000000  0.4792200000000  0.4710570000000 1.0
C      1  0.4432400000000  0.5203690000000  0.4833660000000 1.0
C      1  0.5660930000000  0.4925200000000  0.5217330000000 1.0
C      1  0.5306860000000  0.5243460000000  0.5665320000000 1.0
C      1  0.4727290000000  0.5006550000000  0.4498180000000 1.0
C      1  0.4300310000000  0.5303570000000  0.5412610000000 1.0
C      1  0.4808940000000  0.4845740000000  0.4220790000000 1.0
C      1  0.5063700000000  0.5552830000000  0.4691700000000 1.0
C      1  0.4776430000000  0.5520850000000  0.4610980000000 1.0
C      1  0.4612600000000  0.4391250000000  0.5020630000000 1.0
C      1  0.5176480000000  0.4513330000000  0.4708850000000 1.0
C      1  0.5099950000000  0.4952060000000  0.4107890000000 1.0
C      1  0.5270270000000  0.5761730000000  0.5246120000000 1.0
C      1  0.5297390000000  0.4926340000000  0.5653700000000 1.0
C      1  0.4926780000000  0.4343200000000  0.5121510000000 1.0
C      1  0.4652930000000  0.4657840000000  0.5390370000000 1.0
C      1  0.5695900000000  0.5111640000000  0.4929890000000 1.0
C      1  0.4796750000000  0.5080130000000  0.5597110000000 1.0
C      1  0.4724660000000  0.4942470000000  0.4982240000000 1.0
C      1  0.5109980000000  0.5210780000000  0.4890590000000 1.0
C      1  0.5008810000000  0.4841810000000  0.5657660000000 1.0
C      1  0.4822100000000  0.4842960000000  0.5225400000000 1.0
C      1  0.5050260000000  0.5015500000000  0.4428580000000 1.0
C      1  0.5389740000000  0.5510770000000  0.5677210000000 1.0
C      1  0.5591370000000  0.4600980000000  0.5142440000000 1.0
C      1  0.5518660000000  0.5146430000000  0.4640150000000 1.0
C      1  0.5241710000000  0.5195180000000  0.5136930000000 1.0
C      1  0.4641790000000  0.5755270000000  0.4559730000000 1.0
C      1  0.5081270000000  0.4440760000000  0.5353290000000 1.0
C      1  0.5307950000000  0.5415290000000  0.4608220000000 1.0
C      1  0.5356370000000  0.4513500000000  0.5367840000000 1.0
C      1  0.5125660000000  0.5670670000000  0.4953350000000 1.0
C      1  0.5260530000000  0.4967760000000  0.3907870000000 1.0
C      1  0.4359460000000  0.4899670000000  0.4826800000000 1.0
C      1  0.5104620000000  0.4940990000000  0.5282420000000 1.0
C      1  0.4694860000000  0.4568210000000  0.4215230000000 1.0
C      1  0.4665740000000  0.4488430000000  0.4702420000000 1.0
C      1  0.5515930000000  0.5217260000000  0.5182920000000 1.0
C      1  0.5465280000000  0.4791880000000  0.5464670000000 1.0
C      1  0.4394090000000  0.5110790000000  0.5160430000000 1.0
C      1  0.4565000000000  0.5135140000000  0.5454560000000 1.0
C      1  0.5425400000000  0.5587620000000  0.5036220000000 1.0
C      1  0.4302560000000  0.4788380000000  0.5099140000000 1.0
C      1  0.5315680000000  0.4784690000000  0.5080780000000 1.0
END
