TITL C-2778436-5916-783 2.74088974616182e-07 125000 -106.193658152705 0 0 20 (C1) n - 1
REM
REM in /home/nfs/bkarasulu/CARBON/AIRSS/Generating-Clusters/REBO/Only-C1/SD-CG/HFTN-CG
REM
REM
REM
REM
REM
REM ./C.cell (11c1c37f851c82e70ff6c80c92926a4b)
REM
REM compiler GCC version 9.2.1 20190827 (Red Hat 9.2.1-1)
REM options -cpp -mtune=generic -march=x86-64 -g -O0 -fpre-include=/usr/include/finclude/math-vector-fortran.h
REM seed -780260960 -1011663324 -1314060063 118292172 -1152448095 -1552380998 34122659 -111336292 622905697 56753773 314334346 1948218500 -531413434 104267936 -773437346 1565345769 150984196 -1616850076 -1586765277 177678878 -77849444 72117372 -1748757591 -816657708 1606643574 1018134644 -455565514 891926466 407933114 157750142 -1934814030 1741889164 -950621350
REM
CELL 1.54180   50.00000   50.00000   50.00000   90.00000   90.00000   90.00000
LATT -1
SFAC C  
C      1  0.5261780000000  0.5327330000000  0.4966690000000 1.0
C      1  0.5629160000000  0.5682250000000  0.4906680000000 1.0
C      1  0.5640840000000  0.4825520000000  0.5470500000000 1.0
C      1  0.4476120000000  0.4670210000000  0.5028590000000 1.0
C      1  0.5517560000000  0.4988720000000  0.5306640000000 1.0
C      1  0.4215750000000  0.4716370000000  0.5094870000000 1.0
C      1  0.4989090000000  0.5291890000000  0.4862620000000 1.0
C      1  0.4834700000000  0.4354520000000  0.4949820000000 1.0
C      1  0.5799210000000  0.5548790000000  0.5072960000000 1.0
C      1  0.4396480000000  0.4189660000000  0.5073420000000 1.0
C      1  0.5702290000000  0.5916660000000  0.4788010000000 1.0
C      1  0.4137780000000  0.4245950000000  0.5138760000000 1.0
C      1  0.5392290000000  0.5154570000000  0.5140140000000 1.0
C      1  0.4574890000000  0.4403750000000  0.5015800000000 1.0
C      1  0.5373060000000  0.5575940000000  0.4856540000000 1.0
C      1  0.4650430000000  0.4881460000000  0.4972190000000 1.0
C      1  0.4488320000000  0.3933150000000  0.5061970000000 1.0
C      1  0.4816440000000  0.5082650000000  0.4918480000000 1.0
C      1  0.4938250000000  0.5521230000000  0.4689450000000 1.0
C      1  0.5165550000000  0.5689350000000  0.4685870000000 1.0
END
