TITL C-2778429-3646-1314 -0.000955294816828523 125000 -616.875333043293 0 0 108 (C1) n - 1
REM
REM in /home/nfs/bkarasulu/CARBON/AIRSS/Generating-Clusters/REBO/Only-C1/SD-CG/HFTN-CG
REM
REM
REM
REM
REM
REM ./C.cell (11c1c37f851c82e70ff6c80c92926a4b)
REM
REM compiler GCC version 9.2.1 20190827 (Red Hat 9.2.1-1)
REM options -cpp -mtune=generic -march=x86-64 -g -O0 -fpre-include=/usr/include/finclude/math-vector-fortran.h
REM seed -927134026 1500524319 225614481 -2100718107 -1491588937 -1493437444 -539231722 1569868999 1550337109 1844320501 1531585713 -2143445541 1322074439 -847126844 -871101187 1686841541 156625353 1686135716 -279032109 -1225816196 -1788781095 385673424 1640008106 889923882 -1981991874 890922728 -474329020 511648553 1621019722 -1168559359 -869349414 -612918120 -1210622956
REM
CELL 1.54180   50.00000   50.00000   50.00000   90.00000   90.00000   90.00000
LATT -1
SFAC C  
C      1  0.5486030000000  0.5647380000000  0.5214790000000 1.0
C      1  0.4733790000000  0.4610860000000  0.5107220000000 1.0
C      1  0.4239970000000  0.4489980000000  0.5417960000000 1.0
C      1  0.4978520000000  0.4352360000000  0.4759140000000 1.0
C      1  0.5320730000000  0.4262360000000  0.4573820000000 1.0
C      1  0.4467850000000  0.4969960000000  0.5005700000000 1.0
C      1  0.5254770000000  0.5105940000000  0.5823110000000 1.0
C      1  0.4127330000000  0.4883110000000  0.4820830000000 1.0
C      1  0.4673360000000  0.4867210000000  0.5844620000000 1.0
C      1  0.5612240000000  0.5253600000000  0.5731510000000 1.0
C      1  0.5218300000000  0.4824530000000  0.4916340000000 1.0
C      1  0.4683130000000  0.4985640000000  0.4457970000000 1.0
C      1  0.5768180000000  0.4275210000000  0.5001670000000 1.0
C      1  0.5331820000000  0.4573600000000  0.4439640000000 1.0
C      1  0.5191810000000  0.4199770000000  0.5224020000000 1.0
C      1  0.5863250000000  0.5190650000000  0.4616000000000 1.0
C      1  0.5007570000000  0.5271680000000  0.4956860000000 1.0
C      1  0.4241790000000  0.5234980000000  0.5460160000000 1.0
C      1  0.4700380000000  0.5216640000000  0.4965010000000 1.0
C      1  0.4434480000000  0.5594550000000  0.4548270000000 1.0
C      1  0.4880170000000  0.4859810000000  0.4949150000000 1.0
C      1  0.4541800000000  0.5225440000000  0.4141670000000 1.0
C      1  0.4782410000000  0.5122900000000  0.5943450000000 1.0
C      1  0.5808110000000  0.4934550000000  0.4460760000000 1.0
C      1  0.4282470000000  0.5320790000000  0.4609420000000 1.0
C      1  0.4989310000000  0.5819710000000  0.5187230000000 1.0
C      1  0.5676630000000  0.5695130000000  0.5451790000000 1.0
C      1  0.4604400000000  0.4434700000000  0.4868020000000 1.0
C      1  0.4588290000000  0.5249140000000  0.5260900000000 1.0
C      1  0.5054870000000  0.5588800000000  0.4476120000000 1.0
C      1  0.5238410000000  0.4667430000000  0.5431150000000 1.0
C      1  0.3959650000000  0.4744220000000  0.5052010000000 1.0
C      1  0.5635740000000  0.4688820000000  0.4334300000000 1.0
C      1  0.4834790000000  0.5296590000000  0.5448720000000 1.0
C      1  0.4694930000000  0.4586700000000  0.5817780000000 1.0
C      1  0.5012520000000  0.5195590000000  0.4397510000000 1.0
C      1  0.5576960000000  0.4224820000000  0.4795330000000 1.0
C      1  0.5954400000000  0.4352180000000  0.5253170000000 1.0
C      1  0.5418160000000  0.5239390000000  0.4414350000000 1.0
C      1  0.4294840000000  0.4401600000000  0.5110640000000 1.0
C      1  0.3992270000000  0.4615720000000  0.5260870000000 1.0
C      1  0.5392540000000  0.4486510000000  0.5746940000000 1.0
C      1  0.4965770000000  0.4823190000000  0.5546410000000 1.0
C      1  0.5454840000000  0.4868660000000  0.4789140000000 1.0
C      1  0.5105890000000  0.5064400000000  0.4114020000000 1.0
C      1  0.4660440000000  0.5746610000000  0.5473010000000 1.0
C      1  0.4936150000000  0.4889270000000  0.4641680000000 1.0
C      1  0.5140590000000  0.5139900000000  0.4683550000000 1.0
C      1  0.4822830000000  0.5715840000000  0.4364420000000 1.0
C      1  0.4919540000000  0.4485880000000  0.5582740000000 1.0
C      1  0.4804120000000  0.5125810000000  0.4105050000000 1.0
C      1  0.4745070000000  0.4356310000000  0.4250410000000 1.0
C      1  0.4581500000000  0.5529670000000  0.4248620000000 1.0
C      1  0.4704230000000  0.5906460000000  0.4530000000000 1.0
C      1  0.4633880000000  0.5424800000000  0.4767200000000 1.0
C      1  0.5042690000000  0.4600480000000  0.4543070000000 1.0
C      1  0.5099080000000  0.5269360000000  0.5279890000000 1.0
C      1  0.5557990000000  0.5611980000000  0.4895060000000 1.0
C      1  0.5058060000000  0.4694090000000  0.5179560000000 1.0
C      1  0.4754730000000  0.4201410000000  0.4045160000000 1.0
C      1  0.5960460000000  0.5050080000000  0.5047940000000 1.0
C      1  0.4238190000000  0.5197330000000  0.4892430000000 1.0
C      1  0.5570700000000  0.5129770000000  0.5066890000000 1.0
C      1  0.5623100000000  0.4405990000000  0.4510900000000 1.0
C      1  0.5042060000000  0.5109190000000  0.6027820000000 1.0
C      1  0.5129560000000  0.5613530000000  0.5602800000000 1.0
C      1  0.4562070000000  0.4211350000000  0.5109020000000 1.0
C      1  0.5384200000000  0.5260530000000  0.4823240000000 1.0
C      1  0.4898140000000  0.4249070000000  0.5072960000000 1.0
C      1  0.4712420000000  0.5012540000000  0.5557170000000 1.0
C      1  0.5704360000000  0.5364500000000  0.4772250000000 1.0
C      1  0.5603930000000  0.5647880000000  0.5689030000000 1.0
C      1  0.4870120000000  0.5745530000000  0.4956960000000 1.0
C      1  0.5718880000000  0.4836290000000  0.4977630000000 1.0
C      1  0.5215940000000  0.4343570000000  0.5493000000000 1.0
C      1  0.4501510000000  0.4641580000000  0.4544670000000 1.0
C      1  0.5794920000000  0.4577460000000  0.5081890000000 1.0
C      1  0.5535230000000  0.4775310000000  0.4050380000000 1.0
C      1  0.4418060000000  0.5373110000000  0.5652080000000 1.0
C      1  0.5538720000000  0.5036370000000  0.5551840000000 1.0
C      1  0.4491540000000  0.4945540000000  0.5343770000000 1.0
C      1  0.5515760000000  0.5006490000000  0.4544440000000 1.0
C      1  0.4695990000000  0.4362270000000  0.4575140000000 1.0
C      1  0.4854350000000  0.5630660000000  0.5663270000000 1.0
C      1  0.4428120000000  0.5581480000000  0.5408660000000 1.0
C      1  0.5198250000000  0.5715870000000  0.5347700000000 1.0
C      1  0.4523880000000  0.4445260000000  0.5588100000000 1.0
C      1  0.5336550000000  0.5678850000000  0.4744830000000 1.0
C      1  0.5255080000000  0.4215430000000  0.4902440000000 1.0
C      1  0.4715480000000  0.5354590000000  0.5763860000000 1.0
C      1  0.5380630000000  0.4797020000000  0.5715000000000 1.0
C      1  0.5202220000000  0.5060190000000  0.5482200000000 1.0
C      1  0.4775530000000  0.4676850000000  0.4346870000000 1.0
C      1  0.5319400000000  0.4932360000000  0.4010090000000 1.0
C      1  0.5348040000000  0.5449740000000  0.5763240000000 1.0
C      1  0.4297110000000  0.5382960000000  0.5159610000000 1.0
C      1  0.5352690000000  0.5366930000000  0.5134050000000 1.0
C      1  0.4597100000000  0.5763390000000  0.4798230000000 1.0
C      1  0.4371520000000  0.5104660000000  0.4402530000000 1.0
C      1  0.5044870000000  0.5554060000000  0.4798710000000 1.0
C      1  0.4326450000000  0.4837500000000  0.4565850000000 1.0
C      1  0.4528530000000  0.4646860000000  0.5320810000000 1.0
C      1  0.4720650000000  0.5324090000000  0.4481640000000 1.0
C      1  0.4740060000000  0.4307970000000  0.5369910000000 1.0
C      1  0.4368530000000  0.4665050000000  0.4923250000000 1.0
C      1  0.6041670000000  0.5088850000000  0.5336790000000 1.0
C      1  0.5292590000000  0.5477430000000  0.4368130000000 1.0
C      1  0.5718520000000  0.5031990000000  0.5325070000000 1.0
END
