TITL C-2778435-5768-98 0.00517202734933565 125000 -596.948696816238 0 0 103 (C1) n - 1
REM
REM in /home/nfs/bkarasulu/CARBON/AIRSS/Generating-Clusters/REBO/Only-C1/SD-CG/HFTN-CG
REM
REM
REM
REM
REM
REM ./C.cell (11c1c37f851c82e70ff6c80c92926a4b)
REM
REM compiler GCC version 9.2.1 20190827 (Red Hat 9.2.1-1)
REM options -cpp -mtune=generic -march=x86-64 -g -O0 -fpre-include=/usr/include/finclude/math-vector-fortran.h
REM seed 734431307 1060727764 1262514230 -2047601534 -662940422 292257949 -479932565 -856371547 -1770248475 1961097565 156311058 -1457624766 1124748080 216434406 -937449635 -1205718469 1681237943 -1470472517 -1277409800 -1472852984 -412388098 1804059168 1268632482 -1397329942 640347483 684120627 -1405045495 -1407848237 980606524 1811592239 -393613493 1025804914 -1580595693
REM
CELL 1.54180   50.00000   50.00000   50.00000   90.00000   90.00000   90.00000
LATT -1
SFAC C  
C      1  0.4909410000000  0.4667850000000  0.5944220000000 1.0
C      1  0.5396990000000  0.4414750000000  0.5505850000000 1.0
C      1  0.5555480000000  0.5546220000000  0.4661900000000 1.0
C      1  0.4365820000000  0.4525630000000  0.5337720000000 1.0
C      1  0.5078400000000  0.4601200000000  0.5658940000000 1.0
C      1  0.5339270000000  0.5064140000000  0.4400690000000 1.0
C      1  0.5075070000000  0.5797060000000  0.4785050000000 1.0
C      1  0.4629490000000  0.5201150000000  0.4329640000000 1.0
C      1  0.5871980000000  0.4808710000000  0.5546430000000 1.0
C      1  0.5321630000000  0.4569310000000  0.4721860000000 1.0
C      1  0.5742670000000  0.4580840000000  0.4949080000000 1.0
C      1  0.5809670000000  0.5532740000000  0.5492330000000 1.0
C      1  0.4531880000000  0.4890150000000  0.4336420000000 1.0
C      1  0.5681670000000  0.5496550000000  0.4978840000000 1.0
C      1  0.4904520000000  0.5284890000000  0.4313820000000 1.0
C      1  0.5189850000000  0.5333550000000  0.5239690000000 1.0
C      1  0.4943540000000  0.5519440000000  0.4097890000000 1.0
C      1  0.5239070000000  0.4327660000000  0.5028970000000 1.0
C      1  0.5462420000000  0.4565170000000  0.5141410000000 1.0
C      1  0.4941710000000  0.5071660000000  0.4947700000000 1.0
C      1  0.5086140000000  0.4780300000000  0.3999950000000 1.0
C      1  0.5349750000000  0.5425610000000  0.4979500000000 1.0
C      1  0.4587200000000  0.5665760000000  0.4828740000000 1.0
C      1  0.4501190000000  0.5112720000000  0.5570780000000 1.0
C      1  0.4764840000000  0.4249270000000  0.5027220000000 1.0
C      1  0.5465750000000  0.5134100000000  0.5247620000000 1.0
C      1  0.3783390000000  0.4941710000000  0.5201950000000 1.0
C      1  0.4956650000000  0.5462090000000  0.5023950000000 1.0
C      1  0.5098280000000  0.5061140000000  0.4719520000000 1.0
C      1  0.4533380000000  0.4365310000000  0.4896160000000 1.0
C      1  0.4874200000000  0.5675060000000  0.4392680000000 1.0
C      1  0.5153810000000  0.4341400000000  0.5337170000000 1.0
C      1  0.5058690000000  0.5300370000000  0.4560350000000 1.0
C      1  0.4368010000000  0.5030110000000  0.4576630000000 1.0
C      1  0.4540400000000  0.5047320000000  0.4868560000000 1.0
C      1  0.5204860000000  0.4468350000000  0.4464160000000 1.0
C      1  0.4286520000000  0.5053610000000  0.5306800000000 1.0
C      1  0.4896460000000  0.5045620000000  0.5265060000000 1.0
C      1  0.4994690000000  0.4285480000000  0.4856020000000 1.0
C      1  0.5389660000000  0.4823850000000  0.5311850000000 1.0
C      1  0.4796850000000  0.4826550000000  0.4169790000000 1.0
C      1  0.5651320000000  0.4921290000000  0.4429980000000 1.0
C      1  0.5121170000000  0.6049130000000  0.4961110000000 1.0
C      1  0.5632220000000  0.4610930000000  0.4369160000000 1.0
C      1  0.4250880000000  0.5336580000000  0.4675470000000 1.0
C      1  0.5009850000000  0.5394710000000  0.5493870000000 1.0
C      1  0.5187240000000  0.5576980000000  0.4302950000000 1.0
C      1  0.5113890000000  0.4794400000000  0.5177210000000 1.0
C      1  0.5274800000000  0.4583590000000  0.3992930000000 1.0
C      1  0.4854100000000  0.6077670000000  0.5123770000000 1.0
C      1  0.5702440000000  0.4933300000000  0.5091130000000 1.0
C      1  0.4784090000000  0.4894310000000  0.6015810000000 1.0
C      1  0.4666990000000  0.4782400000000  0.4949500000000 1.0
C      1  0.5133900000000  0.4688820000000  0.4893450000000 1.0
C      1  0.4153910000000  0.4677510000000  0.4921620000000 1.0
C      1  0.4880460000000  0.4716120000000  0.4777440000000 1.0
C      1  0.4780350000000  0.4449730000000  0.5717940000000 1.0
C      1  0.5870040000000  0.5704670000000  0.5683240000000 1.0
C      1  0.5214630000000  0.5544470000000  0.4710640000000 1.0
C      1  0.5558330000000  0.5205600000000  0.4865140000000 1.0
C      1  0.4929300000000  0.4598570000000  0.5352400000000 1.0
C      1  0.4895130000000  0.4940480000000  0.5555920000000 1.0
C      1  0.4739090000000  0.6229940000000  0.5308950000000 1.0
C      1  0.5390620000000  0.4972330000000  0.4723590000000 1.0
C      1  0.4634240000000  0.5618080000000  0.4544260000000 1.0
C      1  0.5640170000000  0.4472370000000  0.4645090000000 1.0
C      1  0.5740120000000  0.5334690000000  0.5272420000000 1.0
C      1  0.4388210000000  0.5472010000000  0.4935590000000 1.0
C      1  0.4594300000000  0.4451170000000  0.4624590000000 1.0
C      1  0.5110470000000  0.5000270000000  0.5720060000000 1.0
C      1  0.4688100000000  0.4761650000000  0.5625920000000 1.0
C      1  0.4174380000000  0.4686440000000  0.4639690000000 1.0
C      1  0.4423880000000  0.4641250000000  0.4506310000000 1.0
C      1  0.5095780000000  0.4934640000000  0.4298050000000 1.0
C      1  0.4688470000000  0.5308600000000  0.5275640000000 1.0
C      1  0.4686080000000  0.4238860000000  0.5534900000000 1.0
C      1  0.6088180000000  0.4804250000000  0.5711570000000 1.0
C      1  0.4776550000000  0.5579080000000  0.5377340000000 1.0
C      1  0.5702300000000  0.4849200000000  0.4761390000000 1.0
C      1  0.4324920000000  0.4493740000000  0.5037460000000 1.0
C      1  0.5386710000000  0.4514210000000  0.4245510000000 1.0
C      1  0.4474950000000  0.5396290000000  0.4457220000000 1.0
C      1  0.4412800000000  0.4798060000000  0.5479320000000 1.0
C      1  0.4692190000000  0.5830950000000  0.5393600000000 1.0
C      1  0.5662830000000  0.5238810000000  0.4548050000000 1.0
C      1  0.4744490000000  0.5302230000000  0.4882190000000 1.0
C      1  0.4430600000000  0.5297870000000  0.5160370000000 1.0
C      1  0.4661890000000  0.5094400000000  0.5869950000000 1.0
C      1  0.4416600000000  0.4265550000000  0.5486670000000 1.0
C      1  0.5543610000000  0.4306820000000  0.4925480000000 1.0
C      1  0.5363360000000  0.4730200000000  0.5625670000000 1.0
C      1  0.5668480000000  0.4612240000000  0.5561310000000 1.0
C      1  0.4792590000000  0.5829360000000  0.4935470000000 1.0
C      1  0.4771740000000  0.5303110000000  0.5664220000000 1.0
C      1  0.4069270000000  0.4931210000000  0.5109980000000 1.0
C      1  0.5929990000000  0.5875390000000  0.5872810000000 1.0
C      1  0.4202360000000  0.5070540000000  0.4871990000000 1.0
C      1  0.5405550000000  0.5399370000000  0.4391290000000 1.0
C      1  0.5831210000000  0.5018370000000  0.5359040000000 1.0
C      1  0.4893880000000  0.4718940000000  0.4470190000000 1.0
C      1  0.4656090000000  0.4642820000000  0.5204850000000 1.0
C      1  0.4848630000000  0.4211180000000  0.5304980000000 1.0
C      1  0.4908000000000  0.4387870000000  0.4553440000000 1.0
END
