TITL C-2778435-5768-99 0.0190873621677033 125000 -879.865581181541 0 0 150 (C1) n - 1
REM
REM in /home/nfs/bkarasulu/CARBON/AIRSS/Generating-Clusters/REBO/Only-C1/SD-CG/HFTN-CG
REM
REM
REM
REM
REM
REM ./C.cell (11c1c37f851c82e70ff6c80c92926a4b)
REM
REM compiler GCC version 9.2.1 20190827 (Red Hat 9.2.1-1)
REM options -cpp -mtune=generic -march=x86-64 -g -O0 -fpre-include=/usr/include/finclude/math-vector-fortran.h
REM seed -1068077749 -2098692117 -524572928 2074608101 -1530492589 -115614687 -1737384023 -1848709025 1020564610 1115112636 141604742 1092075028 655627121 1125074493 1613621275 1854863775 -820583929 1092215797 1700215100 745116643 -1981895040 481450462 -2042841551 -1809167921 57952692 699538168 -1223944121 -1151905882 1815336227 927574133 -521109587 1271416611 1233122938
REM
CELL 1.54180   50.00000   50.00000   50.00000   90.00000   90.00000   90.00000
LATT -1
SFAC C  
C      1  0.5446780000000  0.5838740000000  0.5419550000000 1.0
C      1  0.5519830000000  0.5038960000000  0.4523280000000 1.0
C      1  0.5201090000000  0.5053410000000  0.5556490000000 1.0
C      1  0.5697650000000  0.4789600000000  0.5052600000000 1.0
C      1  0.4600780000000  0.5285820000000  0.5372420000000 1.0
C      1  0.4326890000000  0.4831610000000  0.4897640000000 1.0
C      1  0.5932920000000  0.4726250000000  0.4812950000000 1.0
C      1  0.5102100000000  0.5044750000000  0.4632260000000 1.0
C      1  0.4265380000000  0.5007650000000  0.4319590000000 1.0
C      1  0.4681130000000  0.4313810000000  0.5450070000000 1.0
C      1  0.5271080000000  0.5062880000000  0.4992640000000 1.0
C      1  0.4640490000000  0.5033560000000  0.5474760000000 1.0
C      1  0.4477200000000  0.5759700000000  0.4437570000000 1.0
C      1  0.4439720000000  0.5666550000000  0.5493030000000 1.0
C      1  0.4408540000000  0.5219410000000  0.5767640000000 1.0
C      1  0.5048740000000  0.4310090000000  0.5746200000000 1.0
C      1  0.4748580000000  0.4846610000000  0.4412300000000 1.0
C      1  0.5158490000000  0.5132580000000  0.4097700000000 1.0
C      1  0.4776290000000  0.5641820000000  0.4497740000000 1.0
C      1  0.4428790000000  0.4624990000000  0.5131170000000 1.0
C      1  0.4374250000000  0.5683880000000  0.5188830000000 1.0
C      1  0.4792180000000  0.4956430000000  0.4025630000000 1.0
C      1  0.4336740000000  0.4174610000000  0.5002880000000 1.0
C      1  0.5012550000000  0.3922610000000  0.4947960000000 1.0
C      1  0.6085930000000  0.4710940000000  0.5102100000000 1.0
C      1  0.5507820000000  0.4453120000000  0.4303500000000 1.0
C      1  0.5597190000000  0.5730630000000  0.5624280000000 1.0
C      1  0.4061120000000  0.4893830000000  0.4735010000000 1.0
C      1  0.4191420000000  0.4333880000000  0.5448720000000 1.0
C      1  0.5509460000000  0.5158660000000  0.4780670000000 1.0
C      1  0.4955260000000  0.5109240000000  0.4355080000000 1.0
C      1  0.5424580000000  0.4996050000000  0.4047870000000 1.0
C      1  0.5570140000000  0.4168180000000  0.5550590000000 1.0
C      1  0.5195720000000  0.4544760000000  0.5944750000000 1.0
C      1  0.5525290000000  0.5450250000000  0.4285790000000 1.0
C      1  0.5362300000000  0.5527030000000  0.4730020000000 1.0
C      1  0.5043150000000  0.3988980000000  0.4675680000000 1.0
C      1  0.4833970000000  0.5727950000000  0.5798260000000 1.0
C      1  0.5033360000000  0.4127410000000  0.5458630000000 1.0
C      1  0.4466750000000  0.4282220000000  0.4764720000000 1.0
C      1  0.5176910000000  0.4075990000000  0.5150080000000 1.0
C      1  0.5387050000000  0.4239160000000  0.4469160000000 1.0
C      1  0.4399930000000  0.4896700000000  0.5308070000000 1.0
C      1  0.5137350000000  0.5372860000000  0.4593190000000 1.0
C      1  0.4636180000000  0.4541730000000  0.4788480000000 1.0
C      1  0.5517910000000  0.4715860000000  0.4456140000000 1.0
C      1  0.4592090000000  0.4986420000000  0.4750110000000 1.0
C      1  0.5563560000000  0.5081260000000  0.5167920000000 1.0
C      1  0.6058330000000  0.5184710000000  0.4563790000000 1.0
C      1  0.5265850000000  0.4570480000000  0.5235790000000 1.0
C      1  0.5190990000000  0.4797330000000  0.4438250000000 1.0
C      1  0.5486260000000  0.4451840000000  0.5086000000000 1.0
C      1  0.5368390000000  0.4340420000000  0.5647920000000 1.0
C      1  0.5822690000000  0.4779760000000  0.4503900000000 1.0
C      1  0.5737470000000  0.5489500000000  0.5143830000000 1.0
C      1  0.5311830000000  0.4792960000000  0.5955640000000 1.0
C      1  0.6045810000000  0.4535200000000  0.4576470000000 1.0
C      1  0.5684690000000  0.4240470000000  0.5260660000000 1.0
C      1  0.4358220000000  0.5855930000000  0.4918640000000 1.0
C      1  0.4589940000000  0.5201470000000  0.4486570000000 1.0
C      1  0.4632400000000  0.4264940000000  0.4501060000000 1.0
C      1  0.5729530000000  0.5033990000000  0.5928240000000 1.0
C      1  0.5367190000000  0.5348910000000  0.5926870000000 1.0
C      1  0.4211830000000  0.4492330000000  0.5725000000000 1.0
C      1  0.3979240000000  0.5298890000000  0.4898500000000 1.0
C      1  0.3939000000000  0.5107360000000  0.5148150000000 1.0
C      1  0.4314820000000  0.5661540000000  0.4693380000000 1.0
C      1  0.4620500000000  0.4484620000000  0.4303520000000 1.0
C      1  0.4818040000000  0.5400600000000  0.4330130000000 1.0
C      1  0.4974520000000  0.5482440000000  0.4060260000000 1.0
C      1  0.5989930000000  0.5196370000000  0.4841420000000 1.0
C      1  0.5236720000000  0.5577430000000  0.5115160000000 1.0
C      1  0.4622670000000  0.5564940000000  0.4986440000000 1.0
C      1  0.4344170000000  0.4729300000000  0.5804840000000 1.0
C      1  0.5270060000000  0.5893520000000  0.5044590000000 1.0
C      1  0.5943310000000  0.4902570000000  0.5346870000000 1.0
C      1  0.4917530000000  0.4202770000000  0.4542940000000 1.0
C      1  0.4866510000000  0.5497230000000  0.4757500000000 1.0
C      1  0.5425240000000  0.5397020000000  0.5134250000000 1.0
C      1  0.5603730000000  0.5580140000000  0.4528450000000 1.0
C      1  0.5403710000000  0.4603210000000  0.5504330000000 1.0
C      1  0.4104040000000  0.5333760000000  0.5431890000000 1.0
C      1  0.5894890000000  0.5047200000000  0.4391130000000 1.0
C      1  0.4282600000000  0.5168520000000  0.4922260000000 1.0
C      1  0.5244150000000  0.5332460000000  0.5622770000000 1.0
C      1  0.4935970000000  0.4924840000000  0.5540360000000 1.0
C      1  0.4255650000000  0.4381210000000  0.5182150000000 1.0
C      1  0.5729530000000  0.5309290000000  0.4884700000000 1.0
C      1  0.4653310000000  0.4951850000000  0.5085880000000 1.0
C      1  0.4758260000000  0.3929060000000  0.5036110000000 1.0
C      1  0.4264260000000  0.4979130000000  0.5701190000000 1.0
C      1  0.5077200000000  0.4486410000000  0.4518190000000 1.0
C      1  0.4679710000000  0.5184780000000  0.5842610000000 1.0
C      1  0.4728400000000  0.4533880000000  0.5229460000000 1.0
C      1  0.5703810000000  0.4689220000000  0.5465780000000 1.0
C      1  0.4860490000000  0.5396830000000  0.5764120000000 1.0
C      1  0.4727620000000  0.4024030000000  0.5345990000000 1.0
C      1  0.5004200000000  0.4769060000000  0.4153390000000 1.0
C      1  0.4886610000000  0.4814100000000  0.5250380000000 1.0
C      1  0.4736480000000  0.5959860000000  0.4535780000000 1.0
C      1  0.5104650000000  0.5559310000000  0.5920670000000 1.0
C      1  0.5166730000000  0.5785910000000  0.5448590000000 1.0
C      1  0.4899130000000  0.4994170000000  0.4863520000000 1.0
C      1  0.5452830000000  0.4129740000000  0.5037760000000 1.0
C      1  0.5054900000000  0.5548710000000  0.5524250000000 1.0
C      1  0.4880570000000  0.4492170000000  0.4170900000000 1.0
C      1  0.4306630000000  0.5440470000000  0.5609910000000 1.0
C      1  0.4468670000000  0.3949980000000  0.5132180000000 1.0
C      1  0.4440100000000  0.4264640000000  0.5670110000000 1.0
C      1  0.4277540000000  0.5504310000000  0.4333940000000 1.0
C      1  0.4125020000000  0.5463320000000  0.5144080000000 1.0
C      1  0.4121170000000  0.5009200000000  0.5405690000000 1.0
C      1  0.4626760000000  0.4688310000000  0.5855380000000 1.0
C      1  0.5606630000000  0.5696300000000  0.4829940000000 1.0
C      1  0.4455180000000  0.4780520000000  0.4303600000000 1.0
C      1  0.5845700000000  0.4531690000000  0.5233740000000 1.0
C      1  0.5464020000000  0.4271770000000  0.4734410000000 1.0
C      1  0.5371830000000  0.4485860000000  0.4043290000000 1.0
C      1  0.4689270000000  0.5793200000000  0.5551380000000 1.0
C      1  0.5464800000000  0.5062820000000  0.6015710000000 1.0
C      1  0.4469570000000  0.5365130000000  0.4755220000000 1.0
C      1  0.5749930000000  0.4975070000000  0.5618860000000 1.0
C      1  0.4611150000000  0.5115340000000  0.4151960000000 1.0
C      1  0.4100630000000  0.5408670000000  0.4608490000000 1.0
C      1  0.4786420000000  0.4916170000000  0.5823760000000 1.0
C      1  0.4090730000000  0.5079510000000  0.4537140000000 1.0
C      1  0.4414910000000  0.5289800000000  0.5185980000000 1.0
C      1  0.4825330000000  0.4654970000000  0.4621610000000 1.0
C      1  0.4953640000000  0.6018710000000  0.5042870000000 1.0
C      1  0.4735290000000  0.4405020000000  0.5766270000000 1.0
C      1  0.5412270000000  0.4745570000000  0.3941810000000 1.0
C      1  0.5214780000000  0.5408260000000  0.4289640000000 1.0
C      1  0.4922740000000  0.6080420000000  0.4707800000000 1.0
C      1  0.5691380000000  0.5285720000000  0.5409150000000 1.0
C      1  0.5026460000000  0.5274830000000  0.4962630000000 1.0
C      1  0.5215530000000  0.6026810000000  0.4745550000000 1.0
C      1  0.6068890000000  0.5041430000000  0.5061630000000 1.0
C      1  0.5559340000000  0.5425420000000  0.5654460000000 1.0
C      1  0.4344180000000  0.5272930000000  0.4180150000000 1.0
C      1  0.4920730000000  0.5534760000000  0.5148820000000 1.0
C      1  0.4996900000000  0.5278290000000  0.3836100000000 1.0
C      1  0.5575670000000  0.5788510000000  0.5134990000000 1.0
C      1  0.5028080000000  0.4372390000000  0.5236040000000 1.0
C      1  0.5144900000000  0.4310070000000  0.4232310000000 1.0
C      1  0.4619250000000  0.5961530000000  0.5037990000000 1.0
C      1  0.5635380000000  0.5159900000000  0.4232880000000 1.0
C      1  0.4809480000000  0.5816560000000  0.5272230000000 1.0
C      1  0.5417130000000  0.4879240000000  0.5663960000000 1.0
C      1  0.5154040000000  0.4816020000000  0.5113250000000 1.0
C      1  0.5562210000000  0.4585450000000  0.4812110000000 1.0
END
