TITL C-2778432-5617-210 0.000223038600252238 125000 -266.240654219474 0 0 47 (C1) n - 1
REM
REM in /home/nfs/bkarasulu/CARBON/AIRSS/Generating-Clusters/REBO/Only-C1/SD-CG/HFTN-CG
REM
REM
REM
REM
REM
REM ./C.cell (11c1c37f851c82e70ff6c80c92926a4b)
REM
REM compiler GCC version 9.2.1 20190827 (Red Hat 9.2.1-1)
REM options -cpp -mtune=generic -march=x86-64 -g -O0 -fpre-include=/usr/include/finclude/math-vector-fortran.h
REM seed -2147234041 -334053225 720133791 311208128 1163095082 -1262391541 972801471 -1326157291 1412582906 985090628 -748807738 399699928 505372648 313803082 -2086982471 -891115236 -1414689536 1559818042 1180496508 1121764307 1112809330 1320957976 -1892351364 -493045399 1775573173 -112961242 315145141 997515182 1956261819 -424019610 -70350472 616304848 681853468
REM
CELL 1.54180   50.00000   50.00000   50.00000   90.00000   90.00000   90.00000
LATT -1
SFAC C  
C      1  0.4712840000000  0.5274360000000  0.4460880000000 1.0
C      1  0.4826590000000  0.4985610000000  0.4867660000000 1.0
C      1  0.5175350000000  0.4855590000000  0.4467710000000 1.0
C      1  0.5387900000000  0.5250750000000  0.4738110000000 1.0
C      1  0.4831930000000  0.4390750000000  0.4860610000000 1.0
C      1  0.5058020000000  0.4531710000000  0.4665040000000 1.0
C      1  0.4369670000000  0.5205090000000  0.4771600000000 1.0
C      1  0.4993390000000  0.5280770000000  0.5248550000000 1.0
C      1  0.5194150000000  0.5293760000000  0.5702010000000 1.0
C      1  0.5321410000000  0.5668850000000  0.5257610000000 1.0
C      1  0.4746790000000  0.5114190000000  0.5138070000000 1.0
C      1  0.4838730000000  0.4716320000000  0.4847150000000 1.0
C      1  0.4615530000000  0.5450190000000  0.5308380000000 1.0
C      1  0.4667370000000  0.4973970000000  0.5417640000000 1.0
C      1  0.4776320000000  0.4720920000000  0.5475460000000 1.0
C      1  0.4400970000000  0.4078470000000  0.4342340000000 1.0
C      1  0.5774960000000  0.5260900000000  0.5061250000000 1.0
C      1  0.5506530000000  0.4743580000000  0.4838540000000 1.0
C      1  0.4647840000000  0.4212520000000  0.4744560000000 1.0
C      1  0.4543220000000  0.4261820000000  0.4482930000000 1.0
C      1  0.4559250000000  0.4781350000000  0.4561760000000 1.0
C      1  0.4919150000000  0.5322200000000  0.5675080000000 1.0
C      1  0.4633520000000  0.4531840000000  0.5608800000000 1.0
C      1  0.4452040000000  0.5341440000000  0.4533490000000 1.0
C      1  0.5237450000000  0.5498200000000  0.4820570000000 1.0
C      1  0.4761180000000  0.5515970000000  0.5023900000000 1.0
C      1  0.5560440000000  0.5213690000000  0.5262600000000 1.0
C      1  0.4874020000000  0.4718760000000  0.4449040000000 1.0
C      1  0.4883460000000  0.5206180000000  0.4682430000000 1.0
C      1  0.5360830000000  0.5691030000000  0.4985590000000 1.0
C      1  0.4391950000000  0.4924530000000  0.4727400000000 1.0
C      1  0.5346160000000  0.4658300000000  0.4628120000000 1.0
C      1  0.5156070000000  0.5469350000000  0.5344840000000 1.0
C      1  0.5399590000000  0.5042380000000  0.5718390000000 1.0
C      1  0.5036840000000  0.4684830000000  0.5397140000000 1.0
C      1  0.5260470000000  0.5111780000000  0.4493310000000 1.0
C      1  0.4693520000000  0.5263640000000  0.5511870000000 1.0
C      1  0.5335540000000  0.4533910000000  0.5386820000000 1.0
C      1  0.5437440000000  0.5037980000000  0.4996640000000 1.0
C      1  0.5702330000000  0.5261380000000  0.4796910000000 1.0
C      1  0.5262510000000  0.4898580000000  0.5254300000000 1.0
C      1  0.5452950000000  0.4656000000000  0.5113290000000 1.0
C      1  0.4961600000000  0.5446670000000  0.4835210000000 1.0
C      1  0.5467040000000  0.5282700000000  0.5514310000000 1.0
C      1  0.4606370000000  0.4519980000000  0.4388430000000 1.0
C      1  0.5368310000000  0.4809590000000  0.5568960000000 1.0
C      1  0.4490460000000  0.5307640000000  0.5024680000000 1.0
END
