TITL C-2778425-5191-1477 0.00411233782982741 125000 -543.338846278157 0 0 94 (C1) n - 1
REM
REM in /home/nfs/bkarasulu/CARBON/AIRSS/Generating-Clusters/REBO/Only-C1/SD-CG/HFTN-CG
REM
REM
REM
REM
REM
REM ./C.cell (11c1c37f851c82e70ff6c80c92926a4b)
REM
REM compiler GCC version 9.2.1 20190827 (Red Hat 9.2.1-1)
REM options -cpp -mtune=generic -march=x86-64 -g -O0 -fpre-include=/usr/include/finclude/math-vector-fortran.h
REM seed 2134592375 -1726436939 -546717153 -1513760844 762115712 -580241763 -1481397242 653598253 -495839887 1031538551 -1190026538 -910292821 932894106 486578063 -1549864371 -873045967 862801852 -1121856939 -2145783 -383245180 -1696723616 188283113 -1446916569 -1738579785 2109328473 1757039041 -746280599 -615175163 -1060886098 1965234961 -1951564849 -1005732628 1720356098
REM
CELL 1.54180   50.00000   50.00000   50.00000   90.00000   90.00000   90.00000
LATT -1
SFAC C  
C      1  0.4943870000000  0.4506660000000  0.4809840000000 1.0
C      1  0.4325600000000  0.5643130000000  0.4641190000000 1.0
C      1  0.5189530000000  0.5734560000000  0.5057510000000 1.0
C      1  0.4936180000000  0.5270220000000  0.5057660000000 1.0
C      1  0.5384580000000  0.4424340000000  0.5432780000000 1.0
C      1  0.5078250000000  0.4936980000000  0.4472450000000 1.0
C      1  0.5733350000000  0.5292680000000  0.4310210000000 1.0
C      1  0.4706540000000  0.4978290000000  0.5315060000000 1.0
C      1  0.5226780000000  0.4189910000000  0.5024110000000 1.0
C      1  0.4715420000000  0.4309110000000  0.5107810000000 1.0
C      1  0.5354010000000  0.4892150000000  0.5267360000000 1.0
C      1  0.4154380000000  0.5359140000000  0.5257180000000 1.0
C      1  0.6018950000000  0.5087550000000  0.4831770000000 1.0
C      1  0.5275190000000  0.5266290000000  0.5700220000000 1.0
C      1  0.4466140000000  0.4657570000000  0.4546320000000 1.0
C      1  0.4897140000000  0.4309910000000  0.5367270000000 1.0
C      1  0.4254530000000  0.4809650000000  0.5667620000000 1.0
C      1  0.5174270000000  0.4243870000000  0.5303390000000 1.0
C      1  0.5762270000000  0.4829850000000  0.4579520000000 1.0
C      1  0.5259210000000  0.4729070000000  0.4183330000000 1.0
C      1  0.5349960000000  0.5713000000000  0.4538730000000 1.0
C      1  0.5754590000000  0.4802010000000  0.5462880000000 1.0
C      1  0.4839560000000  0.5473200000000  0.5520580000000 1.0
C      1  0.5163220000000  0.5460360000000  0.5534310000000 1.0
C      1  0.4769320000000  0.4940270000000  0.4219290000000 1.0
C      1  0.4967470000000  0.5298560000000  0.4737270000000 1.0
C      1  0.4884250000000  0.5204520000000  0.4247660000000 1.0
C      1  0.4102950000000  0.5513120000000  0.4778190000000 1.0
C      1  0.5013080000000  0.4733690000000  0.4641850000000 1.0
C      1  0.4998180000000  0.5439370000000  0.4360600000000 1.0
C      1  0.5545190000000  0.5464340000000  0.4814440000000 1.0
C      1  0.6052630000000  0.4968720000000  0.5050690000000 1.0
C      1  0.5525410000000  0.5162700000000  0.4734590000000 1.0
C      1  0.5573510000000  0.5025170000000  0.5044020000000 1.0
C      1  0.4649000000000  0.5719210000000  0.4715410000000 1.0
C      1  0.4871470000000  0.4455920000000  0.4391860000000 1.0
C      1  0.4431130000000  0.4692610000000  0.4937760000000 1.0
C      1  0.4441300000000  0.4980800000000  0.4662240000000 1.0
C      1  0.4479670000000  0.5515270000000  0.4911050000000 1.0
C      1  0.4635500000000  0.5334360000000  0.5117750000000 1.0
C      1  0.5379120000000  0.4510120000000  0.4654170000000 1.0
C      1  0.4637410000000  0.4427230000000  0.4565420000000 1.0
C      1  0.4329660000000  0.5271250000000  0.5535120000000 1.0
C      1  0.4547060000000  0.5462660000000  0.5408400000000 1.0
C      1  0.5742950000000  0.4789240000000  0.4875280000000 1.0
C      1  0.4559560000000  0.4949650000000  0.5963660000000 1.0
C      1  0.4755850000000  0.5165480000000  0.5575770000000 1.0
C      1  0.4137360000000  0.5322650000000  0.4986260000000 1.0
C      1  0.5387560000000  0.4850210000000  0.4707680000000 1.0
C      1  0.4511080000000  0.5150330000000  0.5775790000000 1.0
C      1  0.4519010000000  0.4900730000000  0.4347900000000 1.0
C      1  0.4771650000000  0.4721740000000  0.5851570000000 1.0
C      1  0.5586140000000  0.4846860000000  0.5755510000000 1.0
C      1  0.5453900000000  0.5303610000000  0.4257950000000 1.0
C      1  0.5440320000000  0.5530680000000  0.5071430000000 1.0
C      1  0.4999870000000  0.4973190000000  0.5151630000000 1.0
C      1  0.5581890000000  0.5091290000000  0.5516960000000 1.0
C      1  0.4665620000000  0.4226600000000  0.4800700000000 1.0
C      1  0.5028260000000  0.5706480000000  0.5357880000000 1.0
C      1  0.4909090000000  0.5904710000000  0.5131330000000 1.0
C      1  0.5821290000000  0.5142850000000  0.4567840000000 1.0
C      1  0.5332170000000  0.4578350000000  0.5152600000000 1.0
C      1  0.4871510000000  0.4508590000000  0.5608100000000 1.0
C      1  0.4256710000000  0.5047110000000  0.4890980000000 1.0
C      1  0.5158860000000  0.5740110000000  0.4739360000000 1.0
C      1  0.4744400000000  0.5067600000000  0.4771050000000 1.0
C      1  0.4656140000000  0.5855100000000  0.5017980000000 1.0
C      1  0.4958240000000  0.4897180000000  0.5627300000000 1.0
C      1  0.4696950000000  0.4803560000000  0.4912000000000 1.0
C      1  0.4196830000000  0.4988550000000  0.5400390000000 1.0
C      1  0.4392470000000  0.4586680000000  0.5222520000000 1.0
C      1  0.4998930000000  0.4204210000000  0.4847670000000 1.0
C      1  0.4587770000000  0.4690460000000  0.5396080000000 1.0
C      1  0.5511250000000  0.5256960000000  0.5260990000000 1.0
C      1  0.4435680000000  0.5086590000000  0.5176820000000 1.0
C      1  0.5218260000000  0.5195250000000  0.4587110000000 1.0
C      1  0.5554150000000  0.4560710000000  0.5600510000000 1.0
C      1  0.5453640000000  0.4380750000000  0.4914870000000 1.0
C      1  0.5497440000000  0.4718910000000  0.4415110000000 1.0
C      1  0.4159030000000  0.4809020000000  0.5113360000000 1.0
C      1  0.5174000000000  0.4799450000000  0.4946300000000 1.0
C      1  0.4986140000000  0.4699430000000  0.5360980000000 1.0
C      1  0.4504600000000  0.4689160000000  0.5666190000000 1.0
C      1  0.5191940000000  0.5369860000000  0.5221640000000 1.0
C      1  0.4465110000000  0.5685960000000  0.5196850000000 1.0
C      1  0.5884840000000  0.4745790000000  0.5211100000000 1.0
C      1  0.4857210000000  0.4604890000000  0.5100450000000 1.0
C      1  0.5309410000000  0.5043710000000  0.4262430000000 1.0
C      1  0.5282530000000  0.5513560000000  0.4339700000000 1.0
C      1  0.5258020000000  0.4982860000000  0.5580780000000 1.0
C      1  0.5184420000000  0.4472600000000  0.4394720000000 1.0
C      1  0.4928520000000  0.4696800000000  0.4192270000000 1.0
C      1  0.4900400000000  0.5594990000000  0.4633560000000 1.0
C      1  0.5724210000000  0.4509560000000  0.5026170000000 1.0
END
