TITL C-2778422-5617-842 -0.00368518769457537 125000 -483.5635517071 0 0 85 (C1) n - 1
REM
REM in /home/nfs/bkarasulu/CARBON/AIRSS/Generating-Clusters/REBO/Only-C1/SD-CG/HFTN-CG
REM
REM
REM
REM
REM
REM ./C.cell (11c1c37f851c82e70ff6c80c92926a4b)
REM
REM compiler GCC version 9.2.1 20190827 (Red Hat 9.2.1-1)
REM options -cpp -mtune=generic -march=x86-64 -g -O0 -fpre-include=/usr/include/finclude/math-vector-fortran.h
REM seed 1006764490 983077305 -1246117691 2033993615 -1699116612 998592283 784160054 1077463746 126264761 384750528 570192477 -1287590097 -301530102 -1568953633 -501493741 958348038 -1785482387 2097865343 344644887 986253248 1304405571 252974247 -779328243 723476483 11698807 -1865117060 1153050675 157578747 -260771610 -976590382 -1850269278 -152591799 -2048479801
REM
CELL 1.54180   50.00000   50.00000   50.00000   90.00000   90.00000   90.00000
LATT -1
SFAC C  
C      1  0.4715660000000  0.5495970000000  0.5625450000000 1.0
C      1  0.4359030000000  0.5119040000000  0.4614850000000 1.0
C      1  0.4750900000000  0.5685430000000  0.5368350000000 1.0
C      1  0.5297650000000  0.4825390000000  0.4247910000000 1.0
C      1  0.5290110000000  0.4690730000000  0.4837420000000 1.0
C      1  0.4252970000000  0.4627670000000  0.5316500000000 1.0
C      1  0.5079550000000  0.5444850000000  0.4892870000000 1.0
C      1  0.5287930000000  0.5613520000000  0.5612930000000 1.0
C      1  0.5220480000000  0.5731090000000  0.5129710000000 1.0
C      1  0.5489130000000  0.4349140000000  0.4894960000000 1.0
C      1  0.4940270000000  0.5214780000000  0.4717580000000 1.0
C      1  0.4183190000000  0.4869780000000  0.4766200000000 1.0
C      1  0.4915480000000  0.4791280000000  0.5747490000000 1.0
C      1  0.5604180000000  0.4519520000000  0.5308930000000 1.0
C      1  0.5239230000000  0.4389170000000  0.4683980000000 1.0
C      1  0.5204000000000  0.5274190000000  0.4547360000000 1.0
C      1  0.4429880000000  0.4525110000000  0.4846340000000 1.0
C      1  0.4568210000000  0.5303300000000  0.4438170000000 1.0
C      1  0.4510900000000  0.4487110000000  0.5489620000000 1.0
C      1  0.5458710000000  0.5423960000000  0.5046360000000 1.0
C      1  0.5457600000000  0.5605590000000  0.5340610000000 1.0
C      1  0.5641220000000  0.5343960000000  0.5390170000000 1.0
C      1  0.5335160000000  0.5749380000000  0.4851260000000 1.0
C      1  0.5582680000000  0.4998190000000  0.4323070000000 1.0
C      1  0.4807890000000  0.4715290000000  0.5164510000000 1.0
C      1  0.5792240000000  0.4746620000000  0.4900700000000 1.0
C      1  0.4476520000000  0.5517280000000  0.5410660000000 1.0
C      1  0.4633020000000  0.4837670000000  0.5726790000000 1.0
C      1  0.4194190000000  0.4874500000000  0.5109530000000 1.0
C      1  0.5057750000000  0.5064790000000  0.5621010000000 1.0
C      1  0.5214190000000  0.5333210000000  0.5502910000000 1.0
C      1  0.5737810000000  0.4820590000000  0.4572360000000 1.0
C      1  0.5683030000000  0.4502090000000  0.5029000000000 1.0
C      1  0.4741690000000  0.4580450000000  0.5441890000000 1.0
C      1  0.5168610000000  0.5372830000000  0.5199930000000 1.0
C      1  0.4399110000000  0.4796930000000  0.4505790000000 1.0
C      1  0.4462850000000  0.4912080000000  0.4937560000000 1.0
C      1  0.5865390000000  0.5255230000000  0.5155680000000 1.0
C      1  0.5419730000000  0.4704220000000  0.4524800000000 1.0
C      1  0.5122960000000  0.4305160000000  0.5321510000000 1.0
C      1  0.4509760000000  0.4494270000000  0.4539120000000 1.0
C      1  0.4678320000000  0.4752440000000  0.4788630000000 1.0
C      1  0.4570190000000  0.5022480000000  0.5471580000000 1.0
C      1  0.4287340000000  0.5399390000000  0.5191360000000 1.0
C      1  0.4773390000000  0.4389740000000  0.4653410000000 1.0
C      1  0.5024240000000  0.4881240000000  0.5374030000000 1.0
C      1  0.4865500000000  0.4208270000000  0.5366150000000 1.0
C      1  0.5195490000000  0.4780410000000  0.5095200000000 1.0
C      1  0.5815590000000  0.4972080000000  0.5068190000000 1.0
C      1  0.4905300000000  0.5706910000000  0.5136120000000 1.0
C      1  0.5003290000000  0.5051620000000  0.5077060000000 1.0
C      1  0.4569660000000  0.5327840000000  0.5071300000000 1.0
C      1  0.4611680000000  0.5003230000000  0.4336270000000 1.0
C      1  0.4961050000000  0.5592490000000  0.4437510000000 1.0
C      1  0.4662730000000  0.4296390000000  0.5172870000000 1.0
C      1  0.4414320000000  0.4425580000000  0.5107430000000 1.0
C      1  0.4862930000000  0.4755710000000  0.4522980000000 1.0
C      1  0.5668590000000  0.5440460000000  0.4575510000000 1.0
C      1  0.4910440000000  0.4925270000000  0.4242900000000 1.0
C      1  0.5461730000000  0.5130090000000  0.5585650000000 1.0
C      1  0.5595630000000  0.5011470000000  0.5312780000000 1.0
C      1  0.4754350000000  0.5534250000000  0.4887270000000 1.0
C      1  0.4890100000000  0.5313810000000  0.5735610000000 1.0
C      1  0.5040310000000  0.4612000000000  0.4271320000000 1.0
C      1  0.5483020000000  0.4951360000000  0.4754120000000 1.0
C      1  0.5504420000000  0.5270390000000  0.4384580000000 1.0
C      1  0.5603450000000  0.5614340000000  0.4811120000000 1.0
C      1  0.4639970000000  0.5161510000000  0.4803620000000 1.0
C      1  0.4133640000000  0.5127970000000  0.5237610000000 1.0
C      1  0.4957650000000  0.4908280000000  0.4791840000000 1.0
C      1  0.4707710000000  0.5062640000000  0.5211670000000 1.0
C      1  0.5389100000000  0.4898070000000  0.5769600000000 1.0
C      1  0.5454320000000  0.5246740000000  0.4777190000000 1.0
C      1  0.5310250000000  0.4487650000000  0.5481330000000 1.0
C      1  0.4860630000000  0.4444860000000  0.4961670000000 1.0
C      1  0.5059600000000  0.5442080000000  0.4215100000000 1.0
C      1  0.4715830000000  0.5506980000000  0.4562570000000 1.0
C      1  0.5406670000000  0.4773740000000  0.5327390000000 1.0
C      1  0.4133420000000  0.5590780000000  0.5055320000000 1.0
C      1  0.5143120000000  0.5666910000000  0.4643100000000 1.0
C      1  0.5015190000000  0.4388710000000  0.4495060000000 1.0
C      1  0.5169650000000  0.4343980000000  0.5014620000000 1.0
C      1  0.5204330000000  0.4702330000000  0.5704780000000 1.0
C      1  0.5150140000000  0.5132010000000  0.4247370000000 1.0
C      1  0.4334820000000  0.4834140000000  0.5567440000000 1.0
END
