TITL C-2778426-5645-1158 -0.0018946236501705 125000 -678.4040149434 0 0 119 (C1) n - 1
REM
REM in /home/nfs/bkarasulu/CARBON/AIRSS/Generating-Clusters/REBO/Only-C1/SD-CG/HFTN-CG
REM
REM
REM
REM
REM
REM ./C.cell (11c1c37f851c82e70ff6c80c92926a4b)
REM
REM compiler GCC version 9.2.1 20190827 (Red Hat 9.2.1-1)
REM options -cpp -mtune=generic -march=x86-64 -g -O0 -fpre-include=/usr/include/finclude/math-vector-fortran.h
REM seed 525929426 -2035572225 -218971848 -1705438641 1553437256 -890627989 1854540364 1777224530 -1952998706 -1703018829 1497731497 1317848431 -963422290 -733989697 1675830078 36039210 -1138009705 1854922332 -475448884 -1806933497 -1002589462 -183601359 1712437458 76690024 46323301 1827681522 994914887 758338233 763712702 -2027390713 -2103249416 384182810 1743363233
REM
CELL 1.54180   50.00000   50.00000   50.00000   90.00000   90.00000   90.00000
LATT -1
SFAC C  
C      1  0.4561880000000  0.4361590000000  0.5506820000000 1.0
C      1  0.4513120000000  0.4694460000000  0.5569720000000 1.0
C      1  0.5957060000000  0.4899620000000  0.5097810000000 1.0
C      1  0.4935840000000  0.5521130000000  0.5735400000000 1.0
C      1  0.5195750000000  0.5162700000000  0.4150200000000 1.0
C      1  0.5339600000000  0.5803250000000  0.4474480000000 1.0
C      1  0.5093330000000  0.4261470000000  0.5546860000000 1.0
C      1  0.5474130000000  0.5095420000000  0.4821160000000 1.0
C      1  0.4817120000000  0.4085660000000  0.5146550000000 1.0
C      1  0.4677510000000  0.5541710000000  0.5024400000000 1.0
C      1  0.5283310000000  0.4203010000000  0.5282080000000 1.0
C      1  0.5389620000000  0.5147390000000  0.5119330000000 1.0
C      1  0.5242680000000  0.4830920000000  0.4572610000000 1.0
C      1  0.4772050000000  0.5719600000000  0.4385910000000 1.0
C      1  0.5310000000000  0.5463800000000  0.4885770000000 1.0
C      1  0.4426100000000  0.4466990000000  0.5253750000000 1.0
C      1  0.4859500000000  0.4498600000000  0.5599820000000 1.0
C      1  0.5196720000000  0.5389150000000  0.5260220000000 1.0
C      1  0.5115400000000  0.4262790000000  0.4816940000000 1.0
C      1  0.4482940000000  0.5651330000000  0.5501790000000 1.0
C      1  0.4656740000000  0.4616440000000  0.5051480000000 1.0
C      1  0.4400690000000  0.4317170000000  0.4984590000000 1.0
C      1  0.5437650000000  0.4596290000000  0.4655980000000 1.0
C      1  0.5549510000000  0.5746470000000  0.5031720000000 1.0
C      1  0.4282290000000  0.4548280000000  0.4836030000000 1.0
C      1  0.4657880000000  0.5435650000000  0.5322760000000 1.0
C      1  0.4625130000000  0.5355520000000  0.4793800000000 1.0
C      1  0.5005940000000  0.4700300000000  0.4146130000000 1.0
C      1  0.4967470000000  0.5263990000000  0.5856290000000 1.0
C      1  0.5053480000000  0.5236660000000  0.4924420000000 1.0
C      1  0.4686540000000  0.4146050000000  0.4647300000000 1.0
C      1  0.5253200000000  0.5241240000000  0.4662210000000 1.0
C      1  0.4961590000000  0.4200260000000  0.4592680000000 1.0
C      1  0.5308300000000  0.5794180000000  0.4797820000000 1.0
C      1  0.4185100000000  0.4646480000000  0.5299610000000 1.0
C      1  0.5347750000000  0.5307490000000  0.5555500000000 1.0
C      1  0.4941080000000  0.5448640000000  0.5439090000000 1.0
C      1  0.4257840000000  0.5332280000000  0.4627410000000 1.0
C      1  0.5292000000000  0.4622490000000  0.5358850000000 1.0
C      1  0.5238540000000  0.4471570000000  0.4214790000000 1.0
C      1  0.5635150000000  0.5184370000000  0.4467880000000 1.0
C      1  0.5658320000000  0.4247050000000  0.4481960000000 1.0
C      1  0.5011210000000  0.5897040000000  0.5228130000000 1.0
C      1  0.4110150000000  0.5189000000000  0.5470150000000 1.0
C      1  0.5098730000000  0.4120350000000  0.5072720000000 1.0
C      1  0.4527040000000  0.5069270000000  0.4437350000000 1.0
C      1  0.4757940000000  0.4813510000000  0.5380940000000 1.0
C      1  0.5484980000000  0.4405080000000  0.4934360000000 1.0
C      1  0.4775190000000  0.6046170000000  0.5048850000000 1.0
C      1  0.5822040000000  0.4613090000000  0.5224600000000 1.0
C      1  0.5626600000000  0.5082000000000  0.5314800000000 1.0
C      1  0.5127830000000  0.5349610000000  0.4412450000000 1.0
C      1  0.5570160000000  0.5643600000000  0.5291050000000 1.0
C      1  0.4768090000000  0.5435800000000  0.4261400000000 1.0
C      1  0.4992550000000  0.4377530000000  0.4376260000000 1.0
C      1  0.4596470000000  0.5731120000000  0.4660770000000 1.0
C      1  0.4276240000000  0.5323920000000  0.5723930000000 1.0
C      1  0.5075780000000  0.5637180000000  0.4464940000000 1.0
C      1  0.4953030000000  0.4981670000000  0.5552260000000 1.0
C      1  0.4262180000000  0.5479430000000  0.5359380000000 1.0
C      1  0.4640820000000  0.5323720000000  0.4512710000000 1.0
C      1  0.4955660000000  0.4677750000000  0.4482840000000 1.0
C      1  0.4999350000000  0.5601680000000  0.5075960000000 1.0
C      1  0.5356530000000  0.5709740000000  0.5485230000000 1.0
C      1  0.4140540000000  0.4731430000000  0.5010910000000 1.0
C      1  0.5176500000000  0.4511840000000  0.5052930000000 1.0
C      1  0.4924730000000  0.5691690000000  0.4750690000000 1.0
C      1  0.5578180000000  0.4370280000000  0.5251360000000 1.0
C      1  0.5625720000000  0.4823750000000  0.4751260000000 1.0
C      1  0.5078210000000  0.5816210000000  0.5508720000000 1.0
C      1  0.5564460000000  0.5689180000000  0.4363830000000 1.0
C      1  0.5540030000000  0.4784460000000  0.5189790000000 1.0
C      1  0.5612650000000  0.5376290000000  0.5582700000000 1.0
C      1  0.5654820000000  0.4580150000000  0.5513890000000 1.0
C      1  0.4242000000000  0.5321530000000  0.5106350000000 1.0
C      1  0.4449320000000  0.5135280000000  0.4918130000000 1.0
C      1  0.4949460000000  0.5075750000000  0.4465030000000 1.0
C      1  0.4094980000000  0.4822750000000  0.4614750000000 1.0
C      1  0.5352080000000  0.4699550000000  0.5745770000000 1.0
C      1  0.5224540000000  0.5172740000000  0.5774870000000 1.0
C      1  0.4747680000000  0.4750700000000  0.5802060000000 1.0
C      1  0.4725490000000  0.5088910000000  0.5758180000000 1.0
C      1  0.4236450000000  0.4873440000000  0.5510960000000 1.0
C      1  0.4146800000000  0.5014470000000  0.5149680000000 1.0
C      1  0.4337320000000  0.5564380000000  0.4612170000000 1.0
C      1  0.4652570000000  0.4950850000000  0.5096690000000 1.0
C      1  0.5625760000000  0.5553060000000  0.4800830000000 1.0
C      1  0.4477700000000  0.4614560000000  0.4607550000000 1.0
C      1  0.5780270000000  0.5189290000000  0.4777380000000 1.0
C      1  0.5679430000000  0.5485610000000  0.4528580000000 1.0
C      1  0.4528540000000  0.5237320000000  0.5570720000000 1.0
C      1  0.4520240000000  0.4308240000000  0.4475740000000 1.0
C      1  0.4570200000000  0.5849310000000  0.4965920000000 1.0
C      1  0.5540380000000  0.4895300000000  0.5571600000000 1.0
C      1  0.5245250000000  0.4845930000000  0.5030890000000 1.0
C      1  0.5066900000000  0.5955960000000  0.4905320000000 1.0
C      1  0.5376810000000  0.4407080000000  0.5609260000000 1.0
C      1  0.4449530000000  0.5056400000000  0.5316570000000 1.0
C      1  0.5013230000000  0.5043060000000  0.5180280000000 1.0
C      1  0.5903690000000  0.5180220000000  0.5044570000000 1.0
C      1  0.4754880000000  0.4916030000000  0.4232360000000 1.0
C      1  0.5083220000000  0.4777960000000  0.5777130000000 1.0
C      1  0.5878910000000  0.4743580000000  0.4851530000000 1.0
C      1  0.4982570000000  0.4962720000000  0.4755000000000 1.0
C      1  0.4760900000000  0.5756770000000  0.5617460000000 1.0
C      1  0.5780500000000  0.5374870000000  0.5295340000000 1.0
C      1  0.5729580000000  0.4300070000000  0.4753380000000 1.0
C      1  0.4540600000000  0.4657360000000  0.4286080000000 1.0
C      1  0.5235960000000  0.4937090000000  0.5419510000000 1.0
C      1  0.4794470000000  0.4150590000000  0.5426120000000 1.0
C      1  0.4903550000000  0.4531330000000  0.5258480000000 1.0
C      1  0.4297250000000  0.5002200000000  0.4652490000000 1.0
C      1  0.5398330000000  0.5032830000000  0.4357110000000 1.0
C      1  0.4883020000000  0.5212120000000  0.4099360000000 1.0
C      1  0.4526990000000  0.4381180000000  0.4171950000000 1.0
C      1  0.4615950000000  0.4138970000000  0.4929150000000 1.0
C      1  0.5951280000000  0.4473290000000  0.4800260000000 1.0
C      1  0.4747940000000  0.4716470000000  0.4749270000000 1.0
C      1  0.5467180000000  0.4439900000000  0.4381130000000 1.0
END
