TITL C-2778426-5645-1294 -0.00524534268194672 125000 -1173.18790727816 0 0 199 (C1) n - 1
REM
REM in /home/nfs/bkarasulu/CARBON/AIRSS/Generating-Clusters/REBO/Only-C1/SD-CG/HFTN-CG
REM
REM
REM
REM
REM
REM ./C.cell (11c1c37f851c82e70ff6c80c92926a4b)
REM
REM compiler GCC version 9.2.1 20190827 (Red Hat 9.2.1-1)
REM options -cpp -mtune=generic -march=x86-64 -g -O0 -fpre-include=/usr/include/finclude/math-vector-fortran.h
REM seed 221331413 -1848840899 -103442839 207562373 1396564966 -1286740809 -244253390 567052415 647904745 -501626016 -1005134346 1330047016 -1347457720 -257018775 2055841918 2037052471 1581927771 539560973 -743591968 1611821061 657102087 1542605806 1635470853 -45059016 1944532538 -838931022 -1101378185 1285027714 541346032 648013266 -912065320 382605682 2055326632
REM
CELL 1.54180   50.00000   50.00000   50.00000   90.00000   90.00000   90.00000
LATT -1
SFAC C  
C      1  0.4270640000000  0.4086450000000  0.4791620000000 1.0
C      1  0.5121350000000  0.5423060000000  0.5992400000000 1.0
C      1  0.4832900000000  0.5833290000000  0.4152340000000 1.0
C      1  0.4504670000000  0.5407200000000  0.4188420000000 1.0
C      1  0.5353430000000  0.5380670000000  0.5215270000000 1.0
C      1  0.5613360000000  0.5997530000000  0.4908900000000 1.0
C      1  0.5540160000000  0.4062520000000  0.4985320000000 1.0
C      1  0.6066190000000  0.4697790000000  0.4530160000000 1.0
C      1  0.5212640000000  0.4667400000000  0.5092280000000 1.0
C      1  0.5946080000000  0.4276380000000  0.5441520000000 1.0
C      1  0.4448000000000  0.4823080000000  0.4476230000000 1.0
C      1  0.4649200000000  0.5341080000000  0.5950370000000 1.0
C      1  0.4553190000000  0.5835870000000  0.5323560000000 1.0
C      1  0.4915130000000  0.4982580000000  0.6128380000000 1.0
C      1  0.5985560000000  0.5276440000000  0.4294150000000 1.0
C      1  0.4515080000000  0.4119140000000  0.5203610000000 1.0
C      1  0.5865570000000  0.5834090000000  0.4986340000000 1.0
C      1  0.5501280000000  0.5854630000000  0.4629830000000 1.0
C      1  0.5072990000000  0.5308210000000  0.4940060000000 1.0
C      1  0.4978860000000  0.5919140000000  0.5040550000000 1.0
C      1  0.4803170000000  0.4957120000000  0.4160850000000 1.0
C      1  0.4087880000000  0.4429500000000  0.5769870000000 1.0
C      1  0.5337830000000  0.3960710000000  0.5587110000000 1.0
C      1  0.4382740000000  0.5234000000000  0.5988650000000 1.0
C      1  0.4323610000000  0.4113330000000  0.5674500000000 1.0
C      1  0.5135990000000  0.4492760000000  0.4238230000000 1.0
C      1  0.6095860000000  0.4810400000000  0.5319940000000 1.0
C      1  0.5493950000000  0.5636280000000  0.5353780000000 1.0
C      1  0.4616850000000  0.5633340000000  0.4008360000000 1.0
C      1  0.4943040000000  0.4537190000000  0.4827700000000 1.0
C      1  0.4742350000000  0.5510520000000  0.4859770000000 1.0
C      1  0.4264830000000  0.5171130000000  0.4548540000000 1.0
C      1  0.4194910000000  0.5074220000000  0.5053310000000 1.0
C      1  0.4700470000000  0.5950530000000  0.4844950000000 1.0
C      1  0.4325770000000  0.4141580000000  0.4257340000000 1.0
C      1  0.5403630000000  0.5718360000000  0.5733670000000 1.0
C      1  0.4178980000000  0.5864260000000  0.5190550000000 1.0
C      1  0.4626270000000  0.4869560000000  0.6167270000000 1.0
C      1  0.5134650000000  0.4980900000000  0.5155580000000 1.0
C      1  0.4215420000000  0.5683090000000  0.4917310000000 1.0
C      1  0.4529860000000  0.3876060000000  0.4789490000000 1.0
C      1  0.4564470000000  0.4413400000000  0.5028810000000 1.0
C      1  0.5533470000000  0.5111650000000  0.5450230000000 1.0
C      1  0.5347320000000  0.4926710000000  0.3961530000000 1.0
C      1  0.5118550000000  0.3951880000000  0.4813010000000 1.0
C      1  0.4777740000000  0.4156550000000  0.5630980000000 1.0
C      1  0.4075530000000  0.5034080000000  0.5635070000000 1.0
C      1  0.4590400000000  0.5983490000000  0.4548070000000 1.0
C      1  0.5079320000000  0.5178160000000  0.5680750000000 1.0
C      1  0.4870290000000  0.4771440000000  0.3911310000000 1.0
C      1  0.6077330000000  0.5687930000000  0.4864080000000 1.0
C      1  0.5036250000000  0.5685580000000  0.5889710000000 1.0
C      1  0.5931490000000  0.5250630000000  0.5488190000000 1.0
C      1  0.5288710000000  0.4756570000000  0.4246570000000 1.0
C      1  0.5614710000000  0.5737920000000  0.4385940000000 1.0
C      1  0.5135000000000  0.3944950000000  0.5332670000000 1.0
C      1  0.4332940000000  0.5239770000000  0.5389680000000 1.0
C      1  0.4724710000000  0.3914730000000  0.4526970000000 1.0
C      1  0.5099610000000  0.5033240000000  0.4312920000000 1.0
C      1  0.3960070000000  0.4866240000000  0.4973820000000 1.0
C      1  0.5063200000000  0.4379270000000  0.5080030000000 1.0
C      1  0.5277920000000  0.6022630000000  0.4914890000000 1.0
C      1  0.5675020000000  0.5827040000000  0.5559880000000 1.0
C      1  0.4756740000000  0.5603790000000  0.5186500000000 1.0
C      1  0.5464610000000  0.4116590000000  0.5731570000000 1.0
C      1  0.5021680000000  0.4188660000000  0.5499690000000 1.0
C      1  0.4370450000000  0.5004900000000  0.3906760000000 1.0
C      1  0.5927660000000  0.5518850000000  0.4127310000000 1.0
C      1  0.4931290000000  0.5539560000000  0.5473490000000 1.0
C      1  0.4015220000000  0.5071110000000  0.4696320000000 1.0
C      1  0.5123270000000  0.4450160000000  0.5468670000000 1.0
C      1  0.5352520000000  0.4919420000000  0.4905700000000 1.0
C      1  0.4892120000000  0.5266950000000  0.6081820000000 1.0
C      1  0.4251680000000  0.5764320000000  0.5465160000000 1.0
C      1  0.4228290000000  0.5396570000000  0.4980900000000 1.0
C      1  0.4547120000000  0.5111840000000  0.4071990000000 1.0
C      1  0.4525670000000  0.5276520000000  0.4962640000000 1.0
C      1  0.6142660000000  0.4727390000000  0.4812610000000 1.0
C      1  0.5863610000000  0.5014740000000  0.4662450000000 1.0
C      1  0.4223180000000  0.4390060000000  0.4335870000000 1.0
C      1  0.4252560000000  0.4969250000000  0.4301110000000 1.0
C      1  0.5808260000000  0.4530000000000  0.4112100000000 1.0
C      1  0.4941030000000  0.4072850000000  0.4460150000000 1.0
C      1  0.4617560000000  0.5178170000000  0.5500170000000 1.0
C      1  0.4898600000000  0.4855640000000  0.4938810000000 1.0
C      1  0.4942490000000  0.5869860000000  0.5694640000000 1.0
C      1  0.4409120000000  0.4523790000000  0.4552290000000 1.0
C      1  0.5318950000000  0.4562850000000  0.5624050000000 1.0
C      1  0.5376110000000  0.5283290000000  0.4510660000000 1.0
C      1  0.4195790000000  0.4188710000000  0.5107760000000 1.0
C      1  0.4047100000000  0.4480310000000  0.4999210000000 1.0
C      1  0.4951870000000  0.5599670000000  0.3959170000000 1.0
C      1  0.6100180000000  0.4622570000000  0.5100430000000 1.0
C      1  0.4018390000000  0.4560240000000  0.4476430000000 1.0
C      1  0.5557370000000  0.4413620000000  0.5756140000000 1.0
C      1  0.4504360000000  0.5655850000000  0.5754210000000 1.0
C      1  0.5004500000000  0.5669160000000  0.4397740000000 1.0
C      1  0.4756740000000  0.4929940000000  0.5305250000000 1.0
C      1  0.4225940000000  0.5568280000000  0.5687830000000 1.0
C      1  0.5992230000000  0.5257310000000  0.4572910000000 1.0
C      1  0.5547370000000  0.5389090000000  0.5563630000000 1.0
C      1  0.4325620000000  0.4417500000000  0.4812760000000 1.0
C      1  0.4884510000000  0.4546800000000  0.5905750000000 1.0
C      1  0.4991390000000  0.5274620000000  0.4008850000000 1.0
C      1  0.6114580000000  0.5093940000000  0.5295130000000 1.0
C      1  0.4717500000000  0.5439210000000  0.5656380000000 1.0
C      1  0.5663140000000  0.5309180000000  0.4065520000000 1.0
C      1  0.5747910000000  0.4824110000000  0.5109930000000 1.0
C      1  0.4405890000000  0.5793540000000  0.4462720000000 1.0
C      1  0.4163610000000  0.5692660000000  0.4626010000000 1.0
C      1  0.5788240000000  0.5495360000000  0.5766800000000 1.0
C      1  0.4320070000000  0.5459300000000  0.4434390000000 1.0
C      1  0.4509470000000  0.4127180000000  0.4042550000000 1.0
C      1  0.5232820000000  0.4134510000000  0.5092290000000 1.0
C      1  0.4948420000000  0.3861510000000  0.5061920000000 1.0
C      1  0.5075680000000  0.4802020000000  0.5947780000000 1.0
C      1  0.5711330000000  0.4559650000000  0.5007510000000 1.0
C      1  0.4688520000000  0.4797770000000  0.5857440000000 1.0
C      1  0.5634180000000  0.4747410000000  0.5783650000000 1.0
C      1  0.4428490000000  0.4955890000000  0.5231650000000 1.0
C      1  0.5383520000000  0.4097150000000  0.4726760000000 1.0
C      1  0.4217270000000  0.4802980000000  0.5710160000000 1.0
C      1  0.4391570000000  0.4349850000000  0.5897260000000 1.0
C      1  0.5366460000000  0.5335500000000  0.4816110000000 1.0
C      1  0.4770580000000  0.4853210000000  0.4450280000000 1.0
C      1  0.5237850000000  0.5027730000000  0.5444060000000 1.0
C      1  0.5338810000000  0.5243970000000  0.3997570000000 1.0
C      1  0.5830250000000  0.5029180000000  0.4163520000000 1.0
C      1  0.5436840000000  0.5642690000000  0.4856110000000 1.0
C      1  0.4875700000000  0.5936540000000  0.5364070000000 1.0
C      1  0.4779920000000  0.4149140000000  0.4003430000000 1.0
C      1  0.4802320000000  0.5198870000000  0.5115340000000 1.0
C      1  0.5807180000000  0.5180050000000  0.5783200000000 1.0
C      1  0.4993520000000  0.4187370000000  0.4185380000000 1.0
C      1  0.5240490000000  0.5005460000000  0.4628500000000 1.0
C      1  0.5105190000000  0.5371690000000  0.4375550000000 1.0
C      1  0.4539840000000  0.4471870000000  0.5467770000000 1.0
C      1  0.5575000000000  0.5024240000000  0.5847360000000 1.0
C      1  0.5855360000000  0.5760390000000  0.4257320000000 1.0
C      1  0.4183790000000  0.5285470000000  0.5768540000000 1.0
C      1  0.5622490000000  0.4536050000000  0.4727690000000 1.0
C      1  0.4809380000000  0.5044180000000  0.5714590000000 1.0
C      1  0.5004930000000  0.4387050000000  0.4528240000000 1.0
C      1  0.5540110000000  0.5166610000000  0.5044720000000 1.0
C      1  0.4391570000000  0.3974210000000  0.4493970000000 1.0
C      1  0.5713580000000  0.4909580000000  0.5375010000000 1.0
C      1  0.5927710000000  0.4349070000000  0.5139280000000 1.0
C      1  0.5601070000000  0.4792740000000  0.4116680000000 1.0
C      1  0.5247240000000  0.4819170000000  0.5713120000000 1.0
C      1  0.4938810000000  0.4678200000000  0.5311160000000 1.0
C      1  0.4294470000000  0.4691900000000  0.5105360000000 1.0
C      1  0.5976630000000  0.4744530000000  0.4239570000000 1.0
C      1  0.3922160000000  0.4682450000000  0.5247110000000 1.0
C      1  0.5124330000000  0.5635880000000  0.4918220000000 1.0
C      1  0.4724860000000  0.4318690000000  0.5860920000000 1.0
C      1  0.5751610000000  0.5361680000000  0.5220830000000 1.0
C      1  0.4796500000000  0.5333810000000  0.4287670000000 1.0
C      1  0.3957210000000  0.4744900000000  0.4656060000000 1.0
C      1  0.5487390000000  0.4323420000000  0.4580310000000 1.0
C      1  0.5337490000000  0.5188130000000  0.5904180000000 1.0
C      1  0.5058730000000  0.4999400000000  0.3858360000000 1.0
C      1  0.4388960000000  0.5025330000000  0.6183880000000 1.0
C      1  0.5845150000000  0.4446180000000  0.5632370000000 1.0
C      1  0.5128830000000  0.6072670000000  0.5544560000000 1.0
C      1  0.5639200000000  0.5637660000000  0.5075310000000 1.0
C      1  0.4530530000000  0.5025980000000  0.4734400000000 1.0
C      1  0.4577470000000  0.4744230000000  0.4928590000000 1.0
C      1  0.4667120000000  0.3902630000000  0.5048210000000 1.0
C      1  0.4731520000000  0.4557410000000  0.4561340000000 1.0
C      1  0.3882700000000  0.5229960000000  0.5247800000000 1.0
C      1  0.5742260000000  0.4747250000000  0.4562030000000 1.0
C      1  0.5490140000000  0.4323810000000  0.4307800000000 1.0
C      1  0.4279940000000  0.4443890000000  0.5316550000000 1.0
C      1  0.4537360000000  0.4074300000000  0.5502480000000 1.0
C      1  0.4757960000000  0.5268120000000  0.4619560000000 1.0
C      1  0.4950300000000  0.4519250000000  0.3970710000000 1.0
C      1  0.4777640000000  0.6064690000000  0.4358570000000 1.0
C      1  0.5052670000000  0.5352080000000  0.5266040000000 1.0
C      1  0.5904740000000  0.4744020000000  0.5577180000000 1.0
C      1  0.5957510000000  0.4964060000000  0.4951410000000 1.0
C      1  0.5230400000000  0.5476320000000  0.5611780000000 1.0
C      1  0.4780850000000  0.4407640000000  0.5268390000000 1.0
C      1  0.5877020000000  0.5584530000000  0.5449960000000 1.0
C      1  0.4925130000000  0.5004510000000  0.4670030000000 1.0
C      1  0.5063200000000  0.5999080000000  0.4432090000000 1.0
C      1  0.6099100000000  0.5406790000000  0.4807080000000 1.0
C      1  0.5256460000000  0.5563040000000  0.4043070000000 1.0
C      1  0.3916010000000  0.5261300000000  0.4936530000000 1.0
C      1  0.6114800000000  0.5222420000000  0.5027540000000 1.0
C      1  0.4104460000000  0.5375630000000  0.5360300000000 1.0
C      1  0.3907610000000  0.4987300000000  0.5397450000000 1.0
C      1  0.4909950000000  0.5736860000000  0.4692260000000 1.0
C      1  0.5802620000000  0.4095170000000  0.5013480000000 1.0
C      1  0.5259900000000  0.6060530000000  0.4606610000000 1.0
C      1  0.5392080000000  0.6012100000000  0.5600310000000 1.0
C      1  0.4036250000000  0.4499680000000  0.5508310000000 1.0
C      1  0.4467620000000  0.4629720000000  0.5732880000000 1.0
C      1  0.5475320000000  0.5487080000000  0.4282990000000 1.0
C      1  0.4465450000000  0.5892490000000  0.5012450000000 1.0
END
