TITL C-2778431-5191-817 0.00139426945023514 125000 -1127.56401471469 0 0 191 (C1) n - 1
REM
REM in /home/nfs/bkarasulu/CARBON/AIRSS/Generating-Clusters/REBO/Only-C1/SD-CG/HFTN-CG
REM
REM
REM
REM
REM
REM ./C.cell (11c1c37f851c82e70ff6c80c92926a4b)
REM
REM compiler GCC version 9.2.1 20190827 (Red Hat 9.2.1-1)
REM options -cpp -mtune=generic -march=x86-64 -g -O0 -fpre-include=/usr/include/finclude/math-vector-fortran.h
REM seed 1324652209 313400819 1205323113 1615662116 369396998 1000904625 -2068858160 -1423258845 276141241 447452783 725298811 -783664402 -1191346598 -1873386146 -1994202000 3015394 -1275692026 851653132 -1041462570 1211726733 1177081665 1254647151 1470087969 421764711 1609939813 -927668562 -1564643419 562658661 2084449100 198334721 -1611993110 2080027245 1089109201
REM
CELL 1.54180   50.00000   50.00000   50.00000   90.00000   90.00000   90.00000
LATT -1
SFAC C  
C      1  0.5309990000000  0.5433110000000  0.4781500000000 1.0
C      1  0.6001820000000  0.4614570000000  0.4901730000000 1.0
C      1  0.5430950000000  0.5538660000000  0.3974460000000 1.0
C      1  0.3785900000000  0.4941180000000  0.4772210000000 1.0
C      1  0.5676130000000  0.5024680000000  0.4519370000000 1.0
C      1  0.5843150000000  0.4875730000000  0.5340390000000 1.0
C      1  0.4599470000000  0.5995060000000  0.4729950000000 1.0
C      1  0.4392580000000  0.5218510000000  0.5200480000000 1.0
C      1  0.5188440000000  0.3797340000000  0.4856590000000 1.0
C      1  0.3984870000000  0.5251680000000  0.4404580000000 1.0
C      1  0.4641570000000  0.4536790000000  0.4268670000000 1.0
C      1  0.5263050000000  0.4526110000000  0.4364360000000 1.0
C      1  0.4225380000000  0.5555220000000  0.4688950000000 1.0
C      1  0.4813120000000  0.4938750000000  0.5587430000000 1.0
C      1  0.5359600000000  0.4691100000000  0.3904670000000 1.0
C      1  0.5466240000000  0.3958920000000  0.5318150000000 1.0
C      1  0.4721470000000  0.5666970000000  0.5670060000000 1.0
C      1  0.4795190000000  0.4369940000000  0.6224080000000 1.0
C      1  0.4955810000000  0.4790680000000  0.6048500000000 1.0
C      1  0.5625260000000  0.4875720000000  0.4240830000000 1.0
C      1  0.3925080000000  0.5191910000000  0.4876250000000 1.0
C      1  0.4286450000000  0.3962220000000  0.4976190000000 1.0
C      1  0.5174220000000  0.5823060000000  0.4348170000000 1.0
C      1  0.4464330000000  0.5902730000000  0.4973490000000 1.0
C      1  0.5597960000000  0.5071100000000  0.4025040000000 1.0
C      1  0.5526430000000  0.4368570000000  0.5445760000000 1.0
C      1  0.4333780000000  0.5151160000000  0.5491470000000 1.0
C      1  0.5407800000000  0.5022130000000  0.6026810000000 1.0
C      1  0.5446590000000  0.5803840000000  0.4564620000000 1.0
C      1  0.5461840000000  0.4631790000000  0.4175740000000 1.0
C      1  0.5415900000000  0.5480680000000  0.5107010000000 1.0
C      1  0.5904470000000  0.4771440000000  0.5648430000000 1.0
C      1  0.5013900000000  0.5307960000000  0.5905920000000 1.0
C      1  0.5259210000000  0.4628970000000  0.5844310000000 1.0
C      1  0.5673140000000  0.4116930000000  0.5148280000000 1.0
C      1  0.5840940000000  0.4613770000000  0.5171210000000 1.0
C      1  0.4596350000000  0.5111660000000  0.4830920000000 1.0
C      1  0.4351560000000  0.4875800000000  0.4045940000000 1.0
C      1  0.5939180000000  0.5519230000000  0.4966330000000 1.0
C      1  0.3510860000000  0.4956080000000  0.4733530000000 1.0
C      1  0.4821780000000  0.5402600000000  0.3996650000000 1.0
C      1  0.3985780000000  0.5375720000000  0.4647930000000 1.0
C      1  0.4182500000000  0.4626670000000  0.4856920000000 1.0
C      1  0.5433010000000  0.4381030000000  0.5774430000000 1.0
C      1  0.5655790000000  0.4635230000000  0.5801690000000 1.0
C      1  0.5189850000000  0.5716800000000  0.5633440000000 1.0
C      1  0.5638370000000  0.5851260000000  0.5444330000000 1.0
C      1  0.5751160000000  0.4238160000000  0.4625240000000 1.0
C      1  0.6030540000000  0.4536770000000  0.5435220000000 1.0
C      1  0.5019310000000  0.4363680000000  0.5296970000000 1.0
C      1  0.5644860000000  0.5266140000000  0.5456030000000 1.0
C      1  0.4724710000000  0.3933150000000  0.5565980000000 1.0
C      1  0.6075220000000  0.5259280000000  0.4790550000000 1.0
C      1  0.5240230000000  0.5232950000000  0.5266790000000 1.0
C      1  0.5936730000000  0.4501140000000  0.4622350000000 1.0
C      1  0.4222240000000  0.5105590000000  0.4971870000000 1.0
C      1  0.4081910000000  0.5118290000000  0.5720700000000 1.0
C      1  0.4537510000000  0.5078700000000  0.3910310000000 1.0
C      1  0.5018390000000  0.6199160000000  0.4990020000000 1.0
C      1  0.4943960000000  0.4939890000000  0.4230020000000 1.0
C      1  0.5356380000000  0.4121210000000  0.5576240000000 1.0
C      1  0.4346950000000  0.4813830000000  0.5279560000000 1.0
C      1  0.4630600000000  0.4474920000000  0.5273820000000 1.0
C      1  0.5688330000000  0.5621250000000  0.4654180000000 1.0
C      1  0.5123250000000  0.5140230000000  0.3939070000000 1.0
C      1  0.6152380000000  0.4850000000000  0.5088810000000 1.0
C      1  0.4876060000000  0.4936510000000  0.4945650000000 1.0
C      1  0.4589370000000  0.5465460000000  0.5177290000000 1.0
C      1  0.4239830000000  0.5726140000000  0.4951850000000 1.0
C      1  0.4501790000000  0.4025730000000  0.5148260000000 1.0
C      1  0.4769710000000  0.4057730000000  0.5002650000000 1.0
C      1  0.4830350000000  0.5466990000000  0.4485410000000 1.0
C      1  0.5356540000000  0.6162910000000  0.5050190000000 1.0
C      1  0.5313580000000  0.5136240000000  0.4949190000000 1.0
C      1  0.4502700000000  0.5194110000000  0.6239380000000 1.0
C      1  0.5217350000000  0.4257920000000  0.4446590000000 1.0
C      1  0.5640180000000  0.5985070000000  0.5044230000000 1.0
C      1  0.5214070000000  0.4798420000000  0.5619910000000 1.0
C      1  0.4871610000000  0.5748200000000  0.5020740000000 1.0
C      1  0.5096140000000  0.4099770000000  0.5098040000000 1.0
C      1  0.4982910000000  0.5646250000000  0.5887380000000 1.0
C      1  0.5440670000000  0.5751970000000  0.5298650000000 1.0
C      1  0.5863820000000  0.5106720000000  0.5662820000000 1.0
C      1  0.5709880000000  0.3993570000000  0.4853050000000 1.0
C      1  0.4350650000000  0.4893180000000  0.4789960000000 1.0
C      1  0.4331910000000  0.5679110000000  0.4427510000000 1.0
C      1  0.5606790000000  0.4544160000000  0.4705100000000 1.0
C      1  0.4840920000000  0.5031170000000  0.5898450000000 1.0
C      1  0.4871480000000  0.6088400000000  0.4772360000000 1.0
C      1  0.6078460000000  0.5282900000000  0.5129380000000 1.0
C      1  0.4959860000000  0.3958110000000  0.4751800000000 1.0
C      1  0.5441410000000  0.3849450000000  0.4744430000000 1.0
C      1  0.4824710000000  0.4673360000000  0.4087810000000 1.0
C      1  0.4994580000000  0.5238120000000  0.4951560000000 1.0
C      1  0.4734950000000  0.5561880000000  0.4787720000000 1.0
C      1  0.5013200000000  0.4473270000000  0.4793660000000 1.0
C      1  0.4025290000000  0.4585990000000  0.5609530000000 1.0
C      1  0.5599770000000  0.4982870000000  0.4954010000000 1.0
C      1  0.5186740000000  0.5805300000000  0.5099540000000 1.0
C      1  0.4829090000000  0.4534820000000  0.6008830000000 1.0
C      1  0.4518920000000  0.4554180000000  0.4655970000000 1.0
C      1  0.5313070000000  0.5920720000000  0.4827330000000 1.0
C      1  0.4825150000000  0.4379390000000  0.5028200000000 1.0
C      1  0.4213980000000  0.4320440000000  0.5511030000000 1.0
C      1  0.5304790000000  0.5281660000000  0.6020070000000 1.0
C      1  0.4788840000000  0.4616990000000  0.5498840000000 1.0
C      1  0.4957820000000  0.3854840000000  0.5395940000000 1.0
C      1  0.4060890000000  0.4999660000000  0.5242770000000 1.0
C      1  0.5551990000000  0.4991990000000  0.5275310000000 1.0
C      1  0.5066580000000  0.4126850000000  0.5495100000000 1.0
C      1  0.5126040000000  0.6149770000000  0.5291440000000 1.0
C      1  0.4171630000000  0.4617910000000  0.4447470000000 1.0
C      1  0.4505360000000  0.5374800000000  0.3973020000000 1.0
C      1  0.4505940000000  0.4892060000000  0.5556350000000 1.0
C      1  0.4348510000000  0.5558830000000  0.5400320000000 1.0
C      1  0.5550730000000  0.4510610000000  0.5186970000000 1.0
C      1  0.5143310000000  0.5468010000000  0.3901780000000 1.0
C      1  0.5334470000000  0.4749950000000  0.5170530000000 1.0
C      1  0.5436060000000  0.5660040000000  0.4256230000000 1.0
C      1  0.5105120000000  0.4656410000000  0.5376120000000 1.0
C      1  0.5066330000000  0.5909460000000  0.4622540000000 1.0
C      1  0.4482530000000  0.4575010000000  0.4989240000000 1.0
C      1  0.5886610000000  0.4933680000000  0.4916580000000 1.0
C      1  0.4830960000000  0.4969410000000  0.3914860000000 1.0
C      1  0.3975010000000  0.4787790000000  0.4534630000000 1.0
C      1  0.5666630000000  0.5672560000000  0.4978300000000 1.0
C      1  0.3963400000000  0.4715960000000  0.5325950000000 1.0
C      1  0.5998050000000  0.4979270000000  0.4609610000000 1.0
C      1  0.4061080000000  0.4789210000000  0.5806160000000 1.0
C      1  0.5885900000000  0.4247410000000  0.5323850000000 1.0
C      1  0.3957400000000  0.5318670000000  0.5182000000000 1.0
C      1  0.5309620000000  0.5095960000000  0.5574160000000 1.0
C      1  0.5731510000000  0.5424130000000  0.4372240000000 1.0
C      1  0.5070970000000  0.5503890000000  0.4292480000000 1.0
C      1  0.4544400000000  0.4848520000000  0.4535770000000 1.0
C      1  0.4200490000000  0.4516420000000  0.5260770000000 1.0
C      1  0.4474930000000  0.5415640000000  0.4863240000000 1.0
C      1  0.4545270000000  0.5866250000000  0.4469000000000 1.0
C      1  0.5803340000000  0.4386450000000  0.5625800000000 1.0
C      1  0.5569620000000  0.4961100000000  0.5756140000000 1.0
C      1  0.4662060000000  0.5877590000000  0.5201310000000 1.0
C      1  0.4472620000000  0.5041850000000  0.4303200000000 1.0
C      1  0.5232820000000  0.4235020000000  0.4845570000000 1.0
C      1  0.4764020000000  0.4440470000000  0.5750050000000 1.0
C      1  0.4370060000000  0.4640590000000  0.4242350000000 1.0
C      1  0.4230020000000  0.5234350000000  0.4273360000000 1.0
C      1  0.5373950000000  0.4978580000000  0.3859300000000 1.0
C      1  0.4847590000000  0.4924090000000  0.4536010000000 1.0
C      1  0.5488510000000  0.5463860000000  0.5892900000000 1.0
C      1  0.6079030000000  0.4727260000000  0.4496830000000 1.0
C      1  0.5219530000000  0.5226320000000  0.4255610000000 1.0
C      1  0.5339110000000  0.5006200000000  0.4486160000000 1.0
C      1  0.4935270000000  0.5413820000000  0.5589110000000 1.0
C      1  0.5449140000000  0.4134250000000  0.4592640000000 1.0
C      1  0.5811730000000  0.5735480000000  0.5622360000000 1.0
C      1  0.5072150000000  0.5604200000000  0.5334840000000 1.0
C      1  0.4761430000000  0.5889930000000  0.5466170000000 1.0
C      1  0.4554860000000  0.5069430000000  0.6013790000000 1.0
C      1  0.5371300000000  0.5433420000000  0.5580620000000 1.0
C      1  0.3912410000000  0.4681550000000  0.4914390000000 1.0
C      1  0.5742600000000  0.5475530000000  0.5712120000000 1.0
C      1  0.4342900000000  0.5495710000000  0.4198200000000 1.0
C      1  0.4459750000000  0.4227300000000  0.5351820000000 1.0
C      1  0.5249910000000  0.4791800000000  0.6092500000000 1.0
C      1  0.4744480000000  0.5193560000000  0.4233180000000 1.0
C      1  0.5406560000000  0.5400360000000  0.4481950000000 1.0
C      1  0.5516220000000  0.4332260000000  0.4933370000000 1.0
C      1  0.5130280000000  0.4747430000000  0.4897170000000 1.0
C      1  0.4879730000000  0.5388590000000  0.5195130000000 1.0
C      1  0.6015170000000  0.5149970000000  0.5359300000000 1.0
C      1  0.5134350000000  0.4746180000000  0.4499790000000 1.0
C      1  0.5210110000000  0.3807980000000  0.5186090000000 1.0
C      1  0.4195700000000  0.4097050000000  0.4758870000000 1.0
C      1  0.4139680000000  0.5589920000000  0.5172970000000 1.0
C      1  0.4971240000000  0.4163430000000  0.4545620000000 1.0
C      1  0.5779570000000  0.5303700000000  0.4670360000000 1.0
C      1  0.4462870000000  0.5622370000000  0.5766160000000 1.0
C      1  0.5065690000000  0.5611900000000  0.4773170000000 1.0
C      1  0.4628370000000  0.4837400000000  0.5110650000000 1.0
C      1  0.4776910000000  0.5765830000000  0.4330150000000 1.0
C      1  0.5431760000000  0.4809770000000  0.4751660000000 1.0
C      1  0.4863390000000  0.5208410000000  0.4655710000000 1.0
C      1  0.4233450000000  0.4373600000000  0.4648850000000 1.0
C      1  0.4693810000000  0.4171310000000  0.5698980000000 1.0
C      1  0.4353710000000  0.4945070000000  0.5831980000000 1.0
C      1  0.4945760000000  0.5143580000000  0.5416470000000 1.0
C      1  0.4081760000000  0.5365950000000  0.5495740000000 1.0
C      1  0.4942860000000  0.5705940000000  0.4045990000000 1.0
C      1  0.5637880000000  0.5346280000000  0.4082750000000 1.0
C      1  0.5038210000000  0.5973150000000  0.5483260000000 1.0
C      1  0.4776290000000  0.4411300000000  0.4554950000000 1.0
END
