TITL C-2778431-5191-6 -0.000913846762079419 125000 -188.19005167709 0 0 35 (C1) n - 1
REM
REM in /home/nfs/bkarasulu/CARBON/AIRSS/Generating-Clusters/REBO/Only-C1/SD-CG/HFTN-CG
REM
REM
REM
REM
REM
REM ./C.cell (11c1c37f851c82e70ff6c80c92926a4b)
REM
REM compiler GCC version 9.2.1 20190827 (Red Hat 9.2.1-1)
REM options -cpp -mtune=generic -march=x86-64 -g -O0 -fpre-include=/usr/include/finclude/math-vector-fortran.h
REM seed 20504206 -1744034946 -543503625 -1601419422 2037274328 -1282700955 -1916460330 -77191639 109706022 45008949 971035426 75236125 -212484910 434463201 -1366853367 1558582609 -2105485879 529547984 -137637652 -2103113464 1276693300 -659040948 -229921483 1145881699 -1677628265 -753177793 984239178 -1463437249 -1615543256 1572694366 -1256969370 -952687376 -1861059820
REM
CELL 1.54180   50.00000   50.00000   50.00000   90.00000   90.00000   90.00000
LATT -1
SFAC C  
C      1  0.5762130000000  0.5216760000000  0.5563870000000 1.0
C      1  0.4971330000000  0.4793200000000  0.4498570000000 1.0
C      1  0.4615010000000  0.4445660000000  0.4494940000000 1.0
C      1  0.4509500000000  0.4696490000000  0.4584160000000 1.0
C      1  0.5400630000000  0.4522290000000  0.5846070000000 1.0
C      1  0.4838440000000  0.3955550000000  0.4318690000000 1.0
C      1  0.5253090000000  0.4932200000000  0.4618500000000 1.0
C      1  0.4722640000000  0.5121030000000  0.5472860000000 1.0
C      1  0.5114830000000  0.5154710000000  0.5177030000000 1.0
C      1  0.4265800000000  0.5200210000000  0.5346880000000 1.0
C      1  0.5482150000000  0.5040180000000  0.5629060000000 1.0
C      1  0.5364200000000  0.4761320000000  0.5753940000000 1.0
C      1  0.4596360000000  0.5169490000000  0.5001750000000 1.0
C      1  0.5403090000000  0.4985930000000  0.4835940000000 1.0
C      1  0.5189680000000  0.4975790000000  0.4312420000000 1.0
C      1  0.4927100000000  0.4500340000000  0.4435810000000 1.0
C      1  0.4699280000000  0.4898530000000  0.4594890000000 1.0
C      1  0.5001500000000  0.5087810000000  0.5419830000000 1.0
C      1  0.4963530000000  0.5299980000000  0.4696670000000 1.0
C      1  0.5357140000000  0.5750470000000  0.4277770000000 1.0
C      1  0.5135970000000  0.5592350000000  0.4255890000000 1.0
C      1  0.5159670000000  0.5013940000000  0.5674600000000 1.0
C      1  0.5112730000000  0.5246090000000  0.4925230000000 1.0
C      1  0.4928590000000  0.5057590000000  0.5884670000000 1.0
C      1  0.4499270000000  0.5339200000000  0.4550370000000 1.0
C      1  0.4681170000000  0.5181890000000  0.4701580000000 1.0
C      1  0.4674240000000  0.5108060000000  0.5757050000000 1.0
C      1  0.4806220000000  0.4207650000000  0.4390010000000 1.0
C      1  0.5597050000000  0.5097710000000  0.5321330000000 1.0
C      1  0.4998080000000  0.5575400000000  0.4021170000000 1.0
C      1  0.4526180000000  0.5164360000000  0.5273030000000 1.0
C      1  0.5049240000000  0.5445300000000  0.4477580000000 1.0
C      1  0.5437520000000  0.4280180000000  0.5939370000000 1.0
C      1  0.4435620000000  0.5136550000000  0.5880860000000 1.0
C      1  0.5521040000000  0.5045760000000  0.5067580000000 1.0
END
