TITL C-2778425-5191-282 -0.00613578860064841 125000 -1106.70553911425 0 0 191 (C1) n - 1
REM
REM in /home/nfs/bkarasulu/CARBON/AIRSS/Generating-Clusters/REBO/Only-C1/SD-CG/HFTN-CG
REM
REM
REM
REM
REM
REM ./C.cell (11c1c37f851c82e70ff6c80c92926a4b)
REM
REM compiler GCC version 9.2.1 20190827 (Red Hat 9.2.1-1)
REM options -cpp -mtune=generic -march=x86-64 -g -O0 -fpre-include=/usr/include/finclude/math-vector-fortran.h
REM seed -551514191 -858584326 -500125984 256892412 -1484797728 1700813523 1934834738 -1411752066 1368453965 1493441971 367080689 -1428775629 -10168925 -428849278 855025186 391364566 -1195761308 1267679862 -1164976984 -483645221 -327632352 -893977134 -1568259422 241658087 307025096 -920461019 1986168175 -1808158724 -433055677 585827013 -2077068133 922309859 -356591744
REM
CELL 1.54180   50.00000   50.00000   50.00000   90.00000   90.00000   90.00000
LATT -1
SFAC C  
C      1  0.5645060000000  0.4257360000000  0.5518070000000 1.0
C      1  0.4224830000000  0.5150120000000  0.5763220000000 1.0
C      1  0.5101660000000  0.4414140000000  0.4377060000000 1.0
C      1  0.5221790000000  0.4506940000000  0.5344890000000 1.0
C      1  0.5390980000000  0.4643680000000  0.5889710000000 1.0
C      1  0.5591240000000  0.4939390000000  0.4579960000000 1.0
C      1  0.5861830000000  0.5148280000000  0.4610680000000 1.0
C      1  0.5718170000000  0.5092220000000  0.4231060000000 1.0
C      1  0.5242750000000  0.5852190000000  0.4597260000000 1.0
C      1  0.5453170000000  0.4885500000000  0.5501710000000 1.0
C      1  0.4562290000000  0.4917040000000  0.3979080000000 1.0
C      1  0.4559920000000  0.5961170000000  0.5122970000000 1.0
C      1  0.4173430000000  0.5638280000000  0.5196080000000 1.0
C      1  0.4489360000000  0.4143070000000  0.5540830000000 1.0
C      1  0.4409130000000  0.4726990000000  0.4572510000000 1.0
C      1  0.4805200000000  0.3793580000000  0.5194580000000 1.0
C      1  0.5670350000000  0.4647350000000  0.5886160000000 1.0
C      1  0.5169980000000  0.3854720000000  0.5573140000000 1.0
C      1  0.5355150000000  0.5982660000000  0.4299750000000 1.0
C      1  0.4696490000000  0.5800520000000  0.4412700000000 1.0
C      1  0.5348870000000  0.4515670000000  0.4163850000000 1.0
C      1  0.4187960000000  0.5242980000000  0.5144440000000 1.0
C      1  0.4904210000000  0.4926800000000  0.3974580000000 1.0
C      1  0.4498100000000  0.5637930000000  0.5177580000000 1.0
C      1  0.5099460000000  0.4237180000000  0.4654920000000 1.0
C      1  0.5358860000000  0.4944340000000  0.5082160000000 1.0
C      1  0.4807840000000  0.5559020000000  0.5276970000000 1.0
C      1  0.4656030000000  0.5363110000000  0.5510560000000 1.0
C      1  0.4680110000000  0.4417630000000  0.4926520000000 1.0
C      1  0.4392200000000  0.5017140000000  0.5074400000000 1.0
C      1  0.4972230000000  0.5924600000000  0.5416410000000 1.0
C      1  0.5440380000000  0.5218990000000  0.4158060000000 1.0
C      1  0.4436640000000  0.5124270000000  0.4331740000000 1.0
C      1  0.4771610000000  0.4174220000000  0.5078480000000 1.0
C      1  0.5310110000000  0.4659040000000  0.4611270000000 1.0
C      1  0.5579830000000  0.5333750000000  0.4650350000000 1.0
C      1  0.5565880000000  0.4434420000000  0.4635670000000 1.0
C      1  0.4582930000000  0.6043110000000  0.5426390000000 1.0
C      1  0.4930690000000  0.5627490000000  0.4965020000000 1.0
C      1  0.4410720000000  0.4295400000000  0.4658600000000 1.0
C      1  0.4889980000000  0.4265900000000  0.6098890000000 1.0
C      1  0.4078600000000  0.5513730000000  0.5449270000000 1.0
C      1  0.4803450000000  0.3901010000000  0.4871700000000 1.0
C      1  0.5505660000000  0.4451810000000  0.5029720000000 1.0
C      1  0.5564300000000  0.5951740000000  0.5159310000000 1.0
C      1  0.4485550000000  0.4307890000000  0.5811590000000 1.0
C      1  0.4481660000000  0.4976170000000  0.5775280000000 1.0
C      1  0.4564540000000  0.5573870000000  0.5765310000000 1.0
C      1  0.5708560000000  0.4911800000000  0.4892480000000 1.0
C      1  0.4801700000000  0.4375750000000  0.4634560000000 1.0
C      1  0.4256150000000  0.4761520000000  0.4938210000000 1.0
C      1  0.5205650000000  0.3975430000000  0.4104660000000 1.0
C      1  0.3908580000000  0.5281460000000  0.5427190000000 1.0
C      1  0.4413260000000  0.4664640000000  0.5802300000000 1.0
C      1  0.5963470000000  0.4777010000000  0.4717630000000 1.0
C      1  0.4672370000000  0.5092620000000  0.5189750000000 1.0
C      1  0.4035070000000  0.4615910000000  0.5112170000000 1.0
C      1  0.4552890000000  0.5181810000000  0.4727830000000 1.0
C      1  0.4630380000000  0.5439390000000  0.4179670000000 1.0
C      1  0.4748760000000  0.5126500000000  0.5924880000000 1.0
C      1  0.5015210000000  0.5094840000000  0.5214130000000 1.0
C      1  0.5446370000000  0.4714910000000  0.4891210000000 1.0
C      1  0.4856980000000  0.5235380000000  0.4976300000000 1.0
C      1  0.5829500000000  0.4440790000000  0.5088020000000 1.0
C      1  0.6091590000000  0.4865220000000  0.5016840000000 1.0
C      1  0.6068970000000  0.5148570000000  0.5108350000000 1.0
C      1  0.5099240000000  0.3952290000000  0.5130520000000 1.0
C      1  0.4751960000000  0.6044230000000  0.4888310000000 1.0
C      1  0.4685360000000  0.4916740000000  0.4356970000000 1.0
C      1  0.4355340000000  0.4448630000000  0.4941480000000 1.0
C      1  0.4368840000000  0.5242730000000  0.5402240000000 1.0
C      1  0.4332120000000  0.4545530000000  0.5530830000000 1.0
C      1  0.5143240000000  0.4781470000000  0.6037910000000 1.0
C      1  0.5041280000000  0.4240980000000  0.5257140000000 1.0
C      1  0.5375900000000  0.4242730000000  0.4831930000000 1.0
C      1  0.4222550000000  0.4697430000000  0.4288220000000 1.0
C      1  0.5557730000000  0.4010600000000  0.5329310000000 1.0
C      1  0.5937190000000  0.4892310000000  0.4398020000000 1.0
C      1  0.3773950000000  0.4608170000000  0.5012100000000 1.0
C      1  0.5537240000000  0.5728520000000  0.4291090000000 1.0
C      1  0.5030200000000  0.6112920000000  0.4812620000000 1.0
C      1  0.5532450000000  0.4502700000000  0.5348120000000 1.0
C      1  0.5691500000000  0.5782300000000  0.5426760000000 1.0
C      1  0.5008400000000  0.5366650000000  0.4515820000000 1.0
C      1  0.5075370000000  0.5053050000000  0.4822310000000 1.0
C      1  0.4691870000000  0.5386820000000  0.4491350000000 1.0
C      1  0.5668240000000  0.5291380000000  0.5357630000000 1.0
C      1  0.4903690000000  0.5176070000000  0.5579180000000 1.0
C      1  0.5454440000000  0.4828570000000  0.4079970000000 1.0
C      1  0.5116260000000  0.3942820000000  0.4790320000000 1.0
C      1  0.5031890000000  0.4739630000000  0.4768120000000 1.0
C      1  0.5152250000000  0.5613140000000  0.4372520000000 1.0
C      1  0.5882590000000  0.5075730000000  0.5705730000000 1.0
C      1  0.3606340000000  0.4803520000000  0.4921660000000 1.0
C      1  0.3883030000000  0.5260930000000  0.4772020000000 1.0
C      1  0.4751290000000  0.4727750000000  0.5317580000000 1.0
C      1  0.4300520000000  0.5447190000000  0.5670040000000 1.0
C      1  0.4261210000000  0.5894350000000  0.4990270000000 1.0
C      1  0.5424070000000  0.5196470000000  0.5511340000000 1.0
C      1  0.4794050000000  0.4701990000000  0.5007870000000 1.0
C      1  0.5015920000000  0.5293720000000  0.3885840000000 1.0
C      1  0.4051900000000  0.5156670000000  0.4526990000000 1.0
C      1  0.5041460000000  0.5923150000000  0.4261330000000 1.0
C      1  0.4846950000000  0.4523850000000  0.4092300000000 1.0
C      1  0.4811940000000  0.4257290000000  0.5500830000000 1.0
C      1  0.5087940000000  0.5109340000000  0.5962090000000 1.0
C      1  0.4954570000000  0.4876010000000  0.5542800000000 1.0
C      1  0.5669890000000  0.5236580000000  0.5824030000000 1.0
C      1  0.5369230000000  0.5512580000000  0.4139170000000 1.0
C      1  0.5709140000000  0.4018970000000  0.5023250000000 1.0
C      1  0.5576540000000  0.5405330000000  0.4985830000000 1.0
C      1  0.5134640000000  0.5445730000000  0.4790490000000 1.0
C      1  0.4125820000000  0.5219170000000  0.4195900000000 1.0
C      1  0.4569330000000  0.5578450000000  0.4717210000000 1.0
C      1  0.4887380000000  0.6066140000000  0.4512690000000 1.0
C      1  0.4283920000000  0.4998320000000  0.4692740000000 1.0
C      1  0.4921970000000  0.5758140000000  0.4666760000000 1.0
C      1  0.5877330000000  0.4805400000000  0.5798970000000 1.0
C      1  0.4658750000000  0.4874720000000  0.4750890000000 1.0
C      1  0.5077770000000  0.4711040000000  0.4116630000000 1.0
C      1  0.5141400000000  0.4795000000000  0.5269700000000 1.0
C      1  0.5515620000000  0.5619420000000  0.5178790000000 1.0
C      1  0.4227940000000  0.5606390000000  0.4706290000000 1.0
C      1  0.4906550000000  0.5659750000000  0.5589670000000 1.0
C      1  0.5745060000000  0.6029210000000  0.4917210000000 1.0
C      1  0.5170330000000  0.6082690000000  0.5565650000000 1.0
C      1  0.5247230000000  0.4759410000000  0.5653130000000 1.0
C      1  0.5273860000000  0.5998980000000  0.4984230000000 1.0
C      1  0.5238110000000  0.5610630000000  0.5346520000000 1.0
C      1  0.4844470000000  0.5687000000000  0.4128320000000 1.0
C      1  0.4654350000000  0.4184750000000  0.6051030000000 1.0
C      1  0.5086250000000  0.5814730000000  0.5148370000000 1.0
C      1  0.4604720000000  0.4644970000000  0.4183690000000 1.0
C      1  0.4716920000000  0.5214300000000  0.3983650000000 1.0
C      1  0.4890060000000  0.5049030000000  0.4559250000000 1.0
C      1  0.5451290000000  0.3927320000000  0.4731510000000 1.0
C      1  0.5226310000000  0.5047120000000  0.3960160000000 1.0
C      1  0.5891720000000  0.5312600000000  0.4898230000000 1.0
C      1  0.5917460000000  0.5541700000000  0.4689610000000 1.0
C      1  0.5322630000000  0.5228090000000  0.4935560000000 1.0
C      1  0.5339040000000  0.4121910000000  0.5571280000000 1.0
C      1  0.5201190000000  0.5428760000000  0.5926710000000 1.0
C      1  0.4482900000000  0.5906940000000  0.4731790000000 1.0
C      1  0.4417440000000  0.4294190000000  0.5232000000000 1.0
C      1  0.5271840000000  0.4146400000000  0.4292470000000 1.0
C      1  0.4991030000000  0.3737790000000  0.5449790000000 1.0
C      1  0.5375080000000  0.5149100000000  0.4466350000000 1.0
C      1  0.3666440000000  0.5064680000000  0.4913170000000 1.0
C      1  0.5653070000000  0.4712600000000  0.4331900000000 1.0
C      1  0.6008120000000  0.4673060000000  0.5237770000000 1.0
C      1  0.6098070000000  0.5457680000000  0.5221170000000 1.0
C      1  0.4069340000000  0.5481040000000  0.4930090000000 1.0
C      1  0.5091100000000  0.5548510000000  0.3984510000000 1.0
C      1  0.4882280000000  0.4659290000000  0.4471290000000 1.0
C      1  0.5104770000000  0.4361200000000  0.5630930000000 1.0
C      1  0.5398630000000  0.3897780000000  0.5067620000000 1.0
C      1  0.4552340000000  0.3985030000000  0.5252920000000 1.0
C      1  0.5911020000000  0.4391390000000  0.5405590000000 1.0
C      1  0.4423520000000  0.4451110000000  0.4389740000000 1.0
C      1  0.5954830000000  0.5148480000000  0.5429180000000 1.0
C      1  0.5528710000000  0.4134300000000  0.4480130000000 1.0
C      1  0.4592210000000  0.5416520000000  0.4973480000000 1.0
C      1  0.5843630000000  0.4145440000000  0.4822490000000 1.0
C      1  0.5721340000000  0.4757180000000  0.5375280000000 1.0
C      1  0.3854180000000  0.5210320000000  0.5130130000000 1.0
C      1  0.4640560000000  0.5870730000000  0.5632790000000 1.0
C      1  0.5865460000000  0.5534420000000  0.5349760000000 1.0
C      1  0.5022420000000  0.4491970000000  0.5903040000000 1.0
C      1  0.5266110000000  0.4846420000000  0.4368580000000 1.0
C      1  0.4570850000000  0.4975510000000  0.5469880000000 1.0
C      1  0.4266080000000  0.4935240000000  0.4102250000000 1.0
C      1  0.5483360000000  0.5481200000000  0.5866420000000 1.0
C      1  0.5662330000000  0.5018330000000  0.5190010000000 1.0
C      1  0.4293180000000  0.5379980000000  0.4509660000000 1.0
C      1  0.4868650000000  0.5440700000000  0.5850780000000 1.0
C      1  0.5618770000000  0.4380250000000  0.4261320000000 1.0
C      1  0.5848860000000  0.4480620000000  0.4761710000000 1.0
C      1  0.5551720000000  0.5719810000000  0.5722590000000 1.0
C      1  0.5510630000000  0.5870710000000  0.4773130000000 1.0
C      1  0.5322670000000  0.5821510000000  0.5573950000000 1.0
C      1  0.5388350000000  0.5094400000000  0.5832620000000 1.0
C      1  0.4120400000000  0.4546160000000  0.5368480000000 1.0
C      1  0.4689080000000  0.4559840000000  0.5918240000000 1.0
C      1  0.3979890000000  0.5093320000000  0.5635860000000 1.0
C      1  0.4632750000000  0.4087670000000  0.4692890000000 1.0
C      1  0.4316540000000  0.5506250000000  0.4210040000000 1.0
C      1  0.4826070000000  0.4818400000000  0.6023990000000 1.0
C      1  0.4369480000000  0.5763740000000  0.4433180000000 1.0
C      1  0.4615940000000  0.4490710000000  0.5403500000000 1.0
C      1  0.5164600000000  0.5319100000000  0.5414860000000 1.0
C      1  0.5630300000000  0.5654340000000  0.4571440000000 1.0
END
