TITL C-2778425-5191-459 -0.0036949314493448 125000 -674.020979057043 0 0 116 (C1) n - 1
REM
REM in /home/nfs/bkarasulu/CARBON/AIRSS/Generating-Clusters/REBO/Only-C1/SD-CG/HFTN-CG
REM
REM
REM
REM
REM
REM ./C.cell (11c1c37f851c82e70ff6c80c92926a4b)
REM
REM compiler GCC version 9.2.1 20190827 (Red Hat 9.2.1-1)
REM options -cpp -mtune=generic -march=x86-64 -g -O0 -fpre-include=/usr/include/finclude/math-vector-fortran.h
REM seed -1693473600 2016787460 -803426584 702311929 1625655870 -853865713 616882359 1733472702 1885597175 1609466307 -2144950651 1671442741 -1391620751 2146088932 20162945 629068255 -1466577615 697880371 -152748532 156457745 -2012033007 -616617874 1322069337 1356970756 1257853546 -194600425 1030109228 -700286079 644397917 1160314528 1721541953 1055255280 -1209345031
REM
CELL 1.54180   50.00000   50.00000   50.00000   90.00000   90.00000   90.00000
LATT -1
SFAC C  
C      1  0.5849830000000  0.4776360000000  0.4729680000000 1.0
C      1  0.4654580000000  0.5859340000000  0.5342720000000 1.0
C      1  0.4767510000000  0.5055670000000  0.4100900000000 1.0
C      1  0.4221700000000  0.5057260000000  0.4469660000000 1.0
C      1  0.4614610000000  0.4680320000000  0.4873490000000 1.0
C      1  0.4706450000000  0.4952120000000  0.4381530000000 1.0
C      1  0.4412880000000  0.5076840000000  0.5713500000000 1.0
C      1  0.5209600000000  0.4126670000000  0.5126900000000 1.0
C      1  0.4875320000000  0.5126820000000  0.4856230000000 1.0
C      1  0.5545030000000  0.4426820000000  0.5030680000000 1.0
C      1  0.5127080000000  0.4263240000000  0.4236990000000 1.0
C      1  0.5025120000000  0.4812450000000  0.5530480000000 1.0
C      1  0.5055640000000  0.4944570000000  0.4066600000000 1.0
C      1  0.5860110000000  0.5277340000000  0.5039310000000 1.0
C      1  0.4869710000000  0.5485230000000  0.4680490000000 1.0
C      1  0.4773740000000  0.4999770000000  0.5562480000000 1.0
C      1  0.5298260000000  0.4949200000000  0.5273040000000 1.0
C      1  0.5311950000000  0.5566340000000  0.5454050000000 1.0
C      1  0.4028800000000  0.5127780000000  0.5294350000000 1.0
C      1  0.4798430000000  0.5833100000000  0.4856450000000 1.0
C      1  0.5091040000000  0.5121930000000  0.4324900000000 1.0
C      1  0.5747000000000  0.4539030000000  0.4603750000000 1.0
C      1  0.5016990000000  0.5265380000000  0.5925190000000 1.0
C      1  0.5806460000000  0.5004950000000  0.5185570000000 1.0
C      1  0.5316380000000  0.4801020000000  0.5800510000000 1.0
C      1  0.5011560000000  0.5707020000000  0.5048790000000 1.0
C      1  0.5766760000000  0.5028540000000  0.4630280000000 1.0
C      1  0.4728250000000  0.4289510000000  0.5172690000000 1.0
C      1  0.4478340000000  0.4444000000000  0.5165260000000 1.0
C      1  0.5431760000000  0.5242600000000  0.5647930000000 1.0
C      1  0.4031480000000  0.4863720000000  0.4658010000000 1.0
C      1  0.5165650000000  0.5345430000000  0.4646590000000 1.0
C      1  0.5256080000000  0.4745330000000  0.4061610000000 1.0
C      1  0.5400720000000  0.5791580000000  0.5040380000000 1.0
C      1  0.5624540000000  0.4915760000000  0.5707980000000 1.0
C      1  0.4314440000000  0.4524860000000  0.4904130000000 1.0
C      1  0.5182550000000  0.4368260000000  0.5328170000000 1.0
C      1  0.4716160000000  0.5214530000000  0.5797790000000 1.0
C      1  0.4382360000000  0.4951870000000  0.5009100000000 1.0
C      1  0.5408140000000  0.5464770000000  0.5143840000000 1.0
C      1  0.4646180000000  0.5381570000000  0.5206670000000 1.0
C      1  0.5041840000000  0.5379300000000  0.5021480000000 1.0
C      1  0.4767640000000  0.5850840000000  0.4557960000000 1.0
C      1  0.4486490000000  0.4467600000000  0.4630510000000 1.0
C      1  0.5796940000000  0.4572820000000  0.5425570000000 1.0
C      1  0.4293390000000  0.5306320000000  0.4832050000000 1.0
C      1  0.5057150000000  0.5641440000000  0.5535420000000 1.0
C      1  0.4080540000000  0.4716360000000  0.4899600000000 1.0
C      1  0.5811680000000  0.4857620000000  0.5475730000000 1.0
C      1  0.4673310000000  0.5525160000000  0.4936980000000 1.0
C      1  0.5040860000000  0.5437620000000  0.4327680000000 1.0
C      1  0.5344800000000  0.5594280000000  0.4395010000000 1.0
C      1  0.5370390000000  0.4217510000000  0.4636800000000 1.0
C      1  0.5317520000000  0.4555070000000  0.4843700000000 1.0
C      1  0.5512950000000  0.4992440000000  0.4473030000000 1.0
C      1  0.5270800000000  0.5158120000000  0.4888980000000 1.0
C      1  0.4864630000000  0.4191210000000  0.4937510000000 1.0
C      1  0.4968520000000  0.5004160000000  0.4588130000000 1.0
C      1  0.4323850000000  0.5350870000000  0.5608270000000 1.0
C      1  0.5321300000000  0.4869820000000  0.4714360000000 1.0
C      1  0.4505110000000  0.5139360000000  0.4514820000000 1.0
C      1  0.5256210000000  0.5118280000000  0.5879360000000 1.0
C      1  0.4943170000000  0.5290510000000  0.5321910000000 1.0
C      1  0.4813830000000  0.4275670000000  0.5451880000000 1.0
C      1  0.4040550000000  0.5186630000000  0.4696110000000 1.0
C      1  0.5603680000000  0.5530010000000  0.4621090000000 1.0
C      1  0.5792070000000  0.5491850000000  0.5242200000000 1.0
C      1  0.5201170000000  0.4070630000000  0.5777080000000 1.0
C      1  0.4665630000000  0.4310260000000  0.4452710000000 1.0
C      1  0.5402460000000  0.4172750000000  0.4930710000000 1.0
C      1  0.5521490000000  0.4821130000000  0.4227910000000 1.0
C      1  0.5888550000000  0.4765600000000  0.5005940000000 1.0
C      1  0.4929610000000  0.5797670000000  0.5339270000000 1.0
C      1  0.5062140000000  0.4587610000000  0.5777470000000 1.0
C      1  0.5423920000000  0.4760290000000  0.5477920000000 1.0
C      1  0.4867700000000  0.5514270000000  0.5746230000000 1.0
C      1  0.4520510000000  0.5540800000000  0.4231250000000 1.0
C      1  0.4625040000000  0.4834910000000  0.5815950000000 1.0
C      1  0.5434420000000  0.4518660000000  0.4241170000000 1.0
C      1  0.5616830000000  0.5441540000000  0.5480820000000 1.0
C      1  0.5498120000000  0.5137030000000  0.5129090000000 1.0
C      1  0.5813920000000  0.4527070000000  0.5133570000000 1.0
C      1  0.4996890000000  0.4627460000000  0.5277200000000 1.0
C      1  0.5146360000000  0.5129050000000  0.5497280000000 1.0
C      1  0.4968670000000  0.4381720000000  0.4465880000000 1.0
C      1  0.5260670000000  0.4163250000000  0.4043900000000 1.0
C      1  0.5087870000000  0.4302240000000  0.5622850000000 1.0
C      1  0.5207940000000  0.5984410000000  0.5144190000000 1.0
C      1  0.4619110000000  0.4423680000000  0.5610480000000 1.0
C      1  0.4515390000000  0.5712950000000  0.4497280000000 1.0
C      1  0.4190700000000  0.5362760000000  0.5346280000000 1.0
C      1  0.5480640000000  0.4480530000000  0.5349480000000 1.0
C      1  0.4109390000000  0.4914510000000  0.5129010000000 1.0
C      1  0.4625710000000  0.5304280000000  0.4045970000000 1.0
C      1  0.5377860000000  0.5757410000000  0.4732910000000 1.0
C      1  0.5074430000000  0.4329940000000  0.4766950000000 1.0
C      1  0.5786300000000  0.5280250000000  0.4760470000000 1.0
C      1  0.5384970000000  0.5256600000000  0.4402210000000 1.0
C      1  0.4417090000000  0.4852860000000  0.5464830000000 1.0
C      1  0.4573090000000  0.5135730000000  0.4827230000000 1.0
C      1  0.5086830000000  0.5732420000000  0.4586550000000 1.0
C      1  0.4277150000000  0.5489310000000  0.5099220000000 1.0
C      1  0.5063310000000  0.4685120000000  0.4589430000000 1.0
C      1  0.5006070000000  0.5003730000000  0.5145740000000 1.0
C      1  0.4794580000000  0.3934450000000  0.4852840000000 1.0
C      1  0.4739230000000  0.4578420000000  0.5818870000000 1.0
C      1  0.4520310000000  0.5614230000000  0.5382050000000 1.0
C      1  0.5652880000000  0.5605430000000  0.4950030000000 1.0
C      1  0.4718490000000  0.5376220000000  0.4427050000000 1.0
C      1  0.4539000000000  0.5545540000000  0.5667880000000 1.0
C      1  0.5534850000000  0.4389280000000  0.4477740000000 1.0
C      1  0.4379470000000  0.5622820000000  0.4796110000000 1.0
C      1  0.4763710000000  0.4786930000000  0.5100960000000 1.0
C      1  0.4630160000000  0.5047670000000  0.5281400000000 1.0
C      1  0.4731010000000  0.4688130000000  0.4561880000000 1.0
C      1  0.4439900000000  0.4570650000000  0.5425980000000 1.0
END
