TITL C-2778422-5617-906 0.00287683651462341 125000 -259.975898368155 0 0 48 (C1) n - 1
REM
REM in /home/nfs/bkarasulu/CARBON/AIRSS/Generating-Clusters/REBO/Only-C1/SD-CG/HFTN-CG
REM
REM
REM
REM
REM
REM ./C.cell (11c1c37f851c82e70ff6c80c92926a4b)
REM
REM compiler GCC version 9.2.1 20190827 (Red Hat 9.2.1-1)
REM options -cpp -mtune=generic -march=x86-64 -g -O0 -fpre-include=/usr/include/finclude/math-vector-fortran.h
REM seed 993132191 -37443533 -308418811 -42915082 -1660853859 724451738 -1754770036 -1922826284 -572181163 -339548457 -452591107 -341699624 -1754537977 2020482212 -345464782 -651626081 1321469245 1577561283 1417678070 381022959 1197450576 -31176012 -1448165640 1458742049 1070415265 1213276648 274794340 -636517856 -727172457 1156311431 302134183 1850543524 170915864
REM
CELL 1.54180   50.00000   50.00000   50.00000   90.00000   90.00000   90.00000
LATT -1
SFAC C  
C      1  0.4180790000000  0.5069910000000  0.4720130000000 1.0
C      1  0.4847450000000  0.4749510000000  0.5036160000000 1.0
C      1  0.5369580000000  0.5554690000000  0.5429340000000 1.0
C      1  0.5315940000000  0.5372980000000  0.4706230000000 1.0
C      1  0.4758840000000  0.4429870000000  0.5116190000000 1.0
C      1  0.5376450000000  0.4836390000000  0.5396920000000 1.0
C      1  0.5159970000000  0.4826550000000  0.4954640000000 1.0
C      1  0.5412010000000  0.4887280000000  0.5131740000000 1.0
C      1  0.5239150000000  0.4368120000000  0.5241980000000 1.0
C      1  0.5187640000000  0.5138110000000  0.5575700000000 1.0
C      1  0.5513330000000  0.5452210000000  0.4973430000000 1.0
C      1  0.4526400000000  0.4883710000000  0.5254290000000 1.0
C      1  0.5323990000000  0.5410880000000  0.5700890000000 1.0
C      1  0.5068670000000  0.4835950000000  0.5542080000000 1.0
C      1  0.5619510000000  0.5381120000000  0.5277020000000 1.0
C      1  0.5300400000000  0.4322390000000  0.4971140000000 1.0
C      1  0.4919990000000  0.5607680000000  0.5085690000000 1.0
C      1  0.4665170000000  0.4892720000000  0.4790910000000 1.0
C      1  0.5563230000000  0.5138190000000  0.4732610000000 1.0
C      1  0.4807700000000  0.5430890000000  0.5277020000000 1.0
C      1  0.5220370000000  0.4576050000000  0.4769220000000 1.0
C      1  0.4456480000000  0.4675670000000  0.5065460000000 1.0
C      1  0.4526130000000  0.5380620000000  0.5272100000000 1.0
C      1  0.4749250000000  0.4481420000000  0.4505450000000 1.0
C      1  0.5517540000000  0.5199510000000  0.5516090000000 1.0
C      1  0.4592570000000  0.4560410000000  0.4779180000000 1.0
C      1  0.5053600000000  0.4265660000000  0.4777710000000 1.0
C      1  0.4605380000000  0.5368190000000  0.4748260000000 1.0
C      1  0.5238760000000  0.5380480000000  0.5167560000000 1.0
C      1  0.5061970000000  0.5598920000000  0.4713800000000 1.0
C      1  0.4449460000000  0.5115470000000  0.4856040000000 1.0
C      1  0.5073960000000  0.4532080000000  0.4491210000000 1.0
C      1  0.5043510000000  0.4641930000000  0.5293660000000 1.0
C      1  0.4747930000000  0.5637500000000  0.4826180000000 1.0
C      1  0.4873100000000  0.4732290000000  0.4352910000000 1.0
C      1  0.4934850000000  0.5289380000000  0.4788910000000 1.0
C      1  0.4957210000000  0.5165800000000  0.5349830000000 1.0
C      1  0.5096920000000  0.5148090000000  0.4544440000000 1.0
C      1  0.4782890000000  0.4287290000000  0.4851660000000 1.0
C      1  0.4763980000000  0.4903440000000  0.5403350000000 1.0
C      1  0.5240480000000  0.5657190000000  0.4980190000000 1.0
C      1  0.5064570000000  0.5143300000000  0.5037640000000 1.0
C      1  0.4834050000000  0.4981300000000  0.4509140000000 1.0
C      1  0.4584620000000  0.5179810000000  0.4485330000000 1.0
C      1  0.5613160000000  0.5018260000000  0.4982410000000 1.0
C      1  0.4433380000000  0.5137550000000  0.5157920000000 1.0
C      1  0.5391860000000  0.5030220000000  0.4519370000000 1.0
C      1  0.4935800000000  0.4323030000000  0.5340860000000 1.0
END
