TITL C-2778423-5760-1452 0.00197222375863817 125000 -1082.68772282675 0 0 185 (C1) n - 1
REM
REM in /home/nfs/bkarasulu/CARBON/AIRSS/Generating-Clusters/REBO/Only-C1/SD-CG/HFTN-CG
REM
REM
REM
REM
REM
REM ./C.cell (11c1c37f851c82e70ff6c80c92926a4b)
REM
REM compiler GCC version 9.2.1 20190827 (Red Hat 9.2.1-1)
REM options -cpp -mtune=generic -march=x86-64 -g -O0 -fpre-include=/usr/include/finclude/math-vector-fortran.h
REM seed -1093212746 -2108067882 1328397538 765081484 2090891311 1451270125 1418367295 -1101534426 1665529922 412385232 -269272731 698015837 519376478 -2142746083 1040887568 -613031680 -1620848566 998710491 -779018487 -1262732868 80785252 -1842914468 1017080475 26606085 -466243178 -710089121 -1495740829 2065919605 688002005 339764415 577433675 -1059757273 178598210
REM
CELL 1.54180   50.00000   50.00000   50.00000   90.00000   90.00000   90.00000
LATT -1
SFAC C  
C      1  0.5370960000000  0.4409280000000  0.4204520000000 1.0
C      1  0.5135870000000  0.5126900000000  0.5002890000000 1.0
C      1  0.4133240000000  0.5459560000000  0.5269390000000 1.0
C      1  0.4478230000000  0.5975160000000  0.4903830000000 1.0
C      1  0.4302110000000  0.4337170000000  0.5676940000000 1.0
C      1  0.4091370000000  0.5069870000000  0.5343730000000 1.0
C      1  0.3951710000000  0.5338110000000  0.5010820000000 1.0
C      1  0.5252210000000  0.4836170000000  0.3953860000000 1.0
C      1  0.4889180000000  0.4699710000000  0.4987890000000 1.0
C      1  0.4990670000000  0.4585370000000  0.5918800000000 1.0
C      1  0.5378740000000  0.5474200000000  0.4145380000000 1.0
C      1  0.4847270000000  0.4843210000000  0.5255130000000 1.0
C      1  0.4492500000000  0.4676820000000  0.4685970000000 1.0
C      1  0.4419520000000  0.4547560000000  0.5201120000000 1.0
C      1  0.5147280000000  0.3951330000000  0.4768740000000 1.0
C      1  0.4650870000000  0.5193920000000  0.6036060000000 1.0
C      1  0.4896940000000  0.5542780000000  0.3991020000000 1.0
C      1  0.5629200000000  0.4950510000000  0.5005180000000 1.0
C      1  0.3913760000000  0.5097200000000  0.4523390000000 1.0
C      1  0.5734240000000  0.4775050000000  0.4123250000000 1.0
C      1  0.5191110000000  0.4784250000000  0.5980690000000 1.0
C      1  0.5314790000000  0.3838670000000  0.5253230000000 1.0
C      1  0.4129460000000  0.5544450000000  0.4682890000000 1.0
C      1  0.5918750000000  0.4509320000000  0.4627300000000 1.0
C      1  0.5406070000000  0.5315210000000  0.4647200000000 1.0
C      1  0.5199450000000  0.5337380000000  0.5329240000000 1.0
C      1  0.5140000000000  0.5888990000000  0.4306730000000 1.0
C      1  0.4602920000000  0.4561860000000  0.4932440000000 1.0
C      1  0.4767670000000  0.5591070000000  0.4445870000000 1.0
C      1  0.4812250000000  0.5212810000000  0.5066140000000 1.0
C      1  0.5527480000000  0.4418480000000  0.5258530000000 1.0
C      1  0.5084390000000  0.6081010000000  0.4514060000000 1.0
C      1  0.5670670000000  0.4063570000000  0.4607430000000 1.0
C      1  0.4933050000000  0.4768900000000  0.4416820000000 1.0
C      1  0.4537660000000  0.4926650000000  0.5304900000000 1.0
C      1  0.4609760000000  0.5489490000000  0.4165160000000 1.0
C      1  0.4087520000000  0.4752970000000  0.5467980000000 1.0
C      1  0.5185890000000  0.5922990000000  0.5574160000000 1.0
C      1  0.3730810000000  0.4819510000000  0.4500130000000 1.0
C      1  0.5882890000000  0.5081290000000  0.4958550000000 1.0
C      1  0.5437760000000  0.4832780000000  0.5830020000000 1.0
C      1  0.4078730000000  0.5304540000000  0.5568430000000 1.0
C      1  0.5801020000000  0.5206210000000  0.5921610000000 1.0
C      1  0.5067300000000  0.4015960000000  0.4454230000000 1.0
C      1  0.4829790000000  0.4487980000000  0.4152720000000 1.0
C      1  0.6055640000000  0.5322380000000  0.4952750000000 1.0
C      1  0.5178330000000  0.4910010000000  0.4562870000000 1.0
C      1  0.5901020000000  0.4941140000000  0.4350320000000 1.0
C      1  0.4128210000000  0.5151520000000  0.4283340000000 1.0
C      1  0.4116460000000  0.5758240000000  0.4872420000000 1.0
C      1  0.4232240000000  0.4843280000000  0.5730710000000 1.0
C      1  0.5955800000000  0.5042390000000  0.5659120000000 1.0
C      1  0.5500690000000  0.5932460000000  0.5088710000000 1.0
C      1  0.4714270000000  0.5538550000000  0.5113090000000 1.0
C      1  0.4711020000000  0.4380510000000  0.5267030000000 1.0
C      1  0.4196060000000  0.5731820000000  0.5134310000000 1.0
C      1  0.5756550000000  0.4873730000000  0.4637010000000 1.0
C      1  0.5017110000000  0.5157780000000  0.4387480000000 1.0
C      1  0.4278380000000  0.4227330000000  0.4668200000000 1.0
C      1  0.5183920000000  0.3917370000000  0.5501020000000 1.0
C      1  0.5721890000000  0.5565330000000  0.5493410000000 1.0
C      1  0.4955650000000  0.5245360000000  0.5994500000000 1.0
C      1  0.5672210000000  0.4393120000000  0.4564160000000 1.0
C      1  0.5366860000000  0.4143120000000  0.4502580000000 1.0
C      1  0.5317020000000  0.5224560000000  0.4359890000000 1.0
C      1  0.4411880000000  0.4598180000000  0.5855400000000 1.0
C      1  0.5085140000000  0.4291100000000  0.4261490000000 1.0
C      1  0.4542160000000  0.4592030000000  0.4237140000000 1.0
C      1  0.4810170000000  0.5792840000000  0.5553600000000 1.0
C      1  0.4895940000000  0.5353340000000  0.4583700000000 1.0
C      1  0.4917510000000  0.5737980000000  0.4215480000000 1.0
C      1  0.4011210000000  0.4887920000000  0.4775130000000 1.0
C      1  0.4915420000000  0.5468930000000  0.5575110000000 1.0
C      1  0.4829090000000  0.5046570000000  0.4151120000000 1.0
C      1  0.5383730000000  0.5742410000000  0.4299640000000 1.0
C      1  0.5904060000000  0.5422530000000  0.4495250000000 1.0
C      1  0.5808740000000  0.5836380000000  0.5120910000000 1.0
C      1  0.5948620000000  0.4206160000000  0.5016660000000 1.0
C      1  0.4621240000000  0.6097380000000  0.4634210000000 1.0
C      1  0.3759860000000  0.4610030000000  0.4638940000000 1.0
C      1  0.4702040000000  0.5186480000000  0.4758220000000 1.0
C      1  0.4845790000000  0.3875950000000  0.5139050000000 1.0
C      1  0.5939260000000  0.5270670000000  0.5334850000000 1.0
C      1  0.5433470000000  0.4672290000000  0.4408540000000 1.0
C      1  0.4317190000000  0.4925240000000  0.4723460000000 1.0
C      1  0.5903970000000  0.4692490000000  0.4875790000000 1.0
C      1  0.4150020000000  0.4438600000000  0.5389730000000 1.0
C      1  0.5464020000000  0.4660320000000  0.4013600000000 1.0
C      1  0.5346230000000  0.5643160000000  0.4864370000000 1.0
C      1  0.6024590000000  0.5071310000000  0.4643370000000 1.0
C      1  0.5723720000000  0.5555050000000  0.4944890000000 1.0
C      1  0.5163370000000  0.4289650000000  0.4728340000000 1.0
C      1  0.5901330000000  0.5379250000000  0.5656350000000 1.0
C      1  0.4576620000000  0.4928060000000  0.4290750000000 1.0
C      1  0.6058140000000  0.4428550000000  0.5133400000000 1.0
C      1  0.5219860000000  0.4483190000000  0.5395330000000 1.0
C      1  0.5469480000000  0.5002680000000  0.4713600000000 1.0
C      1  0.4133160000000  0.4287520000000  0.4899000000000 1.0
C      1  0.5161300000000  0.5975260000000  0.5057950000000 1.0
C      1  0.4767480000000  0.4848010000000  0.5718400000000 1.0
C      1  0.4957450000000  0.5971380000000  0.4809850000000 1.0
C      1  0.4900340000000  0.4463090000000  0.4484250000000 1.0
C      1  0.4227200000000  0.4204690000000  0.5168950000000 1.0
C      1  0.5324740000000  0.5405940000000  0.5943710000000 1.0
C      1  0.4490920000000  0.5005120000000  0.5633540000000 1.0
C      1  0.4608200000000  0.4951050000000  0.6161770000000 1.0
C      1  0.5137980000000  0.3839120000000  0.5021710000000 1.0
C      1  0.4971470000000  0.4759640000000  0.4077690000000 1.0
C      1  0.5650910000000  0.4383680000000  0.5547790000000 1.0
C      1  0.5655740000000  0.4649640000000  0.5101390000000 1.0
C      1  0.4869560000000  0.5149580000000  0.5684830000000 1.0
C      1  0.5232120000000  0.4136960000000  0.5685140000000 1.0
C      1  0.4139160000000  0.4910660000000  0.4087040000000 1.0
C      1  0.5925790000000  0.4928330000000  0.5350190000000 1.0
C      1  0.5040570000000  0.5535130000000  0.5093830000000 1.0
C      1  0.4985830000000  0.5977470000000  0.5346990000000 1.0
C      1  0.4696170000000  0.4914680000000  0.4599640000000 1.0
C      1  0.4810390000000  0.4623370000000  0.5485430000000 1.0
C      1  0.5972670000000  0.5540660000000  0.5169340000000 1.0
C      1  0.4891340000000  0.4206150000000  0.5114300000000 1.0
C      1  0.5387920000000  0.5353990000000  0.5043060000000 1.0
C      1  0.4393820000000  0.5244090000000  0.5331410000000 1.0
C      1  0.5408160000000  0.4521060000000  0.4707090000000 1.0
C      1  0.4883030000000  0.4430890000000  0.4786670000000 1.0
C      1  0.4069730000000  0.4732790000000  0.5135200000000 1.0
C      1  0.5868620000000  0.5247560000000  0.4279810000000 1.0
C      1  0.3926510000000  0.5028120000000  0.5062420000000 1.0
C      1  0.5570420000000  0.5548770000000  0.5254090000000 1.0
C      1  0.4549920000000  0.5635670000000  0.4877090000000 1.0
C      1  0.4730300000000  0.5258940000000  0.5393830000000 1.0
C      1  0.5657000000000  0.5506910000000  0.4655140000000 1.0
C      1  0.4298900000000  0.4721450000000  0.4075170000000 1.0
C      1  0.5624670000000  0.5258060000000  0.4118590000000 1.0
C      1  0.4127290000000  0.5147780000000  0.5802170000000 1.0
C      1  0.5601940000000  0.4854420000000  0.5437810000000 1.0
C      1  0.5435370000000  0.5926210000000  0.4762500000000 1.0
C      1  0.4764820000000  0.5985450000000  0.5093190000000 1.0
C      1  0.4506560000000  0.5271310000000  0.5797070000000 1.0
C      1  0.4374300000000  0.5120860000000  0.4485740000000 1.0
C      1  0.4771960000000  0.5698560000000  0.5868870000000 1.0
C      1  0.5098670000000  0.5113510000000  0.3954130000000 1.0
C      1  0.5160280000000  0.5671420000000  0.5701040000000 1.0
C      1  0.4410690000000  0.5362340000000  0.4728170000000 1.0
C      1  0.4465580000000  0.4443590000000  0.4493440000000 1.0
C      1  0.4361740000000  0.5378280000000  0.4182260000000 1.0
C      1  0.4547230000000  0.5535770000000  0.5708870000000 1.0
C      1  0.5653790000000  0.4632470000000  0.5676970000000 1.0
C      1  0.5535950000000  0.5762730000000  0.4534030000000 1.0
C      1  0.4708600000000  0.4043910000000  0.4876400000000 1.0
C      1  0.4261310000000  0.5225560000000  0.4977490000000 1.0
C      1  0.4473310000000  0.5846270000000  0.5207570000000 1.0
C      1  0.5127790000000  0.4862050000000  0.4862040000000 1.0
C      1  0.5114120000000  0.5446050000000  0.4769820000000 1.0
C      1  0.4586570000000  0.5629750000000  0.5396520000000 1.0
C      1  0.5025340000000  0.5550670000000  0.5990170000000 1.0
C      1  0.4586990000000  0.4171480000000  0.4664430000000 1.0
C      1  0.5138070000000  0.5391660000000  0.3957270000000 1.0
C      1  0.5634890000000  0.5180620000000  0.5435590000000 1.0
C      1  0.5560700000000  0.5330310000000  0.6057890000000 1.0
C      1  0.4830250000000  0.6242810000000  0.4537400000000 1.0
C      1  0.4897090000000  0.3914950000000  0.5451670000000 1.0
C      1  0.5275770000000  0.4603450000000  0.5010370000000 1.0
C      1  0.5305170000000  0.5391000000000  0.5602440000000 1.0
C      1  0.4765770000000  0.4143210000000  0.5576490000000 1.0
C      1  0.5109750000000  0.5009530000000  0.5306450000000 1.0
C      1  0.5284050000000  0.5718020000000  0.5245110000000 1.0
C      1  0.5170830000000  0.4300880000000  0.5126020000000 1.0
C      1  0.5002420000000  0.4386560000000  0.5642610000000 1.0
C      1  0.5707720000000  0.4091470000000  0.4915500000000 1.0
C      1  0.3982360000000  0.4557800000000  0.4880230000000 1.0
C      1  0.5492600000000  0.4972940000000  0.4260360000000 1.0
C      1  0.4488940000000  0.4585140000000  0.5529540000000 1.0
C      1  0.4718990000000  0.5778770000000  0.4660220000000 1.0
C      1  0.6142080000000  0.5380310000000  0.4672110000000 1.0
C      1  0.4331240000000  0.4923210000000  0.5061600000000 1.0
C      1  0.6040540000000  0.4718030000000  0.5171810000000 1.0
C      1  0.5333960000000  0.4779510000000  0.5299200000000 1.0
C      1  0.4679030000000  0.4690640000000  0.5995600000000 1.0
C      1  0.5456710000000  0.5118020000000  0.5701190000000 1.0
C      1  0.4469790000000  0.4203540000000  0.5412930000000 1.0
C      1  0.3888610000000  0.5362270000000  0.4685950000000 1.0
C      1  0.5478330000000  0.4170190000000  0.5061970000000 1.0
C      1  0.5770400000000  0.4876770000000  0.5873660000000 1.0
C      1  0.5615340000000  0.4199980000000  0.4291730000000 1.0
C      1  0.5112610000000  0.5009580000000  0.6119410000000 1.0
END
