TITL C-2778423-5760-584 -0.0076446566656395 125000 -897.115675524573 0 0 156 (C1) n - 1
REM
REM in /home/nfs/bkarasulu/CARBON/AIRSS/Generating-Clusters/REBO/Only-C1/SD-CG/HFTN-CG
REM
REM
REM
REM
REM
REM ./C.cell (11c1c37f851c82e70ff6c80c92926a4b)
REM
REM compiler GCC version 9.2.1 20190827 (Red Hat 9.2.1-1)
REM options -cpp -mtune=generic -march=x86-64 -g -O0 -fpre-include=/usr/include/finclude/math-vector-fortran.h
REM seed 694387525 -444531504 1558642682 97452673 1761602174 -388312632 1446778545 1327203587 1053627902 -235154725 -1907766017 -57973108 811244733 -1956860425 810389045 303296765 -1629485748 -1020716132 194298700 1611235661 759799935 -260306284 815560250 314540865 -849508468 -282938686 -876489254 -7173227 -132207180 -1545824924 -512755673 2098013024 77882096
REM
CELL 1.54180   50.00000   50.00000   50.00000   90.00000   90.00000   90.00000
LATT -1
SFAC C  
C      1  0.4227510000000  0.5640390000000  0.5209110000000 1.0
C      1  0.5939710000000  0.5285570000000  0.4642790000000 1.0
C      1  0.5159520000000  0.5068780000000  0.5524850000000 1.0
C      1  0.5087930000000  0.4905870000000  0.5036840000000 1.0
C      1  0.5244040000000  0.5454420000000  0.5569960000000 1.0
C      1  0.5038590000000  0.5611190000000  0.5058200000000 1.0
C      1  0.5703600000000  0.4556550000000  0.4347420000000 1.0
C      1  0.5360870000000  0.5837800000000  0.4519390000000 1.0
C      1  0.4893680000000  0.4756710000000  0.4708230000000 1.0
C      1  0.5688250000000  0.5347960000000  0.4856910000000 1.0
C      1  0.4935010000000  0.5249720000000  0.5972100000000 1.0
C      1  0.4686980000000  0.5262410000000  0.5014100000000 1.0
C      1  0.5321470000000  0.4664220000000  0.4304640000000 1.0
C      1  0.6143020000000  0.4953510000000  0.5189360000000 1.0
C      1  0.4862450000000  0.4959720000000  0.5510130000000 1.0
C      1  0.5023340000000  0.5232720000000  0.4545210000000 1.0
C      1  0.4787020000000  0.5373560000000  0.5384120000000 1.0
C      1  0.4389770000000  0.4266310000000  0.4636030000000 1.0
C      1  0.4483690000000  0.4582270000000  0.4971710000000 1.0
C      1  0.5475350000000  0.5858650000000  0.5054060000000 1.0
C      1  0.5500960000000  0.5343720000000  0.4389810000000 1.0
C      1  0.5124240000000  0.5421830000000  0.4281090000000 1.0
C      1  0.4597070000000  0.5798160000000  0.4644130000000 1.0
C      1  0.5450470000000  0.5713540000000  0.5511120000000 1.0
C      1  0.4543520000000  0.4841230000000  0.4552090000000 1.0
C      1  0.4347750000000  0.5463300000000  0.5632580000000 1.0
C      1  0.4317140000000  0.4565260000000  0.5521190000000 1.0
C      1  0.5540310000000  0.4735080000000  0.4117490000000 1.0
C      1  0.4082920000000  0.4579170000000  0.5317620000000 1.0
C      1  0.5523230000000  0.4585350000000  0.5595170000000 1.0
C      1  0.4825620000000  0.4101080000000  0.4332680000000 1.0
C      1  0.4874620000000  0.4143280000000  0.5486330000000 1.0
C      1  0.5216900000000  0.5091690000000  0.4786550000000 1.0
C      1  0.5478790000000  0.5714840000000  0.4058870000000 1.0
C      1  0.4475620000000  0.4615170000000  0.5815030000000 1.0
C      1  0.4468490000000  0.4933330000000  0.5559030000000 1.0
C      1  0.4195860000000  0.4567390000000  0.4806370000000 1.0
C      1  0.3954080000000  0.5111990000000  0.4476710000000 1.0
C      1  0.5279110000000  0.5364250000000  0.6135180000000 1.0
C      1  0.5604940000000  0.4895430000000  0.3909380000000 1.0
C      1  0.5750480000000  0.4883320000000  0.5212160000000 1.0
C      1  0.4603170000000  0.5382130000000  0.4777940000000 1.0
C      1  0.5111560000000  0.5896520000000  0.5450370000000 1.0
C      1  0.4967580000000  0.5926910000000  0.4968520000000 1.0
C      1  0.5361380000000  0.5046500000000  0.4409050000000 1.0
C      1  0.4632080000000  0.5359700000000  0.4479310000000 1.0
C      1  0.5246790000000  0.4660700000000  0.4861170000000 1.0
C      1  0.5180830000000  0.5049050000000  0.6078150000000 1.0
C      1  0.5933470000000  0.5089140000000  0.5500540000000 1.0
C      1  0.4364980000000  0.5350410000000  0.4325730000000 1.0
C      1  0.5588590000000  0.4290470000000  0.4496390000000 1.0
C      1  0.5081110000000  0.5465230000000  0.4782960000000 1.0
C      1  0.4168720000000  0.5360510000000  0.5378480000000 1.0
C      1  0.4693220000000  0.5662280000000  0.4017670000000 1.0
C      1  0.5970010000000  0.4872310000000  0.4674590000000 1.0
C      1  0.4752140000000  0.4929240000000  0.4973640000000 1.0
C      1  0.5714020000000  0.5024590000000  0.4840420000000 1.0
C      1  0.4978620000000  0.5198710000000  0.5163590000000 1.0
C      1  0.4600160000000  0.4579240000000  0.4251840000000 1.0
C      1  0.4751870000000  0.5074510000000  0.4435070000000 1.0
C      1  0.4595270000000  0.4911740000000  0.4179980000000 1.0
C      1  0.4279580000000  0.5304470000000  0.4999370000000 1.0
C      1  0.5464520000000  0.4894120000000  0.4908800000000 1.0
C      1  0.5066970000000  0.3992370000000  0.4550610000000 1.0
C      1  0.5709580000000  0.5740790000000  0.5187890000000 1.0
C      1  0.4305380000000  0.4749980000000  0.4267850000000 1.0
C      1  0.4361410000000  0.5530810000000  0.4085290000000 1.0
C      1  0.4739870000000  0.5759030000000  0.5144100000000 1.0
C      1  0.4912960000000  0.4356340000000  0.5744190000000 1.0
C      1  0.5086810000000  0.4281290000000  0.5020210000000 1.0
C      1  0.5597200000000  0.4277180000000  0.5153560000000 1.0
C      1  0.5781750000000  0.5449450000000  0.5131230000000 1.0
C      1  0.3841470000000  0.4492340000000  0.5444210000000 1.0
C      1  0.5743480000000  0.5655210000000  0.5657090000000 1.0
C      1  0.5117650000000  0.5107600000000  0.4178150000000 1.0
C      1  0.5286380000000  0.4929090000000  0.5794520000000 1.0
C      1  0.3907650000000  0.4917630000000  0.4903760000000 1.0
C      1  0.4681490000000  0.4703630000000  0.6003420000000 1.0
C      1  0.5754490000000  0.4610740000000  0.4677420000000 1.0
C      1  0.4853380000000  0.5691910000000  0.5433390000000 1.0
C      1  0.4726960000000  0.4982640000000  0.6008290000000 1.0
C      1  0.5094280000000  0.4846610000000  0.4477420000000 1.0
C      1  0.5300950000000  0.5274520000000  0.5076970000000 1.0
C      1  0.5827290000000  0.5819810000000  0.5433630000000 1.0
C      1  0.5291270000000  0.4470790000000  0.5803250000000 1.0
C      1  0.5543690000000  0.5385880000000  0.5713580000000 1.0
C      1  0.5134100000000  0.4682670000000  0.5606210000000 1.0
C      1  0.5147410000000  0.6010050000000  0.4506300000000 1.0
C      1  0.5444350000000  0.5762960000000  0.4777440000000 1.0
C      1  0.4975590000000  0.4795610000000  0.4171010000000 1.0
C      1  0.5012020000000  0.4458050000000  0.4777200000000 1.0
C      1  0.5737010000000  0.5170920000000  0.4458080000000 1.0
C      1  0.5373870000000  0.4091530000000  0.5001920000000 1.0
C      1  0.5378040000000  0.4080340000000  0.4661460000000 1.0
C      1  0.5309090000000  0.4399930000000  0.4377630000000 1.0
C      1  0.4771550000000  0.4311780000000  0.4133660000000 1.0
C      1  0.4448390000000  0.4873600000000  0.4836430000000 1.0
C      1  0.5731920000000  0.4503180000000  0.4973510000000 1.0
C      1  0.4054050000000  0.5081480000000  0.5425870000000 1.0
C      1  0.4699680000000  0.4215590000000  0.4598220000000 1.0
C      1  0.5367150000000  0.4836010000000  0.5418180000000 1.0
C      1  0.5996140000000  0.4765410000000  0.5423490000000 1.0
C      1  0.4840370000000  0.5047820000000  0.3988700000000 1.0
C      1  0.5175920000000  0.4295490000000  0.5531080000000 1.0
C      1  0.4685420000000  0.4531750000000  0.4559120000000 1.0
C      1  0.4630690000000  0.4889880000000  0.5289360000000 1.0
C      1  0.4780730000000  0.5536690000000  0.5904120000000 1.0
C      1  0.5084940000000  0.4314190000000  0.4525390000000 1.0
C      1  0.4905330000000  0.5580040000000  0.4133740000000 1.0
C      1  0.4215420000000  0.5478910000000  0.4785150000000 1.0
C      1  0.5414030000000  0.5462490000000  0.4797880000000 1.0
C      1  0.3802950000000  0.4970550000000  0.4664480000000 1.0
C      1  0.6021470000000  0.5143650000000  0.4938100000000 1.0
C      1  0.4903430000000  0.5920630000000  0.4671350000000 1.0
C      1  0.4917880000000  0.5728420000000  0.5745160000000 1.0
C      1  0.5189250000000  0.4709670000000  0.6026200000000 1.0
C      1  0.4125990000000  0.5356490000000  0.4542620000000 1.0
C      1  0.5493000000000  0.4661940000000  0.5171260000000 1.0
C      1  0.4983560000000  0.5316020000000  0.5641550000000 1.0
C      1  0.4629940000000  0.4446000000000  0.5575580000000 1.0
C      1  0.5074850000000  0.3966880000000  0.4890760000000 1.0
C      1  0.5289300000000  0.4393810000000  0.5248150000000 1.0
C      1  0.5272220000000  0.5558960000000  0.5263160000000 1.0
C      1  0.4202050000000  0.5052400000000  0.4300690000000 1.0
C      1  0.4681360000000  0.4084490000000  0.5315550000000 1.0
C      1  0.4860270000000  0.5597330000000  0.4565940000000 1.0
C      1  0.5382670000000  0.5616520000000  0.4304630000000 1.0
C      1  0.4255720000000  0.4517590000000  0.4508680000000 1.0
C      1  0.4438940000000  0.5745620000000  0.5134510000000 1.0
C      1  0.5232550000000  0.5804010000000  0.5759190000000 1.0
C      1  0.5616720000000  0.5145760000000  0.5558060000000 1.0
C      1  0.4897560000000  0.4537240000000  0.3988650000000 1.0
C      1  0.6026270000000  0.5268480000000  0.5254450000000 1.0
C      1  0.5222330000000  0.5945760000000  0.5177000000000 1.0
C      1  0.5407600000000  0.4405680000000  0.4763750000000 1.0
C      1  0.5641280000000  0.4866350000000  0.4479960000000 1.0
C      1  0.4144420000000  0.4403180000000  0.5072890000000 1.0
C      1  0.4922540000000  0.4548270000000  0.5978590000000 1.0
C      1  0.4874150000000  0.4623120000000  0.5450960000000 1.0
C      1  0.4336530000000  0.4213710000000  0.4929310000000 1.0
C      1  0.4832450000000  0.4763510000000  0.3802140000000 1.0
C      1  0.5363200000000  0.5544980000000  0.5937930000000 1.0
C      1  0.4570440000000  0.5389370000000  0.5763110000000 1.0
C      1  0.4579060000000  0.4101900000000  0.5053440000000 1.0
C      1  0.4205460000000  0.4951410000000  0.5617760000000 1.0
C      1  0.4488740000000  0.5342960000000  0.5261970000000 1.0
C      1  0.4041590000000  0.4873490000000  0.5202470000000 1.0
C      1  0.5966170000000  0.4750460000000  0.4984990000000 1.0
C      1  0.5594380000000  0.5179800000000  0.5222250000000 1.0
C      1  0.5719650000000  0.4833850000000  0.5607040000000 1.0
C      1  0.4365490000000  0.5715840000000  0.4742700000000 1.0
C      1  0.4220650000000  0.5013800000000  0.4956030000000 1.0
C      1  0.4654600000000  0.5104420000000  0.5730710000000 1.0
C      1  0.4649650000000  0.4581070000000  0.5197670000000 1.0
C      1  0.4777430000000  0.4074910000000  0.4853380000000 1.0
C      1  0.5635100000000  0.4362520000000  0.5444770000000 1.0
END
