TITL C-2778430-5657-33 -0.000811459141605461 125000 -362.577583336451 0 0 64 (C1) n - 1
REM
REM in /home/nfs/bkarasulu/CARBON/AIRSS/Generating-Clusters/REBO/Only-C1/SD-CG/HFTN-CG
REM
REM
REM
REM
REM
REM ./C.cell (11c1c37f851c82e70ff6c80c92926a4b)
REM
REM compiler GCC version 9.2.1 20190827 (Red Hat 9.2.1-1)
REM options -cpp -mtune=generic -march=x86-64 -g -O0 -fpre-include=/usr/include/finclude/math-vector-fortran.h
REM seed -2000023912 -1377308314 1708798319 -1610896076 1715577942 -1258606133 -951566858 -655868017 1442416659 1942697418 1827386587 106139713 1001564090 713532509 475430705 -360629880 212472596 -1395554971 1515161295 -1782179836 1910611376 -361662866 -731760564 -2050479026 -1787025838 -909630864 1481452237 -1341630574 -2002360660 1600659744 217443629 776978039 1797239408
REM
CELL 1.54180   50.00000   50.00000   50.00000   90.00000   90.00000   90.00000
LATT -1
SFAC C  
C      1  0.4364470000000  0.4451270000000  0.4722640000000 1.0
C      1  0.5140850000000  0.4342930000000  0.5139880000000 1.0
C      1  0.5041420000000  0.4986920000000  0.4930780000000 1.0
C      1  0.5065570000000  0.4563580000000  0.4598720000000 1.0
C      1  0.5604710000000  0.4613580000000  0.4753700000000 1.0
C      1  0.5543190000000  0.4582440000000  0.5155410000000 1.0
C      1  0.4745470000000  0.5548790000000  0.5704530000000 1.0
C      1  0.4962200000000  0.5879720000000  0.5113250000000 1.0
C      1  0.4970660000000  0.4596520000000  0.5290360000000 1.0
C      1  0.5182540000000  0.4736620000000  0.5082800000000 1.0
C      1  0.4371810000000  0.5321240000000  0.4963910000000 1.0
C      1  0.5144590000000  0.4647990000000  0.5646300000000 1.0
C      1  0.4699380000000  0.5596830000000  0.4695280000000 1.0
C      1  0.5475640000000  0.4772070000000  0.4342580000000 1.0
C      1  0.5151870000000  0.5698270000000  0.5047680000000 1.0
C      1  0.4682730000000  0.5359560000000  0.5446370000000 1.0
C      1  0.5449910000000  0.5093350000000  0.4456100000000 1.0
C      1  0.4949910000000  0.4197590000000  0.4980800000000 1.0
C      1  0.5255250000000  0.5491130000000  0.4798230000000 1.0
C      1  0.5540690000000  0.5076470000000  0.4959290000000 1.0
C      1  0.5311320000000  0.5015610000000  0.5513920000000 1.0
C      1  0.4738090000000  0.4826590000000  0.4307700000000 1.0
C      1  0.5572150000000  0.5098010000000  0.5356260000000 1.0
C      1  0.4768620000000  0.4662100000000  0.4529170000000 1.0
C      1  0.5517740000000  0.5349420000000  0.4670030000000 1.0
C      1  0.4851590000000  0.5266070000000  0.5792800000000 1.0
C      1  0.5005030000000  0.4919670000000  0.5388710000000 1.0
C      1  0.4759600000000  0.4322100000000  0.4525930000000 1.0
C      1  0.5358450000000  0.4318270000000  0.4700620000000 1.0
C      1  0.4687600000000  0.4276830000000  0.5065350000000 1.0
C      1  0.4391880000000  0.5230500000000  0.4689370000000 1.0
C      1  0.4759560000000  0.5353410000000  0.5132650000000 1.0
C      1  0.4922100000000  0.4732220000000  0.5730350000000 1.0
C      1  0.4707410000000  0.5781320000000  0.5201680000000 1.0
C      1  0.4527630000000  0.4677610000000  0.4755570000000 1.0
C      1  0.5028000000000  0.4235560000000  0.4686060000000 1.0
C      1  0.5340320000000  0.4706090000000  0.5386410000000 1.0
C      1  0.5004730000000  0.5253580000000  0.5425940000000 1.0
C      1  0.5095290000000  0.5404450000000  0.5153490000000 1.0
C      1  0.5514050000000  0.4916020000000  0.4711910000000 1.0
C      1  0.5640570000000  0.4864750000000  0.5177010000000 1.0
C      1  0.5146670000000  0.5113950000000  0.4399420000000 1.0
C      1  0.4677070000000  0.5756200000000  0.5486360000000 1.0
C      1  0.4588650000000  0.5572030000000  0.4982990000000 1.0
C      1  0.5368600000000  0.4538620000000  0.4441410000000 1.0
C      1  0.4831360000000  0.5185820000000  0.4455390000000 1.0
C      1  0.4500920000000  0.4243750000000  0.4593100000000 1.0
C      1  0.5258400000000  0.5202150000000  0.4977550000000 1.0
C      1  0.5718700000000  0.5346490000000  0.4923030000000 1.0
C      1  0.4382900000000  0.5295350000000  0.5453070000000 1.0
C      1  0.4582080000000  0.4773200000000  0.5039520000000 1.0
C      1  0.4576070000000  0.4974850000000  0.5315690000000 1.0
C      1  0.4618210000000  0.5341470000000  0.4548960000000 1.0
C      1  0.5162510000000  0.5225820000000  0.5722840000000 1.0
C      1  0.5029230000000  0.5653630000000  0.4669900000000 1.0
C      1  0.5399120000000  0.4381660000000  0.5006260000000 1.0
C      1  0.5280860000000  0.4698360000000  0.4794510000000 1.0
C      1  0.4689240000000  0.4525900000000  0.5188430000000 1.0
C      1  0.4833120000000  0.5872020000000  0.4546070000000 1.0
C      1  0.4776500000000  0.5046490000000  0.5055160000000 1.0
C      1  0.4753120000000  0.4999780000000  0.5605460000000 1.0
C      1  0.5669550000000  0.5339910000000  0.5230750000000 1.0
C      1  0.4321430000000  0.5170670000000  0.5198130000000 1.0
C      1  0.4991110000000  0.4974790000000  0.4636470000000 1.0
END
