TITL C-2778427-5640-490 -0.000632542043849716 125000 -601.155010145234 0 0 105 (C1) n - 1
REM
REM in /home/nfs/bkarasulu/CARBON/AIRSS/Generating-Clusters/REBO/Only-C1/SD-CG/HFTN-CG
REM
REM
REM
REM
REM
REM ./C.cell (11c1c37f851c82e70ff6c80c92926a4b)
REM
REM compiler GCC version 9.2.1 20190827 (Red Hat 9.2.1-1)
REM options -cpp -mtune=generic -march=x86-64 -g -O0 -fpre-include=/usr/include/finclude/math-vector-fortran.h
REM seed 1335513455 1245704062 1768075340 -544852931 -1670959327 1815149201 654581329 -1563533748 462301799 -1262719728 -487836713 -314468516 1874713376 -948240563 643784654 473117265 2010289190 -851266927 -1761569460 935459770 -1594053346 -420100537 954758226 -1124317625 413277137 -1417292393 26335851 -841765468 1851519897 -1422209518 53940435 -899291566 1362104947
REM
CELL 1.54180   50.00000   50.00000   50.00000   90.00000   90.00000   90.00000
LATT -1
SFAC C  
C      1  0.5696410000000  0.4627560000000  0.4857750000000 1.0
C      1  0.5622350000000  0.5256600000000  0.5632630000000 1.0
C      1  0.5773760000000  0.5342210000000  0.4940830000000 1.0
C      1  0.5164920000000  0.4618350000000  0.5354900000000 1.0
C      1  0.4876100000000  0.6014500000000  0.5306400000000 1.0
C      1  0.5303950000000  0.4205750000000  0.4842870000000 1.0
C      1  0.4166180000000  0.5001620000000  0.4930890000000 1.0
C      1  0.4976370000000  0.5509980000000  0.4245670000000 1.0
C      1  0.5304600000000  0.4838090000000  0.5579210000000 1.0
C      1  0.4840820000000  0.4575360000000  0.5255060000000 1.0
C      1  0.5678220000000  0.5212670000000  0.5239720000000 1.0
C      1  0.4997580000000  0.4620140000000  0.4164260000000 1.0
C      1  0.4651490000000  0.5406590000000  0.5346570000000 1.0
C      1  0.5396720000000  0.5282260000000  0.5087370000000 1.0
C      1  0.4902720000000  0.5130020000000  0.5723100000000 1.0
C      1  0.4492180000000  0.5651970000000  0.4616500000000 1.0
C      1  0.4439400000000  0.5255890000000  0.4223480000000 1.0
C      1  0.4689690000000  0.5908590000000  0.5477060000000 1.0
C      1  0.4807930000000  0.5405030000000  0.5042850000000 1.0
C      1  0.5721320000000  0.5005490000000  0.4540550000000 1.0
C      1  0.5216520000000  0.5294760000000  0.4210040000000 1.0
C      1  0.4302510000000  0.5271250000000  0.4922620000000 1.0
C      1  0.4366890000000  0.4613140000000  0.5566210000000 1.0
C      1  0.4924290000000  0.4788350000000  0.4450620000000 1.0
C      1  0.5011380000000  0.5641520000000  0.4548650000000 1.0
C      1  0.4278660000000  0.4943060000000  0.5535160000000 1.0
C      1  0.5116360000000  0.5137900000000  0.4709180000000 1.0
C      1  0.4252630000000  0.4546570000000  0.4980470000000 1.0
C      1  0.5837520000000  0.4748460000000  0.4583820000000 1.0
C      1  0.5381510000000  0.5725940000000  0.5257660000000 1.0
C      1  0.5327680000000  0.5560660000000  0.4987520000000 1.0
C      1  0.4171580000000  0.5234770000000  0.5395440000000 1.0
C      1  0.5574080000000  0.5546470000000  0.5459970000000 1.0
C      1  0.4526320000000  0.4191710000000  0.5139910000000 1.0
C      1  0.5291400000000  0.5393230000000  0.5455650000000 1.0
C      1  0.4919930000000  0.4309120000000  0.4822100000000 1.0
C      1  0.4826580000000  0.5048960000000  0.4862600000000 1.0
C      1  0.4519460000000  0.5692310000000  0.5100700000000 1.0
C      1  0.4908090000000  0.5582420000000  0.5765130000000 1.0
C      1  0.4605090000000  0.5276470000000  0.4825550000000 1.0
C      1  0.5880290000000  0.5052680000000  0.5038550000000 1.0
C      1  0.4347240000000  0.5421310000000  0.5225870000000 1.0
C      1  0.5612060000000  0.4736620000000  0.5606680000000 1.0
C      1  0.4850470000000  0.4403080000000  0.4377930000000 1.0
C      1  0.4771260000000  0.5797940000000  0.4987690000000 1.0
C      1  0.5107270000000  0.4279920000000  0.4567870000000 1.0
C      1  0.4742140000000  0.4279250000000  0.5295870000000 1.0
C      1  0.5610440000000  0.4382990000000  0.5171920000000 1.0
C      1  0.4761820000000  0.4761920000000  0.4733710000000 1.0
C      1  0.5356830000000  0.4563670000000  0.5106700000000 1.0
C      1  0.5509070000000  0.5435390000000  0.4548350000000 1.0
C      1  0.4596530000000  0.4759970000000  0.5275790000000 1.0
C      1  0.4730940000000  0.5389860000000  0.4234880000000 1.0
C      1  0.4214110000000  0.4753180000000  0.4788050000000 1.0
C      1  0.5142610000000  0.4660160000000  0.4686090000000 1.0
C      1  0.5784200000000  0.5012930000000  0.5568660000000 1.0
C      1  0.5351840000000  0.5140180000000  0.5754870000000 1.0
C      1  0.4894830000000  0.4866710000000  0.5853690000000 1.0
C      1  0.4107420000000  0.4946190000000  0.5237710000000 1.0
C      1  0.4455580000000  0.4361470000000  0.4924970000000 1.0
C      1  0.4818980000000  0.5336670000000  0.5901110000000 1.0
C      1  0.5040170000000  0.5466140000000  0.5283930000000 1.0
C      1  0.4283420000000  0.4669250000000  0.5249020000000 1.0
C      1  0.5015310000000  0.4962140000000  0.5202980000000 1.0
C      1  0.5229010000000  0.5043280000000  0.4996290000000 1.0
C      1  0.5649470000000  0.5251890000000  0.4385710000000 1.0
C      1  0.5439360000000  0.4774030000000  0.4378880000000 1.0
C      1  0.5384450000000  0.5086970000000  0.5361450000000 1.0
C      1  0.5826620000000  0.4740040000000  0.5368780000000 1.0
C      1  0.4570680000000  0.5102870000000  0.5479510000000 1.0
C      1  0.5642250000000  0.4526500000000  0.4476670000000 1.0
C      1  0.5095560000000  0.4684900000000  0.5781250000000 1.0
C      1  0.5097850000000  0.4336520000000  0.5072430000000 1.0
C      1  0.5179510000000  0.5416050000000  0.5752320000000 1.0
C      1  0.4638600000000  0.5261570000000  0.4532500000000 1.0
C      1  0.5207740000000  0.5376570000000  0.4534480000000 1.0
C      1  0.4630970000000  0.4841070000000  0.5686710000000 1.0
C      1  0.5452580000000  0.5047550000000  0.4218280000000 1.0
C      1  0.5424480000000  0.4471160000000  0.4717190000000 1.0
C      1  0.5195290000000  0.4289840000000  0.5454510000000 1.0
C      1  0.5224290000000  0.4536070000000  0.4377740000000 1.0
C      1  0.5368560000000  0.4173690000000  0.5182420000000 1.0
C      1  0.4493050000000  0.4778350000000  0.4291260000000 1.0
C      1  0.4330840000000  0.4681920000000  0.4543570000000 1.0
C      1  0.5420090000000  0.4804660000000  0.4934050000000 1.0
C      1  0.5072790000000  0.4812100000000  0.3940850000000 1.0
C      1  0.5401080000000  0.4962310000000  0.4647120000000 1.0
C      1  0.5584110000000  0.5498990000000  0.4808980000000 1.0
C      1  0.4578160000000  0.4487750000000  0.4412090000000 1.0
C      1  0.4690040000000  0.4520920000000  0.5619950000000 1.0
C      1  0.5055660000000  0.5785320000000  0.5175290000000 1.0
C      1  0.4961740000000  0.5174910000000  0.5446720000000 1.0
C      1  0.4730480000000  0.5637360000000  0.5544950000000 1.0
C      1  0.4356710000000  0.5586790000000  0.4864330000000 1.0
C      1  0.4687490000000  0.5006010000000  0.4338600000000 1.0
C      1  0.5052020000000  0.5543180000000  0.4862830000000 1.0
C      1  0.4386800000000  0.5530360000000  0.4379340000000 1.0
C      1  0.4696880000000  0.5047050000000  0.5177910000000 1.0
C      1  0.4922220000000  0.4128200000000  0.5431750000000 1.0
C      1  0.4993740000000  0.4707220000000  0.4980890000000 1.0
C      1  0.4972320000000  0.4451060000000  0.5660310000000 1.0
C      1  0.5857770000000  0.4775620000000  0.5088950000000 1.0
C      1  0.5211640000000  0.5044090000000  0.3989840000000 1.0
C      1  0.4684320000000  0.4465460000000  0.4796330000000 1.0
C      1  0.4756690000000  0.5754430000000  0.4697450000000 1.0
END
