TITL C-2778423-5760-1267 0.00411948351529121 125000 -1033.79470607603 0 0 178 (C1) n - 1
REM
REM in /home/nfs/bkarasulu/CARBON/AIRSS/Generating-Clusters/REBO/Only-C1/SD-CG/HFTN-CG
REM
REM
REM
REM
REM
REM ./C.cell (11c1c37f851c82e70ff6c80c92926a4b)
REM
REM compiler GCC version 9.2.1 20190827 (Red Hat 9.2.1-1)
REM options -cpp -mtune=generic -march=x86-64 -g -O0 -fpre-include=/usr/include/finclude/math-vector-fortran.h
REM seed -1253598633 -1370468157 1901879201 -1933074093 2015059932 -2139489246 -509438075 403216015 1824136669 1766291481 -653856328 -1313869129 -1021634994 -1221334656 -1912358910 1278762680 432393978 1607295531 788465343 -1148932335 1343794974 -1270054208 -1655175800 1503213104 -1401166012 1388074359 1341729098 -1604365829 -2140174768 1898239139 704927069 1756917721 -1388287969
REM
CELL 1.54180   50.00000   50.00000   50.00000   90.00000   90.00000   90.00000
LATT -1
SFAC C  
C      1  0.4496720000000  0.4727260000000  0.4457960000000 1.0
C      1  0.4940560000000  0.5139420000000  0.4784480000000 1.0
C      1  0.5272150000000  0.4606340000000  0.5849380000000 1.0
C      1  0.5396160000000  0.4906880000000  0.4058400000000 1.0
C      1  0.5600640000000  0.4576110000000  0.4569620000000 1.0
C      1  0.4140740000000  0.5459030000000  0.4825270000000 1.0
C      1  0.4916170000000  0.5527800000000  0.4660160000000 1.0
C      1  0.4928910000000  0.4410530000000  0.5556260000000 1.0
C      1  0.4418610000000  0.4761570000000  0.5203780000000 1.0
C      1  0.4227400000000  0.5717580000000  0.4975840000000 1.0
C      1  0.5365850000000  0.4054070000000  0.4456090000000 1.0
C      1  0.4859090000000  0.4651180000000  0.3910810000000 1.0
C      1  0.4034150000000  0.4727000000000  0.4637830000000 1.0
C      1  0.4081580000000  0.4554230000000  0.5142280000000 1.0
C      1  0.5143950000000  0.5638480000000  0.4876910000000 1.0
C      1  0.5831930000000  0.5331030000000  0.4962430000000 1.0
C      1  0.5243490000000  0.4048270000000  0.5533310000000 1.0
C      1  0.4256690000000  0.5186870000000  0.5770930000000 1.0
C      1  0.5016340000000  0.5568230000000  0.4337340000000 1.0
C      1  0.4077180000000  0.5391270000000  0.5321950000000 1.0
C      1  0.4918450000000  0.5278150000000  0.4415270000000 1.0
C      1  0.4741830000000  0.5848690000000  0.4374680000000 1.0
C      1  0.3821050000000  0.5135640000000  0.4890870000000 1.0
C      1  0.4925150000000  0.4566600000000  0.5063220000000 1.0
C      1  0.4863800000000  0.4176180000000  0.4356880000000 1.0
C      1  0.5649830000000  0.4125280000000  0.5114560000000 1.0
C      1  0.4661890000000  0.5498210000000  0.4889520000000 1.0
C      1  0.5102060000000  0.4819410000000  0.5150570000000 1.0
C      1  0.5631690000000  0.4529460000000  0.5107600000000 1.0
C      1  0.5361720000000  0.4796710000000  0.4982700000000 1.0
C      1  0.4443350000000  0.5845960000000  0.4798140000000 1.0
C      1  0.4437740000000  0.4902840000000  0.5819170000000 1.0
C      1  0.4548100000000  0.4620960000000  0.4045240000000 1.0
C      1  0.4480940000000  0.5758010000000  0.4534130000000 1.0
C      1  0.4411950000000  0.4599870000000  0.4738900000000 1.0
C      1  0.5280520000000  0.4431920000000  0.4123660000000 1.0
C      1  0.4251280000000  0.4999350000000  0.4304440000000 1.0
C      1  0.4210720000000  0.5720030000000  0.5609080000000 1.0
C      1  0.5989350000000  0.5182880000000  0.5298950000000 1.0
C      1  0.5054770000000  0.5551440000000  0.5931540000000 1.0
C      1  0.5948970000000  0.5474530000000  0.5316500000000 1.0
C      1  0.5530320000000  0.5104350000000  0.5471960000000 1.0
C      1  0.5435140000000  0.4222900000000  0.4865680000000 1.0
C      1  0.5729350000000  0.4172630000000  0.5411320000000 1.0
C      1  0.5364590000000  0.3953720000000  0.5149940000000 1.0
C      1  0.5914730000000  0.4853080000000  0.4808160000000 1.0
C      1  0.5063210000000  0.6133280000000  0.5541170000000 1.0
C      1  0.5242980000000  0.5613370000000  0.5413560000000 1.0
C      1  0.5165470000000  0.4317380000000  0.4680100000000 1.0
C      1  0.4973310000000  0.5892460000000  0.4808670000000 1.0
C      1  0.5646660000000  0.5834350000000  0.5183990000000 1.0
C      1  0.4961440000000  0.5114980000000  0.5090630000000 1.0
C      1  0.4099060000000  0.4527340000000  0.4854710000000 1.0
C      1  0.5569980000000  0.4779660000000  0.5819300000000 1.0
C      1  0.5993940000000  0.4586730000000  0.4951080000000 1.0
C      1  0.4726450000000  0.5495210000000  0.5848110000000 1.0
C      1  0.4510090000000  0.4329770000000  0.4462120000000 1.0
C      1  0.4987490000000  0.5749830000000  0.5687720000000 1.0
C      1  0.5355190000000  0.5111560000000  0.4970090000000 1.0
C      1  0.4359590000000  0.4930220000000  0.5484450000000 1.0
C      1  0.4039460000000  0.4873160000000  0.5254550000000 1.0
C      1  0.4806620000000  0.5400570000000  0.5146490000000 1.0
C      1  0.4111900000000  0.4746340000000  0.4366990000000 1.0
C      1  0.5916600000000  0.5166560000000  0.4676280000000 1.0
C      1  0.5316970000000  0.5285860000000  0.4389970000000 1.0
C      1  0.5518360000000  0.4144940000000  0.5612670000000 1.0
C      1  0.4645620000000  0.4639720000000  0.5850140000000 1.0
C      1  0.5067960000000  0.5449810000000  0.4012890000000 1.0
C      1  0.5337380000000  0.5262820000000  0.5239950000000 1.0
C      1  0.4744940000000  0.4903590000000  0.5385500000000 1.0
C      1  0.4596000000000  0.4383260000000  0.4888590000000 1.0
C      1  0.5191700000000  0.4351990000000  0.5518940000000 1.0
C      1  0.5787580000000  0.5315930000000  0.4396700000000 1.0
C      1  0.5213250000000  0.6074950000000  0.5241020000000 1.0
C      1  0.5524590000000  0.5796040000000  0.5474700000000 1.0
C      1  0.4123920000000  0.5714410000000  0.5301960000000 1.0
C      1  0.3860050000000  0.5385820000000  0.4912040000000 1.0
C      1  0.5671460000000  0.5675960000000  0.4774740000000 1.0
C      1  0.4765390000000  0.5385200000000  0.4062380000000 1.0
C      1  0.5400200000000  0.4589630000000  0.5425810000000 1.0
C      1  0.4545580000000  0.4993200000000  0.4747290000000 1.0
C      1  0.4615780000000  0.4298090000000  0.4151060000000 1.0
C      1  0.4553090000000  0.5186940000000  0.5369570000000 1.0
C      1  0.5362230000000  0.5025090000000  0.5757470000000 1.0
C      1  0.4692830000000  0.5022000000000  0.5700480000000 1.0
C      1  0.4269730000000  0.4422390000000  0.5594300000000 1.0
C      1  0.5608570000000  0.5167240000000  0.4143220000000 1.0
C      1  0.5228840000000  0.4520600000000  0.4439990000000 1.0
C      1  0.5335460000000  0.5567910000000  0.5738600000000 1.0
C      1  0.5071970000000  0.4943480000000  0.5767720000000 1.0
C      1  0.5725440000000  0.4689060000000  0.5393740000000 1.0
C      1  0.5484820000000  0.5763160000000  0.4345970000000 1.0
C      1  0.4431510000000  0.4159320000000  0.5175270000000 1.0
C      1  0.5447520000000  0.5924120000000  0.4786940000000 1.0
C      1  0.4167630000000  0.5157540000000  0.5112780000000 1.0
C      1  0.5007990000000  0.5006900000000  0.4337560000000 1.0
C      1  0.5074430000000  0.4333760000000  0.4990270000000 1.0
C      1  0.5675870000000  0.4842300000000  0.5028580000000 1.0
C      1  0.4693660000000  0.5907220000000  0.5250680000000 1.0
C      1  0.5429230000000  0.5497580000000  0.4898450000000 1.0
C      1  0.4843690000000  0.5264700000000  0.5518210000000 1.0
C      1  0.5600000000000  0.4261480000000  0.4589800000000 1.0
C      1  0.4709580000000  0.4811660000000  0.5058490000000 1.0
C      1  0.4980680000000  0.4933600000000  0.4022160000000 1.0
C      1  0.4400960000000  0.5443840000000  0.5395180000000 1.0
C      1  0.4782570000000  0.4774260000000  0.4745600000000 1.0
C      1  0.4307900000000  0.4860140000000  0.4918620000000 1.0
C      1  0.5085270000000  0.5122950000000  0.5405620000000 1.0
C      1  0.4563830000000  0.4466290000000  0.5196640000000 1.0
C      1  0.4201800000000  0.4347020000000  0.5309930000000 1.0
C      1  0.4848630000000  0.5569300000000  0.5440050000000 1.0
C      1  0.5281340000000  0.5211580000000  0.4059520000000 1.0
C      1  0.5314130000000  0.4690520000000  0.4717310000000 1.0
C      1  0.4632640000000  0.5564940000000  0.4228380000000 1.0
C      1  0.4454280000000  0.5719030000000  0.5232130000000 1.0
C      1  0.5809840000000  0.4338450000000  0.4899600000000 1.0
C      1  0.4664840000000  0.5231810000000  0.4594150000000 1.0
C      1  0.4308160000000  0.4520820000000  0.4264140000000 1.0
C      1  0.5195300000000  0.4673160000000  0.3960750000000 1.0
C      1  0.5571740000000  0.4330770000000  0.4256940000000 1.0
C      1  0.4415420000000  0.5475060000000  0.5728090000000 1.0
C      1  0.4210960000000  0.5231780000000  0.4550150000000 1.0
C      1  0.4803270000000  0.4591660000000  0.5373810000000 1.0
C      1  0.4997370000000  0.5935790000000  0.4514550000000 1.0
C      1  0.4805050000000  0.4193190000000  0.4693580000000 1.0
C      1  0.4484920000000  0.4946560000000  0.4126570000000 1.0
C      1  0.4712970000000  0.4005820000000  0.5178610000000 1.0
C      1  0.4374580000000  0.4144990000000  0.4656180000000 1.0
C      1  0.4733210000000  0.4208260000000  0.5653090000000 1.0
C      1  0.5785030000000  0.4973650000000  0.4353760000000 1.0
C      1  0.5753560000000  0.5057880000000  0.5736880000000 1.0
C      1  0.5280000000000  0.5908250000000  0.5675610000000 1.0
C      1  0.5607730000000  0.5364610000000  0.5763590000000 1.0
C      1  0.5314060000000  0.5576250000000  0.4211330000000 1.0
C      1  0.4809160000000  0.4749070000000  0.4347730000000 1.0
C      1  0.5319300000000  0.5928600000000  0.4525420000000 1.0
C      1  0.5144600000000  0.5301560000000  0.6097930000000 1.0
C      1  0.5411260000000  0.5224920000000  0.5999040000000 1.0
C      1  0.5500510000000  0.5064640000000  0.4512490000000 1.0
C      1  0.4889970000000  0.4473170000000  0.4187890000000 1.0
C      1  0.4708680000000  0.5834750000000  0.4946150000000 1.0
C      1  0.5834420000000  0.4710900000000  0.4435240000000 1.0
C      1  0.5904420000000  0.4422640000000  0.5475750000000 1.0
C      1  0.4408340000000  0.5268570000000  0.4896540000000 1.0
C      1  0.5069000000000  0.4866910000000  0.4625740000000 1.0
C      1  0.4710510000000  0.5110090000000  0.4060230000000 1.0
C      1  0.4133950000000  0.4678350000000  0.5521890000000 1.0
C      1  0.4522160000000  0.4392950000000  0.5741350000000 1.0
C      1  0.4061690000000  0.5008330000000  0.4758680000000 1.0
C      1  0.5599280000000  0.5153430000000  0.4789920000000 1.0
C      1  0.5234690000000  0.5291010000000  0.4705310000000 1.0
C      1  0.5172210000000  0.4158800000000  0.4281970000000 1.0
C      1  0.4884520000000  0.5194960000000  0.5906040000000 1.0
C      1  0.4070650000000  0.5119770000000  0.5494300000000 1.0
C      1  0.4447860000000  0.5435330000000  0.4483140000000 1.0
C      1  0.4810200000000  0.3968500000000  0.4917150000000 1.0
C      1  0.4772470000000  0.6046220000000  0.5534680000000 1.0
C      1  0.5352560000000  0.4387560000000  0.5155400000000 1.0
C      1  0.5110090000000  0.4069610000000  0.5159870000000 1.0
C      1  0.4331750000000  0.4083140000000  0.4889340000000 1.0
C      1  0.5697240000000  0.5101510000000  0.5175500000000 1.0
C      1  0.5771080000000  0.4530580000000  0.5755910000000 1.0
C      1  0.6071920000000  0.4573650000000  0.5230990000000 1.0
C      1  0.5008150000000  0.5829820000000  0.5296500000000 1.0
C      1  0.5422190000000  0.6008480000000  0.5058700000000 1.0
C      1  0.5113250000000  0.5481160000000  0.5142580000000 1.0
C      1  0.5179920000000  0.4818410000000  0.5469150000000 1.0
C      1  0.5565050000000  0.5499930000000  0.5211090000000 1.0
C      1  0.5887530000000  0.5645880000000  0.5032380000000 1.0
C      1  0.4671360000000  0.5819370000000  0.5746900000000 1.0
C      1  0.5705370000000  0.5612730000000  0.4474660000000 1.0
C      1  0.5708690000000  0.5536230000000  0.5521710000000 1.0
C      1  0.5435220000000  0.4780850000000  0.4350760000000 1.0
C      1  0.5500260000000  0.4389320000000  0.5782130000000 1.0
C      1  0.4939770000000  0.4664330000000  0.5863580000000 1.0
C      1  0.4788630000000  0.4499350000000  0.4572760000000 1.0
C      1  0.4915980000000  0.4030400000000  0.5435060000000 1.0
C      1  0.5894250000000  0.4941600000000  0.5479760000000 1.0
END
