TITL C-2778424-3986-560 -0.00121034383642105 125000 -1087.6650504789 0 0 187 (C1) n - 1
REM
REM in /home/nfs/bkarasulu/CARBON/AIRSS/Generating-Clusters/REBO/Only-C1/SD-CG/HFTN-CG
REM
REM
REM
REM
REM
REM ./C.cell (11c1c37f851c82e70ff6c80c92926a4b)
REM
REM compiler GCC version 9.2.1 20190827 (Red Hat 9.2.1-1)
REM options -cpp -mtune=generic -march=x86-64 -g -O0 -fpre-include=/usr/include/finclude/math-vector-fortran.h
REM seed 1751817393 -1052599481 1628823105 -490700745 1112428467 1697540608 -297560007 -1595601650 579794520 -1653095276 700653254 1391392048 -432379782 475314057 -1915969738 -1642210905 -171364328 -1900573711 941885167 932683781 229651670 -687399636 2115234364 1166774300 -932350500 -712966820 -821245729 598122207 762745006 1301867792 -736722939 1876958517 -585847135
REM
CELL 1.54180   50.00000   50.00000   50.00000   90.00000   90.00000   90.00000
LATT -1
SFAC C  
C      1  0.5695020000000  0.4280330000000  0.4713720000000 1.0
C      1  0.4972320000000  0.4882280000000  0.4969850000000 1.0
C      1  0.5290320000000  0.5603120000000  0.4271910000000 1.0
C      1  0.4714320000000  0.5814950000000  0.4924430000000 1.0
C      1  0.4282950000000  0.4302890000000  0.4757340000000 1.0
C      1  0.5336050000000  0.5388810000000  0.4095940000000 1.0
C      1  0.4834780000000  0.4402270000000  0.5576430000000 1.0
C      1  0.5319040000000  0.5013390000000  0.3982310000000 1.0
C      1  0.6176330000000  0.5202050000000  0.5201140000000 1.0
C      1  0.5607570000000  0.4112730000000  0.4461030000000 1.0
C      1  0.5255250000000  0.4038090000000  0.5473600000000 1.0
C      1  0.5350280000000  0.5150500000000  0.5885090000000 1.0
C      1  0.5539710000000  0.4121170000000  0.5492370000000 1.0
C      1  0.4167380000000  0.5604430000000  0.5591250000000 1.0
C      1  0.4352580000000  0.5080300000000  0.4365270000000 1.0
C      1  0.5735180000000  0.4268940000000  0.5255270000000 1.0
C      1  0.5083800000000  0.4619660000000  0.6058460000000 1.0
C      1  0.4648770000000  0.3975600000000  0.5193780000000 1.0
C      1  0.4799360000000  0.5139970000000  0.4119080000000 1.0
C      1  0.4920240000000  0.6012170000000  0.4364230000000 1.0
C      1  0.4058070000000  0.4611160000000  0.4454300000000 1.0
C      1  0.4688640000000  0.5033760000000  0.6000010000000 1.0
C      1  0.4986690000000  0.4146740000000  0.5310370000000 1.0
C      1  0.5546020000000  0.4630770000000  0.5788650000000 1.0
C      1  0.4946140000000  0.3971230000000  0.5025750000000 1.0
C      1  0.4903470000000  0.4336850000000  0.4104840000000 1.0
C      1  0.4443040000000  0.5408580000000  0.4019360000000 1.0
C      1  0.4681920000000  0.4288200000000  0.5060920000000 1.0
C      1  0.4512220000000  0.5137450000000  0.3842560000000 1.0
C      1  0.4103080000000  0.5185020000000  0.4186530000000 1.0
C      1  0.4597250000000  0.3954790000000  0.4857610000000 1.0
C      1  0.4589370000000  0.5787810000000  0.4436520000000 1.0
C      1  0.5311910000000  0.5062710000000  0.4862470000000 1.0
C      1  0.4006980000000  0.5591990000000  0.5354470000000 1.0
C      1  0.6056570000000  0.5383720000000  0.5382550000000 1.0
C      1  0.5018340000000  0.4140380000000  0.5701910000000 1.0
C      1  0.4677650000000  0.5886340000000  0.5704630000000 1.0
C      1  0.5457370000000  0.5388650000000  0.5781390000000 1.0
C      1  0.4262730000000  0.4809750000000  0.4740500000000 1.0
C      1  0.5686930000000  0.5060160000000  0.5514620000000 1.0
C      1  0.5164380000000  0.3958620000000  0.4579010000000 1.0
C      1  0.5406590000000  0.5427940000000  0.4611310000000 1.0
C      1  0.5313960000000  0.5527050000000  0.5581060000000 1.0
C      1  0.4873810000000  0.4927860000000  0.4713470000000 1.0
C      1  0.5419750000000  0.4470410000000  0.4027400000000 1.0
C      1  0.5125580000000  0.4320770000000  0.5969500000000 1.0
C      1  0.5286510000000  0.4860080000000  0.5077010000000 1.0
C      1  0.5393470000000  0.4204700000000  0.5002170000000 1.0
C      1  0.5609430000000  0.4965380000000  0.4498090000000 1.0
C      1  0.5605080000000  0.5195060000000  0.5227330000000 1.0
C      1  0.4292670000000  0.5047480000000  0.4922100000000 1.0
C      1  0.5353400000000  0.5419820000000  0.5283480000000 1.0
C      1  0.5898970000000  0.4982920000000  0.4779630000000 1.0
C      1  0.6004350000000  0.5267610000000  0.5639780000000 1.0
C      1  0.3950240000000  0.4718270000000  0.4745490000000 1.0
C      1  0.5068910000000  0.5441460000000  0.5100880000000 1.0
C      1  0.5931930000000  0.4876240000000  0.4461390000000 1.0
C      1  0.4902330000000  0.5640220000000  0.5950140000000 1.0
C      1  0.4043340000000  0.5078200000000  0.5523140000000 1.0
C      1  0.4702890000000  0.5860310000000  0.4162370000000 1.0
C      1  0.4755950000000  0.4018720000000  0.5514800000000 1.0
C      1  0.4935120000000  0.5206230000000  0.6110870000000 1.0
C      1  0.3901020000000  0.4977050000000  0.4920790000000 1.0
C      1  0.5294310000000  0.6117210000000  0.5094200000000 1.0
C      1  0.4603770000000  0.4877920000000  0.4043360000000 1.0
C      1  0.6053620000000  0.4959290000000  0.5159670000000 1.0
C      1  0.5663920000000  0.4648510000000  0.4053900000000 1.0
C      1  0.4445540000000  0.5361480000000  0.4286890000000 1.0
C      1  0.4343070000000  0.5514920000000  0.4776180000000 1.0
C      1  0.5515840000000  0.4465900000000  0.5132430000000 1.0
C      1  0.5067870000000  0.4329780000000  0.4466970000000 1.0
C      1  0.4807000000000  0.5539760000000  0.4117040000000 1.0
C      1  0.4966340000000  0.5471260000000  0.6153950000000 1.0
C      1  0.4554630000000  0.4178830000000  0.4699030000000 1.0
C      1  0.4060070000000  0.5439490000000  0.4349320000000 1.0
C      1  0.4989800000000  0.6117320000000  0.4607710000000 1.0
C      1  0.4428550000000  0.4990420000000  0.5794250000000 1.0
C      1  0.4912600000000  0.4657890000000  0.4224840000000 1.0
C      1  0.5576950000000  0.5576130000000  0.5124850000000 1.0
C      1  0.5574300000000  0.6029580000000  0.4921560000000 1.0
C      1  0.4933290000000  0.5432410000000  0.5610870000000 1.0
C      1  0.4857720000000  0.5673990000000  0.5401400000000 1.0
C      1  0.4773030000000  0.5223880000000  0.4685440000000 1.0
C      1  0.4754880000000  0.6006250000000  0.5182830000000 1.0
C      1  0.5097200000000  0.5718060000000  0.5711660000000 1.0
C      1  0.5288370000000  0.4760670000000  0.4132330000000 1.0
C      1  0.4401530000000  0.5752910000000  0.4943250000000 1.0
C      1  0.4371820000000  0.5790250000000  0.5586740000000 1.0
C      1  0.5433350000000  0.5667060000000  0.4828750000000 1.0
C      1  0.4992120000000  0.4519810000000  0.4805020000000 1.0
C      1  0.4690850000000  0.4851670000000  0.5529220000000 1.0
C      1  0.4252380000000  0.4352440000000  0.5093970000000 1.0
C      1  0.5272580000000  0.4555590000000  0.4618810000000 1.0
C      1  0.4197340000000  0.4501620000000  0.5601230000000 1.0
C      1  0.5717950000000  0.5334190000000  0.5712510000000 1.0
C      1  0.5111610000000  0.5335720000000  0.4508630000000 1.0
C      1  0.5535070000000  0.5695940000000  0.4445100000000 1.0
C      1  0.5803020000000  0.4283190000000  0.5579320000000 1.0
C      1  0.4958470000000  0.5957750000000  0.5523600000000 1.0
C      1  0.4371560000000  0.5086330000000  0.5481830000000 1.0
C      1  0.4829820000000  0.4729800000000  0.5985410000000 1.0
C      1  0.4528150000000  0.4631530000000  0.4118810000000 1.0
C      1  0.5302830000000  0.4457090000000  0.5766080000000 1.0
C      1  0.4142330000000  0.4767090000000  0.5419500000000 1.0
C      1  0.5331150000000  0.4787190000000  0.4426540000000 1.0
C      1  0.5045440000000  0.5096270000000  0.5831000000000 1.0
C      1  0.4518070000000  0.4637760000000  0.4663510000000 1.0
C      1  0.4274500000000  0.4263370000000  0.5422440000000 1.0
C      1  0.5742930000000  0.4924320000000  0.4190830000000 1.0
C      1  0.5572290000000  0.5163980000000  0.4066990000000 1.0
C      1  0.5081710000000  0.5216470000000  0.3951110000000 1.0
C      1  0.5193540000000  0.5735380000000  0.5045050000000 1.0
C      1  0.5318450000000  0.4778970000000  0.6081720000000 1.0
C      1  0.5513620000000  0.5864710000000  0.5504380000000 1.0
C      1  0.5847140000000  0.5558020000000  0.4833290000000 1.0
C      1  0.5351300000000  0.4059420000000  0.4388030000000 1.0
C      1  0.5467680000000  0.5943640000000  0.4626800000000 1.0
C      1  0.5771930000000  0.5771660000000  0.5513270000000 1.0
C      1  0.4829410000000  0.5326890000000  0.4379710000000 1.0
C      1  0.5772720000000  0.5257400000000  0.4935990000000 1.0
C      1  0.5225620000000  0.4250600000000  0.4175110000000 1.0
C      1  0.4007100000000  0.4444890000000  0.4892640000000 1.0
C      1  0.5220800000000  0.5040050000000  0.4550970000000 1.0
C      1  0.5194410000000  0.5985190000000  0.4806640000000 1.0
C      1  0.4048710000000  0.5284180000000  0.4917680000000 1.0
C      1  0.4796210000000  0.5120390000000  0.5609630000000 1.0
C      1  0.4424380000000  0.5410430000000  0.5254830000000 1.0
C      1  0.4694510000000  0.4560730000000  0.5799320000000 1.0
C      1  0.5815470000000  0.4502340000000  0.5743950000000 1.0
C      1  0.5022710000000  0.6130940000000  0.5264050000000 1.0
C      1  0.6009260000000  0.4696780000000  0.5774990000000 1.0
C      1  0.4138360000000  0.5451650000000  0.5159720000000 1.0
C      1  0.4473280000000  0.4390570000000  0.4278500000000 1.0
C      1  0.4693100000000  0.5603430000000  0.5171280000000 1.0
C      1  0.4590670000000  0.4810460000000  0.5145650000000 1.0
C      1  0.5579440000000  0.4933180000000  0.5930920000000 1.0
C      1  0.4757760000000  0.4405660000000  0.4592210000000 1.0
C      1  0.4484840000000  0.5296460000000  0.5907240000000 1.0
C      1  0.5884250000000  0.4981760000000  0.5784070000000 1.0
C      1  0.5074340000000  0.5271480000000  0.4839870000000 1.0
C      1  0.4814760000000  0.5748470000000  0.4640950000000 1.0
C      1  0.5675060000000  0.4762640000000  0.4912040000000 1.0
C      1  0.4359080000000  0.5591640000000  0.4465380000000 1.0
C      1  0.4177210000000  0.5135110000000  0.3906400000000 1.0
C      1  0.5095170000000  0.4257100000000  0.4946760000000 1.0
C      1  0.4545440000000  0.5089740000000  0.5227400000000 1.0
C      1  0.5771650000000  0.4920370000000  0.5151230000000 1.0
C      1  0.4386420000000  0.4610010000000  0.5267040000000 1.0
C      1  0.4223280000000  0.5316440000000  0.5690250000000 1.0
C      1  0.5097960000000  0.4557400000000  0.3956930000000 1.0
C      1  0.4759390000000  0.5300340000000  0.5077360000000 1.0
C      1  0.5220710000000  0.3857600000000  0.5186090000000 1.0
C      1  0.4092670000000  0.5002480000000  0.5194980000000 1.0
C      1  0.5818420000000  0.5591400000000  0.4557960000000 1.0
C      1  0.4850730000000  0.4695120000000  0.5299620000000 1.0
C      1  0.6039460000000  0.4435130000000  0.4842420000000 1.0
C      1  0.5318440000000  0.5876180000000  0.5322930000000 1.0
C      1  0.5874680000000  0.4190660000000  0.4989050000000 1.0
C      1  0.4513510000000  0.4872860000000  0.4436820000000 1.0
C      1  0.5625290000000  0.3989540000000  0.4872920000000 1.0
C      1  0.5560400000000  0.5178670000000  0.4706830000000 1.0
C      1  0.4596290000000  0.4357020000000  0.5372860000000 1.0
C      1  0.5300910000000  0.3907250000000  0.4857790000000 1.0
C      1  0.4607590000000  0.5396940000000  0.5540930000000 1.0
C      1  0.4695900000000  0.4187070000000  0.4267810000000 1.0
C      1  0.5156360000000  0.4501620000000  0.5522940000000 1.0
C      1  0.5522330000000  0.4519330000000  0.4794390000000 1.0
C      1  0.4942700000000  0.4444900000000  0.5193820000000 1.0
C      1  0.4875440000000  0.4041000000000  0.4491020000000 1.0
C      1  0.6028590000000  0.4672620000000  0.4716010000000 1.0
C      1  0.4787850000000  0.5340710000000  0.3842050000000 1.0
C      1  0.4620630000000  0.5582100000000  0.5820580000000 1.0
C      1  0.4041250000000  0.5443280000000  0.4648980000000 1.0
C      1  0.4434690000000  0.4691690000000  0.5688470000000 1.0
C      1  0.5000720000000  0.5686490000000  0.4356980000000 1.0
C      1  0.4689470000000  0.4602640000000  0.4928860000000 1.0
C      1  0.5060710000000  0.4924060000000  0.5301360000000 1.0
C      1  0.5185280000000  0.4964400000000  0.5566540000000 1.0
C      1  0.5474020000000  0.4839180000000  0.5557580000000 1.0
C      1  0.4254330000000  0.4415790000000  0.4461850000000 1.0
C      1  0.4577770000000  0.5958630000000  0.5393340000000 1.0
C      1  0.5356450000000  0.4655080000000  0.5304880000000 1.0
C      1  0.4505760000000  0.5267040000000  0.4852730000000 1.0
C      1  0.4817350000000  0.4792480000000  0.4449900000000 1.0
C      1  0.5761700000000  0.5814790000000  0.4999800000000 1.0
C      1  0.5856790000000  0.5581160000000  0.5309900000000 1.0
C      1  0.4231570000000  0.5894210000000  0.5085170000000 1.0
END
