TITL C-2778432-5617-1077 -0.000850014061657363 125000 -467.502953740232 0 0 82 (C1) n - 1
REM
REM in /home/nfs/bkarasulu/CARBON/AIRSS/Generating-Clusters/REBO/Only-C1/SD-CG/HFTN-CG
REM
REM
REM
REM
REM
REM ./C.cell (11c1c37f851c82e70ff6c80c92926a4b)
REM
REM compiler GCC version 9.2.1 20190827 (Red Hat 9.2.1-1)
REM options -cpp -mtune=generic -march=x86-64 -g -O0 -fpre-include=/usr/include/finclude/math-vector-fortran.h
REM seed -310926116 2081907121 1897077008 -305352478 225283158 187533616 1324644619 -134790664 467732459 1995083128 -2111611755 1235885584 -191906979 464815661 -1608502807 383056306 -1199677702 -878094414 -1063003686 -631808508 -1268890495 1293670481 1006227512 163656480 -580294974 -1677577415 299296863 -1103157898 -1974452928 1912304520 1529730553 -1671241391 1057398152
REM
CELL 1.54180   50.00000   50.00000   50.00000   90.00000   90.00000   90.00000
LATT -1
SFAC C  
C      1  0.5140020000000  0.4630140000000  0.4715610000000 1.0
C      1  0.4514620000000  0.5749910000000  0.5100100000000 1.0
C      1  0.5251490000000  0.5641190000000  0.4134040000000 1.0
C      1  0.5590340000000  0.5011390000000  0.4286820000000 1.0
C      1  0.4907270000000  0.4034190000000  0.4583600000000 1.0
C      1  0.4977110000000  0.4517640000000  0.4517830000000 1.0
C      1  0.5648200000000  0.4811600000000  0.5556710000000 1.0
C      1  0.4688080000000  0.5683940000000  0.4541330000000 1.0
C      1  0.4980960000000  0.5296980000000  0.4320540000000 1.0
C      1  0.4485130000000  0.5140170000000  0.5781140000000 1.0
C      1  0.5240500000000  0.5425480000000  0.4319050000000 1.0
C      1  0.5157100000000  0.5424620000000  0.4819930000000 1.0
C      1  0.4719570000000  0.5415570000000  0.4770850000000 1.0
C      1  0.5641990000000  0.4752560000000  0.4486480000000 1.0
C      1  0.5490180000000  0.4988790000000  0.4672530000000 1.0
C      1  0.4565190000000  0.4370960000000  0.4693250000000 1.0
C      1  0.4549670000000  0.4359020000000  0.5007340000000 1.0
C      1  0.4328690000000  0.4495250000000  0.5223500000000 1.0
C      1  0.4655610000000  0.5083010000000  0.5241870000000 1.0
C      1  0.5788930000000  0.4704530000000  0.5270200000000 1.0
C      1  0.4808400000000  0.4906360000000  0.5809880000000 1.0
C      1  0.5389420000000  0.5255590000000  0.5699210000000 1.0
C      1  0.5204080000000  0.5548510000000  0.5066430000000 1.0
C      1  0.5221310000000  0.4572170000000  0.5488370000000 1.0
C      1  0.5316840000000  0.5061460000000  0.5300310000000 1.0
C      1  0.4708580000000  0.4813080000000  0.4505190000000 1.0
C      1  0.5710630000000  0.5295050000000  0.5000690000000 1.0
C      1  0.5029420000000  0.5649580000000  0.5315020000000 1.0
C      1  0.4920410000000  0.4447340000000  0.5563090000000 1.0
C      1  0.5548180000000  0.5642940000000  0.4673430000000 1.0
C      1  0.5489050000000  0.5402610000000  0.5477730000000 1.0
C      1  0.4450850000000  0.4552240000000  0.5478580000000 1.0
C      1  0.5210860000000  0.4462100000000  0.4952520000000 1.0
C      1  0.5110260000000  0.5014050000000  0.5549170000000 1.0
C      1  0.5819420000000  0.5005440000000  0.5376180000000 1.0
C      1  0.5750580000000  0.4594960000000  0.5013740000000 1.0
C      1  0.4237920000000  0.5018280000000  0.4921210000000 1.0
C      1  0.5739780000000  0.5073310000000  0.4832310000000 1.0
C      1  0.5191520000000  0.4673310000000  0.4219750000000 1.0
C      1  0.4478470000000  0.5267670000000  0.4488670000000 1.0
C      1  0.4876040000000  0.5402750000000  0.5702840000000 1.0
C      1  0.5702180000000  0.5547760000000  0.4880080000000 1.0
C      1  0.4527940000000  0.5518260000000  0.4364080000000 1.0
C      1  0.5064440000000  0.4682240000000  0.5765770000000 1.0
C      1  0.4438840000000  0.4671940000000  0.4966330000000 1.0
C      1  0.4758950000000  0.5670230000000  0.5274540000000 1.0
C      1  0.4475770000000  0.5419060000000  0.5396090000000 1.0
C      1  0.4729260000000  0.4679690000000  0.4025740000000 1.0
C      1  0.4615500000000  0.5320220000000  0.5620690000000 1.0
C      1  0.4673480000000  0.5384890000000  0.5106490000000 1.0
C      1  0.4208000000000  0.5355270000000  0.4964650000000 1.0
C      1  0.5425830000000  0.4646850000000  0.4282180000000 1.0
C      1  0.5418990000000  0.4560330000000  0.5232710000000 1.0
C      1  0.5251520000000  0.4828190000000  0.5106230000000 1.0
C      1  0.5026110000000  0.4585200000000  0.5205510000000 1.0
C      1  0.5456960000000  0.5212730000000  0.4251700000000 1.0
C      1  0.5113500000000  0.4994550000000  0.5896660000000 1.0
C      1  0.4362950000000  0.4979450000000  0.5210000000000 1.0
C      1  0.4457690000000  0.4611850000000  0.4573260000000 1.0
C      1  0.4788950000000  0.5029070000000  0.4966290000000 1.0
C      1  0.5532710000000  0.4359820000000  0.4992800000000 1.0
C      1  0.4815970000000  0.4289500000000  0.4584140000000 1.0
C      1  0.4278000000000  0.5244880000000  0.4676760000000 1.0
C      1  0.5341850000000  0.5611390000000  0.5358650000000 1.0
C      1  0.4224570000000  0.4748990000000  0.4733310000000 1.0
C      1  0.5226590000000  0.4922320000000  0.4799030000000 1.0
C      1  0.5119110000000  0.5312710000000  0.5813870000000 1.0
C      1  0.4797060000000  0.4977350000000  0.5475190000000 1.0
C      1  0.4731700000000  0.4449080000000  0.5277940000000 1.0
C      1  0.4610270000000  0.5732390000000  0.4834800000000 1.0
C      1  0.5429210000000  0.4947180000000  0.5666530000000 1.0
C      1  0.5787250000000  0.4759120000000  0.4788870000000 1.0
C      1  0.4307240000000  0.5533460000000  0.5155270000000 1.0
C      1  0.4756070000000  0.5132730000000  0.4582440000000 1.0
C      1  0.4658430000000  0.4838000000000  0.4833470000000 1.0
C      1  0.4224820000000  0.4874640000000  0.5408990000000 1.0
C      1  0.5022270000000  0.5156430000000  0.4794520000000 1.0
C      1  0.4874410000000  0.4698450000000  0.4261240000000 1.0
C      1  0.4699290000000  0.4677760000000  0.5602560000000 1.0
C      1  0.5303740000000  0.5521240000000  0.4602390000000 1.0
C      1  0.5621420000000  0.5211440000000  0.5271130000000 1.0
C      1  0.5608460000000  0.4107590000000  0.4920010000000 1.0
END
