TITL C-2778431-5191-1412 -0.00246845761528995 125000 -278.761507835731 0 0 49 (C1) n - 1
REM
REM in /home/nfs/bkarasulu/CARBON/AIRSS/Generating-Clusters/REBO/Only-C1/SD-CG/HFTN-CG
REM
REM
REM
REM
REM
REM ./C.cell (11c1c37f851c82e70ff6c80c92926a4b)
REM
REM compiler GCC version 9.2.1 20190827 (Red Hat 9.2.1-1)
REM options -cpp -mtune=generic -march=x86-64 -g -O0 -fpre-include=/usr/include/finclude/math-vector-fortran.h
REM seed 2019570218 214177554 1157374509 -1218334503 -39055578 -1030085770 72936026 -1812607544 124577406 -1382683313 909684384 -1290206604 -662166790 -2044932087 650331992 -1625180723 -257370051 -1696796088 -1123010083 -805145219 1132561094 1971175899 -299525066 2027051282 360945968 2104718031 -1690268126 1975375050 1429198810 1077457357 1470780624 1124106553 -2027326542
REM
CELL 1.54180   50.00000   50.00000   50.00000   90.00000   90.00000   90.00000
LATT -1
SFAC C  
C      1  0.5598970000000  0.4797330000000  0.5170490000000 1.0
C      1  0.4689980000000  0.5046610000000  0.5140730000000 1.0
C      1  0.5334050000000  0.5321390000000  0.5246820000000 1.0
C      1  0.5103390000000  0.4591920000000  0.4746260000000 1.0
C      1  0.4457600000000  0.5512870000000  0.4705460000000 1.0
C      1  0.5359180000000  0.5145720000000  0.4801370000000 1.0
C      1  0.4242360000000  0.5153990000000  0.5040850000000 1.0
C      1  0.4897230000000  0.5528580000000  0.5103750000000 1.0
C      1  0.4765030000000  0.4249910000000  0.5174370000000 1.0
C      1  0.4716560000000  0.5182790000000  0.4460350000000 1.0
C      1  0.5733990000000  0.4304670000000  0.5187600000000 1.0
C      1  0.4615160000000  0.4924040000000  0.5419040000000 1.0
C      1  0.4216400000000  0.5151840000000  0.5329600000000 1.0
C      1  0.4733150000000  0.5122730000000  0.5654600000000 1.0
C      1  0.4514500000000  0.5562230000000  0.5500870000000 1.0
C      1  0.4734980000000  0.4647990000000  0.5466320000000 1.0
C      1  0.6264210000000  0.4536930000000  0.4119120000000 1.0
C      1  0.5170470000000  0.4860970000000  0.5571200000000 1.0
C      1  0.4939170000000  0.5345330000000  0.5557890000000 1.0
C      1  0.5406760000000  0.4821450000000  0.5356410000000 1.0
C      1  0.5137530000000  0.5621460000000  0.4688080000000 1.0
C      1  0.4504240000000  0.4831900000000  0.4713980000000 1.0
C      1  0.4426420000000  0.5241770000000  0.5566960000000 1.0
C      1  0.4827320000000  0.4512320000000  0.5234440000000 1.0
C      1  0.5063070000000  0.5435240000000  0.5315690000000 1.0
C      1  0.4952020000000  0.4763740000000  0.4514520000000 1.0
C      1  0.5004300000000  0.4673280000000  0.5047210000000 1.0
C      1  0.4608580000000  0.5623890000000  0.5186590000000 1.0
C      1  0.5736380000000  0.4838580000000  0.4675800000000 1.0
C      1  0.5260330000000  0.4681030000000  0.4466960000000 1.0
C      1  0.5299210000000  0.4521830000000  0.5000230000000 1.0
C      1  0.4717690000000  0.4908670000000  0.4531130000000 1.0
C      1  0.4344640000000  0.4618010000000  0.4660330000000 1.0
C      1  0.5518000000000  0.5277910000000  0.5035820000000 1.0
C      1  0.5180100000000  0.5053070000000  0.5303040000000 1.0
C      1  0.5079980000000  0.5155420000000  0.4839000000000 1.0
C      1  0.4705340000000  0.5405310000000  0.4632310000000 1.0
C      1  0.4954210000000  0.5440250000000  0.4810390000000 1.0
C      1  0.5515230000000  0.4413940000000  0.5093330000000 1.0
C      1  0.5625850000000  0.4977560000000  0.4910250000000 1.0
C      1  0.4217300000000  0.5408180000000  0.4903270000000 1.0
C      1  0.4907200000000  0.4829860000000  0.5664640000000 1.0
C      1  0.6060830000000  0.4613690000000  0.4265500000000 1.0
C      1  0.4466210000000  0.4995820000000  0.4944340000000 1.0
C      1  0.4633240000000  0.5305440000000  0.5303700000000 1.0
C      1  0.5850550000000  0.4693060000000  0.4416840000000 1.0
C      1  0.4977680000000  0.4980730000000  0.5075840000000 1.0
C      1  0.4401910000000  0.5664570000000  0.4979550000000 1.0
C      1  0.5531500000000  0.4704170000000  0.4467150000000 1.0
END
