TITL C-2778425-5191-854 0.00609285000268357 125000 -1085.99798462795 0 0 185 (C1) n - 1
REM
REM in /home/nfs/bkarasulu/CARBON/AIRSS/Generating-Clusters/REBO/Only-C1/SD-CG/HFTN-CG
REM
REM
REM
REM
REM
REM ./C.cell (11c1c37f851c82e70ff6c80c92926a4b)
REM
REM compiler GCC version 9.2.1 20190827 (Red Hat 9.2.1-1)
REM options -cpp -mtune=generic -march=x86-64 -g -O0 -fpre-include=/usr/include/finclude/math-vector-fortran.h
REM seed 789121716 -271140620 -1648035512 1395968715 154536962 -379963738 547899212 -563984324 -417328445 -1124311089 1451554030 1013232055 -451195039 438999533 693069578 -1272414016 -642089596 -217635023 -348192491 -949959699 654339271 -1621988437 2057079785 1030430322 883177202 2074894036 561081112 -1159564601 1552171375 -650587007 322853323 -609035773 1734425922
REM
CELL 1.54180   50.00000   50.00000   50.00000   90.00000   90.00000   90.00000
LATT -1
SFAC C  
C      1  0.4333890000000  0.4992670000000  0.4137050000000 1.0
C      1  0.5596080000000  0.5179460000000  0.4669780000000 1.0
C      1  0.5706060000000  0.5605590000000  0.4405100000000 1.0
C      1  0.4964370000000  0.5348660000000  0.3942460000000 1.0
C      1  0.5322630000000  0.3876410000000  0.4637240000000 1.0
C      1  0.5695080000000  0.4917200000000  0.5410240000000 1.0
C      1  0.4873640000000  0.4685820000000  0.4559210000000 1.0
C      1  0.5109150000000  0.4869550000000  0.6123550000000 1.0
C      1  0.4321470000000  0.4131410000000  0.5074210000000 1.0
C      1  0.5239350000000  0.5880490000000  0.4862400000000 1.0
C      1  0.4024110000000  0.5393820000000  0.5455580000000 1.0
C      1  0.4669760000000  0.4647290000000  0.5914550000000 1.0
C      1  0.5746150000000  0.5441160000000  0.5161660000000 1.0
C      1  0.5999150000000  0.4902660000000  0.4531930000000 1.0
C      1  0.5329670000000  0.5404590000000  0.5710890000000 1.0
C      1  0.4618720000000  0.4017860000000  0.5590710000000 1.0
C      1  0.5613230000000  0.5002830000000  0.4131420000000 1.0
C      1  0.4793350000000  0.5270960000000  0.5904710000000 1.0
C      1  0.4953970000000  0.4483910000000  0.5586830000000 1.0
C      1  0.4068170000000  0.5040360000000  0.4302420000000 1.0
C      1  0.4612370000000  0.5921340000000  0.4353500000000 1.0
C      1  0.4828820000000  0.4229330000000  0.5143170000000 1.0
C      1  0.5533750000000  0.5093240000000  0.6053230000000 1.0
C      1  0.4878560000000  0.4127540000000  0.4346220000000 1.0
C      1  0.4218850000000  0.4241860000000  0.4354990000000 1.0
C      1  0.4942710000000  0.3882480000000  0.4844810000000 1.0
C      1  0.4535050000000  0.4483850000000  0.5725840000000 1.0
C      1  0.5564070000000  0.5253150000000  0.5577700000000 1.0
C      1  0.3954470000000  0.5442540000000  0.5152220000000 1.0
C      1  0.4790650000000  0.4328580000000  0.3898880000000 1.0
C      1  0.4439620000000  0.5888820000000  0.5209600000000 1.0
C      1  0.4947830000000  0.4151640000000  0.4040080000000 1.0
C      1  0.5162070000000  0.4646750000000  0.5424860000000 1.0
C      1  0.4443820000000  0.4097780000000  0.4181220000000 1.0
C      1  0.5049550000000  0.4634940000000  0.5136460000000 1.0
C      1  0.5395190000000  0.4780950000000  0.3989110000000 1.0
C      1  0.4767010000000  0.4404770000000  0.4426410000000 1.0
C      1  0.5929050000000  0.5374950000000  0.4343250000000 1.0
C      1  0.5029420000000  0.4049240000000  0.5056360000000 1.0
C      1  0.4590830000000  0.4587150000000  0.5413580000000 1.0
C      1  0.5708330000000  0.4691140000000  0.4209960000000 1.0
C      1  0.4461830000000  0.5456150000000  0.4288570000000 1.0
C      1  0.5540560000000  0.6037430000000  0.4884280000000 1.0
C      1  0.5290090000000  0.4094780000000  0.5238090000000 1.0
C      1  0.5651120000000  0.5799870000000  0.5309640000000 1.0
C      1  0.4675140000000  0.6503810000000  0.4490410000000 1.0
C      1  0.5115650000000  0.4035360000000  0.4497380000000 1.0
C      1  0.4897580000000  0.5993320000000  0.5308350000000 1.0
C      1  0.4823080000000  0.5060960000000  0.6145150000000 1.0
C      1  0.4533170000000  0.4869560000000  0.5139520000000 1.0
C      1  0.6148870000000  0.4725260000000  0.5443390000000 1.0
C      1  0.5274410000000  0.4763870000000  0.4518220000000 1.0
C      1  0.4744790000000  0.4531480000000  0.5148150000000 1.0
C      1  0.5042170000000  0.6035060000000  0.5081350000000 1.0
C      1  0.6027560000000  0.5611310000000  0.4536420000000 1.0
C      1  0.5294680000000  0.5952530000000  0.4389720000000 1.0
C      1  0.5153410000000  0.4787210000000  0.3874300000000 1.0
C      1  0.5831930000000  0.5190950000000  0.5664570000000 1.0
C      1  0.5806260000000  0.4572510000000  0.5579690000000 1.0
C      1  0.5596700000000  0.4959380000000  0.4885820000000 1.0
C      1  0.4825510000000  0.5521590000000  0.5242170000000 1.0
C      1  0.4182750000000  0.5830810000000  0.5310830000000 1.0
C      1  0.4776600000000  0.5708010000000  0.5691950000000 1.0
C      1  0.4872470000000  0.5174530000000  0.3712870000000 1.0
C      1  0.5431780000000  0.5496210000000  0.4342200000000 1.0
C      1  0.5343480000000  0.5803590000000  0.5692780000000 1.0
C      1  0.4361660000000  0.5406610000000  0.5059850000000 1.0
C      1  0.5550760000000  0.4083770000000  0.4751580000000 1.0
C      1  0.5691210000000  0.5707190000000  0.5864320000000 1.0
C      1  0.4502520000000  0.5647430000000  0.5706950000000 1.0
C      1  0.5742710000000  0.6005370000000  0.5088750000000 1.0
C      1  0.5787860000000  0.5111690000000  0.4403680000000 1.0
C      1  0.4628820000000  0.3953300000000  0.4429300000000 1.0
C      1  0.5629780000000  0.5830080000000  0.5589690000000 1.0
C      1  0.5229340000000  0.5707600000000  0.4266710000000 1.0
C      1  0.4284090000000  0.4944570000000  0.5347410000000 1.0
C      1  0.3983960000000  0.5326920000000  0.4169900000000 1.0
C      1  0.5018710000000  0.6126390000000  0.4773280000000 1.0
C      1  0.4429310000000  0.4257070000000  0.5568540000000 1.0
C      1  0.4413820000000  0.4493570000000  0.4221310000000 1.0
C      1  0.4564620000000  0.5136570000000  0.4268910000000 1.0
C      1  0.5600980000000  0.4327480000000  0.5632880000000 1.0
C      1  0.4533890000000  0.4487370000000  0.4619210000000 1.0
C      1  0.4527540000000  0.5042680000000  0.5710330000000 1.0
C      1  0.5988680000000  0.5787040000000  0.5098650000000 1.0
C      1  0.4086860000000  0.4588310000000  0.5148000000000 1.0
C      1  0.4333050000000  0.4059340000000  0.4559980000000 1.0
C      1  0.4006160000000  0.4794270000000  0.4457490000000 1.0
C      1  0.5140340000000  0.5572860000000  0.4791060000000 1.0
C      1  0.4931220000000  0.5721240000000  0.5434040000000 1.0
C      1  0.5628950000000  0.4821600000000  0.5123410000000 1.0
C      1  0.4717900000000  0.4645610000000  0.4194650000000 1.0
C      1  0.4267350000000  0.5284670000000  0.4760830000000 1.0
C      1  0.5360310000000  0.5521790000000  0.5223160000000 1.0
C      1  0.4193030000000  0.5664530000000  0.5576740000000 1.0
C      1  0.5768350000000  0.4721100000000  0.4487110000000 1.0
C      1  0.3996670000000  0.5716210000000  0.5121320000000 1.0
C      1  0.5976150000000  0.5549630000000  0.5317720000000 1.0
C      1  0.4810340000000  0.4255240000000  0.5448880000000 1.0
C      1  0.4909020000000  0.5108320000000  0.5628920000000 1.0
C      1  0.4050820000000  0.4908070000000  0.5130020000000 1.0
C      1  0.4667350000000  0.5673940000000  0.4276630000000 1.0
C      1  0.4335470000000  0.4398860000000  0.5284420000000 1.0
C      1  0.4200460000000  0.5412570000000  0.5810220000000 1.0
C      1  0.5298650000000  0.4499800000000  0.4390810000000 1.0
C      1  0.4899110000000  0.4907660000000  0.3735250000000 1.0
C      1  0.5471420000000  0.5547400000000  0.5967900000000 1.0
C      1  0.5689100000000  0.5707260000000  0.4720460000000 1.0
C      1  0.4533990000000  0.4616570000000  0.4934190000000 1.0
C      1  0.4282030000000  0.5276630000000  0.5310480000000 1.0
C      1  0.4565720000000  0.5645870000000  0.5085580000000 1.0
C      1  0.4774540000000  0.4922780000000  0.4358340000000 1.0
C      1  0.4262490000000  0.4830710000000  0.5912320000000 1.0
C      1  0.5009360000000  0.4661670000000  0.4799740000000 1.0
C      1  0.4733710000000  0.4813860000000  0.5623060000000 1.0
C      1  0.5367740000000  0.4664270000000  0.6033940000000 1.0
C      1  0.5210010000000  0.5620600000000  0.5475430000000 1.0
C      1  0.5574360000000  0.5656080000000  0.4999670000000 1.0
C      1  0.6176760000000  0.5207090000000  0.5270600000000 1.0
C      1  0.6008130000000  0.5403790000000  0.5571290000000 1.0
C      1  0.5134140000000  0.5168350000000  0.4176910000000 1.0
C      1  0.3935040000000  0.4511070000000  0.4849040000000 1.0
C      1  0.6007060000000  0.5703190000000  0.4819100000000 1.0
C      1  0.6116500000000  0.4907540000000  0.4780690000000 1.0
C      1  0.4243150000000  0.5266410000000  0.4467370000000 1.0
C      1  0.4026210000000  0.5210530000000  0.4970180000000 1.0
C      1  0.5800430000000  0.4079140000000  0.4625220000000 1.0
C      1  0.4024210000000  0.5186840000000  0.5703750000000 1.0
C      1  0.4474830000000  0.3964010000000  0.4921130000000 1.0
C      1  0.4763180000000  0.5044980000000  0.5122410000000 1.0
C      1  0.4950220000000  0.4000990000000  0.5601290000000 1.0
C      1  0.6031580000000  0.4972850000000  0.5281510000000 1.0
C      1  0.5919550000000  0.4554040000000  0.5062020000000 1.0
C      1  0.5562280000000  0.4104680000000  0.5059480000000 1.0
C      1  0.4519880000000  0.5234810000000  0.5506830000000 1.0
C      1  0.3832780000000  0.4966960000000  0.4878890000000 1.0
C      1  0.4148570000000  0.4931850000000  0.5659220000000 1.0
C      1  0.4495130000000  0.5398930000000  0.5886230000000 1.0
C      1  0.5090160000000  0.6124810000000  0.4457380000000 1.0
C      1  0.5458190000000  0.4522500000000  0.4153760000000 1.0
C      1  0.4962140000000  0.5605420000000  0.4167670000000 1.0
C      1  0.5806560000000  0.4857720000000  0.5729440000000 1.0
C      1  0.5584710000000  0.4504800000000  0.5112700000000 1.0
C      1  0.5509390000000  0.5945470000000  0.4575090000000 1.0
C      1  0.5618800000000  0.4825980000000  0.5978260000000 1.0
C      1  0.5232320000000  0.4039950000000  0.5555430000000 1.0
C      1  0.4676230000000  0.3886710000000  0.4739730000000 1.0
C      1  0.6023540000000  0.4823220000000  0.5016360000000 1.0
C      1  0.5001470000000  0.4436190000000  0.5850950000000 1.0
C      1  0.5184590000000  0.5689460000000  0.5948740000000 1.0
C      1  0.6009710000000  0.4460360000000  0.5370520000000 1.0
C      1  0.4791580000000  0.5245280000000  0.5351600000000 1.0
C      1  0.4861680000000  0.6319280000000  0.4546470000000 1.0
C      1  0.5069680000000  0.5243050000000  0.4698200000000 1.0
C      1  0.5534850000000  0.4786360000000  0.4646950000000 1.0
C      1  0.4513110000000  0.5000640000000  0.6015850000000 1.0
C      1  0.4626700000000  0.6077150000000  0.5304640000000 1.0
C      1  0.3840240000000  0.4753440000000  0.4690780000000 1.0
C      1  0.4828330000000  0.5302600000000  0.4246650000000 1.0
C      1  0.4928430000000  0.5573040000000  0.5898150000000 1.0
C      1  0.4846840000000  0.5557910000000  0.4910070000000 1.0
C      1  0.4248950000000  0.4614540000000  0.4475930000000 1.0
C      1  0.5308590000000  0.4272260000000  0.4601220000000 1.0
C      1  0.4346660000000  0.4848180000000  0.3917730000000 1.0
C      1  0.4864190000000  0.4625570000000  0.3917200000000 1.0
C      1  0.5206120000000  0.5106100000000  0.5674140000000 1.0
C      1  0.5366960000000  0.5379270000000  0.4627780000000 1.0
C      1  0.5266530000000  0.5109600000000  0.5986870000000 1.0
C      1  0.5537660000000  0.5279700000000  0.5298990000000 1.0
C      1  0.5079380000000  0.5013240000000  0.4459810000000 1.0
C      1  0.4052580000000  0.4265190000000  0.5041600000000 1.0
C      1  0.4805720000000  0.4733050000000  0.6135910000000 1.0
C      1  0.4521690000000  0.4293110000000  0.3968360000000 1.0
C      1  0.5811040000000  0.4257410000000  0.5181990000000 1.0
C      1  0.4164740000000  0.5505000000000  0.4156830000000 1.0
C      1  0.4824200000000  0.5162560000000  0.4865240000000 1.0
C      1  0.5307310000000  0.4406450000000  0.5118170000000 1.0
C      1  0.5421620000000  0.5248090000000  0.4166520000000 1.0
C      1  0.5365670000000  0.4906890000000  0.5511690000000 1.0
C      1  0.5187280000000  0.4424180000000  0.4831500000000 1.0
C      1  0.4588010000000  0.5360900000000  0.4809040000000 1.0
C      1  0.4251820000000  0.4506080000000  0.4793080000000 1.0
C      1  0.5268790000000  0.4404130000000  0.5935920000000 1.0
C      1  0.5482090000000  0.4591590000000  0.5488410000000 1.0
C      1  0.5389640000000  0.4195180000000  0.5755290000000 1.0
END
