TITL C-2778433-5640-294 0.00719688831419599 125000 -898.464854497213 0 0 154 (C1) n - 1
REM
REM in /home/nfs/bkarasulu/CARBON/AIRSS/Generating-Clusters/REBO/Only-C1/SD-CG/HFTN-CG
REM
REM
REM
REM
REM
REM ./C.cell (11c1c37f851c82e70ff6c80c92926a4b)
REM
REM compiler GCC version 9.2.1 20190827 (Red Hat 9.2.1-1)
REM options -cpp -mtune=generic -march=x86-64 -g -O0 -fpre-include=/usr/include/finclude/math-vector-fortran.h
REM seed -391602898 -1095445859 459257824 1215457463 -1956986429 -832321751 1676275594 1817176492 330939769 1829619236 48651764 -708493654 1982539090 -1881001708 -479803878 106821947 -160971002 1616117863 1054154774 123482189 -111045179 1479530764 124837048 -482862053 1077467627 142471119 1171679380 860367943 1234951491 -2118034314 1599126661 51036285 1146040373
REM
CELL 1.54180   50.00000   50.00000   50.00000   90.00000   90.00000   90.00000
LATT -1
SFAC C  
C      1  0.4613380000000  0.4724490000000  0.5524010000000 1.0
C      1  0.4723140000000  0.4689780000000  0.4389490000000 1.0
C      1  0.5880430000000  0.5419930000000  0.4752140000000 1.0
C      1  0.4740800000000  0.4788020000000  0.3920170000000 1.0
C      1  0.5180040000000  0.5178590000000  0.4853300000000 1.0
C      1  0.4233940000000  0.5046400000000  0.4386860000000 1.0
C      1  0.5690300000000  0.4881170000000  0.5412220000000 1.0
C      1  0.4904240000000  0.5090860000000  0.4772820000000 1.0
C      1  0.5745130000000  0.4373930000000  0.4551650000000 1.0
C      1  0.4977250000000  0.4474060000000  0.4668270000000 1.0
C      1  0.5684810000000  0.4428270000000  0.4860910000000 1.0
C      1  0.5967530000000  0.5033280000000  0.4796460000000 1.0
C      1  0.4547390000000  0.4354040000000  0.5654880000000 1.0
C      1  0.5088360000000  0.4574150000000  0.5862950000000 1.0
C      1  0.5088070000000  0.4779220000000  0.4605250000000 1.0
C      1  0.4287310000000  0.4046880000000  0.5055310000000 1.0
C      1  0.3995170000000  0.4971160000000  0.5184540000000 1.0
C      1  0.4867910000000  0.4642460000000  0.4909440000000 1.0
C      1  0.5197420000000  0.4950710000000  0.5941740000000 1.0
C      1  0.5498440000000  0.5943100000000  0.5087240000000 1.0
C      1  0.4551840000000  0.5760380000000  0.4890650000000 1.0
C      1  0.4734070000000  0.4206520000000  0.4291350000000 1.0
C      1  0.5267840000000  0.5383890000000  0.5762180000000 1.0
C      1  0.5094670000000  0.5976050000000  0.4694940000000 1.0
C      1  0.4318050000000  0.5184100000000  0.4812770000000 1.0
C      1  0.5245730000000  0.4815910000000  0.4330880000000 1.0
C      1  0.5359910000000  0.4470020000000  0.5096470000000 1.0
C      1  0.5698740000000  0.4837720000000  0.4248220000000 1.0
C      1  0.4855910000000  0.4742580000000  0.5716460000000 1.0
C      1  0.5315830000000  0.4193790000000  0.5276940000000 1.0
C      1  0.4894780000000  0.5004040000000  0.5568810000000 1.0
C      1  0.5260530000000  0.5865400000000  0.5526590000000 1.0
C      1  0.4845210000000  0.6070510000000  0.5132570000000 1.0
C      1  0.4581600000000  0.3960980000000  0.5024650000000 1.0
C      1  0.5034520000000  0.5394200000000  0.4110710000000 1.0
C      1  0.4558160000000  0.4688600000000  0.4122360000000 1.0
C      1  0.5029550000000  0.4872520000000  0.5083240000000 1.0
C      1  0.4720040000000  0.4995770000000  0.5018760000000 1.0
C      1  0.5260310000000  0.4422850000000  0.4378590000000 1.0
C      1  0.4147440000000  0.4490630000000  0.5196910000000 1.0
C      1  0.4979760000000  0.4196870000000  0.5066350000000 1.0
C      1  0.5450600000000  0.5567040000000  0.4437280000000 1.0
C      1  0.4482120000000  0.4206860000000  0.4401940000000 1.0
C      1  0.4768790000000  0.4078320000000  0.5283790000000 1.0
C      1  0.4986690000000  0.6140900000000  0.4899110000000 1.0
C      1  0.4227780000000  0.5518480000000  0.4613180000000 1.0
C      1  0.5346160000000  0.5114100000000  0.5081660000000 1.0
C      1  0.5539870000000  0.5107930000000  0.4102830000000 1.0
C      1  0.5531220000000  0.4166450000000  0.4722590000000 1.0
C      1  0.5239630000000  0.4785710000000  0.4884760000000 1.0
C      1  0.5604670000000  0.5116350000000  0.4988420000000 1.0
C      1  0.4967610000000  0.4489030000000  0.5172180000000 1.0
C      1  0.5566810000000  0.5438740000000  0.5408580000000 1.0
C      1  0.5370450000000  0.5399040000000  0.4159720000000 1.0
C      1  0.4532600000000  0.5399440000000  0.4247000000000 1.0
C      1  0.5002820000000  0.5136300000000  0.5929310000000 1.0
C      1  0.4283840000000  0.4638790000000  0.4174620000000 1.0
C      1  0.4280120000000  0.4425130000000  0.4572750000000 1.0
C      1  0.5775340000000  0.4252230000000  0.5449430000000 1.0
C      1  0.4728690000000  0.5343070000000  0.4712370000000 1.0
C      1  0.5940850000000  0.4521930000000  0.5179190000000 1.0
C      1  0.4579020000000  0.4734900000000  0.4851000000000 1.0
C      1  0.5223400000000  0.5032670000000  0.4096820000000 1.0
C      1  0.4680030000000  0.4574760000000  0.5254980000000 1.0
C      1  0.3961540000000  0.5577900000000  0.4857890000000 1.0
C      1  0.6218290000000  0.4938150000000  0.4619040000000 1.0
C      1  0.5574820000000  0.4106930000000  0.5412230000000 1.0
C      1  0.4906450000000  0.5865010000000  0.5698380000000 1.0
C      1  0.5966750000000  0.5270140000000  0.5044850000000 1.0
C      1  0.4176780000000  0.4178050000000  0.4784920000000 1.0
C      1  0.4450780000000  0.4971590000000  0.5409090000000 1.0
C      1  0.5218760000000  0.4633170000000  0.5339570000000 1.0
C      1  0.5710040000000  0.4828280000000  0.4691460000000 1.0
C      1  0.5556230000000  0.4493850000000  0.5678780000000 1.0
C      1  0.5146850000000  0.5630360000000  0.4317860000000 1.0
C      1  0.4762410000000  0.5371600000000  0.5400520000000 1.0
C      1  0.4016740000000  0.4739270000000  0.5352010000000 1.0
C      1  0.4451040000000  0.5603010000000  0.4440880000000 1.0
C      1  0.4585770000000  0.4529070000000  0.4613850000000 1.0
C      1  0.4423770000000  0.5855260000000  0.5668300000000 1.0
C      1  0.5550320000000  0.5053430000000  0.4428810000000 1.0
C      1  0.6010550000000  0.4668880000000  0.4650050000000 1.0
C      1  0.5601250000000  0.6168220000000  0.5201130000000 1.0
C      1  0.5283060000000  0.4472660000000  0.4771090000000 1.0
C      1  0.4402510000000  0.5307930000000  0.5815820000000 1.0
C      1  0.4073930000000  0.4680930000000  0.4672810000000 1.0
C      1  0.4292980000000  0.5592570000000  0.4934080000000 1.0
C      1  0.5368450000000  0.5881830000000  0.4785260000000 1.0
C      1  0.5854260000000  0.5508720000000  0.5240620000000 1.0
C      1  0.5824530000000  0.4981030000000  0.5160250000000 1.0
C      1  0.4139260000000  0.5196890000000  0.5301890000000 1.0
C      1  0.5000020000000  0.4597730000000  0.4262040000000 1.0
C      1  0.4151270000000  0.4791780000000  0.5603830000000 1.0
C      1  0.5029270000000  0.4214090000000  0.5460350000000 1.0
C      1  0.5964450000000  0.4736620000000  0.4983550000000 1.0
C      1  0.4314430000000  0.4878750000000  0.4923540000000 1.0
C      1  0.4459000000000  0.5778270000000  0.5404570000000 1.0
C      1  0.4587680000000  0.5179910000000  0.5230900000000 1.0
C      1  0.5820140000000  0.4613580000000  0.4373360000000 1.0
C      1  0.5259080000000  0.4140150000000  0.4551820000000 1.0
C      1  0.4348270000000  0.5329250000000  0.5101200000000 1.0
C      1  0.5583210000000  0.5765220000000  0.4613850000000 1.0
C      1  0.4361110000000  0.4603450000000  0.5672340000000 1.0
C      1  0.4758920000000  0.4981620000000  0.4485400000000 1.0
C      1  0.4711820000000  0.5677380000000  0.5354710000000 1.0
C      1  0.4499060000000  0.4188790000000  0.5437110000000 1.0
C      1  0.5009190000000  0.4803530000000  0.4008930000000 1.0
C      1  0.5509630000000  0.5002950000000  0.5909450000000 1.0
C      1  0.5552630000000  0.4707920000000  0.4944170000000 1.0
C      1  0.4383450000000  0.4719490000000  0.5197830000000 1.0
C      1  0.3993600000000  0.4957810000000  0.4853590000000 1.0
C      1  0.5040330000000  0.5350450000000  0.5260570000000 1.0
C      1  0.5109450000000  0.5188870000000  0.4375190000000 1.0
C      1  0.5770910000000  0.5042180000000  0.5644350000000 1.0
C      1  0.4057980000000  0.4451860000000  0.4899410000000 1.0
C      1  0.5821430000000  0.5700710000000  0.4764120000000 1.0
C      1  0.5004270000000  0.5463840000000  0.5967370000000 1.0
C      1  0.4996290000000  0.4207720000000  0.4343370000000 1.0
C      1  0.4488720000000  0.4069520000000  0.4714460000000 1.0
C      1  0.5585470000000  0.5289910000000  0.5714370000000 1.0
C      1  0.4492000000000  0.5200880000000  0.4523230000000 1.0
C      1  0.4790840000000  0.5226590000000  0.4258820000000 1.0
C      1  0.4669250000000  0.5496280000000  0.5912380000000 1.0
C      1  0.4586600000000  0.5999120000000  0.5074370000000 1.0
C      1  0.5472140000000  0.5635710000000  0.5181630000000 1.0
C      1  0.4268880000000  0.4218080000000  0.5278000000000 1.0
C      1  0.5010830000000  0.4086060000000  0.4756680000000 1.0
C      1  0.5396680000000  0.4682870000000  0.5878910000000 1.0
C      1  0.4854780000000  0.4401940000000  0.5684740000000 1.0
C      1  0.5166250000000  0.5696160000000  0.5789180000000 1.0
C      1  0.4752730000000  0.4251640000000  0.4688160000000 1.0
C      1  0.4663710000000  0.5758060000000  0.4568230000000 1.0
C      1  0.5033320000000  0.5522670000000  0.5022920000000 1.0
C      1  0.5290870000000  0.5252150000000  0.5450210000000 1.0
C      1  0.4976540000000  0.5043860000000  0.5321130000000 1.0
C      1  0.5241560000000  0.4446370000000  0.5596630000000 1.0
C      1  0.5357320000000  0.4929370000000  0.5362660000000 1.0
C      1  0.5640590000000  0.5259880000000  0.4759030000000 1.0
C      1  0.5359130000000  0.5271350000000  0.4579740000000 1.0
C      1  0.5288970000000  0.4106380000000  0.4948590000000 1.0
C      1  0.4012190000000  0.5270740000000  0.4721900000000 1.0
C      1  0.4951730000000  0.5799630000000  0.4513980000000 1.0
C      1  0.4249470000000  0.5117750000000  0.5614170000000 1.0
C      1  0.5459350000000  0.4651560000000  0.4540390000000 1.0
C      1  0.5266330000000  0.5644300000000  0.4971210000000 1.0
C      1  0.5774900000000  0.5825290000000  0.5353930000000 1.0
C      1  0.5760400000000  0.4582770000000  0.5450170000000 1.0
C      1  0.5859430000000  0.5780280000000  0.5040770000000 1.0
C      1  0.4655340000000  0.5788650000000  0.5820250000000 1.0
C      1  0.4161520000000  0.4784080000000  0.4385130000000 1.0
C      1  0.5529190000000  0.5892230000000  0.5482320000000 1.0
C      1  0.4782610000000  0.5266870000000  0.5704430000000 1.0
C      1  0.4790030000000  0.5551970000000  0.4884480000000 1.0
C      1  0.4960670000000  0.5908360000000  0.5370910000000 1.0
END
