TITL C-2778432-5617-414 0.00160318658281588 125000 -930.988555407136 0 0 162 (C1) n - 1
REM
REM in /home/nfs/bkarasulu/CARBON/AIRSS/Generating-Clusters/REBO/Only-C1/SD-CG/HFTN-CG
REM
REM
REM
REM
REM
REM ./C.cell (11c1c37f851c82e70ff6c80c92926a4b)
REM
REM compiler GCC version 9.2.1 20190827 (Red Hat 9.2.1-1)
REM options -cpp -mtune=generic -march=x86-64 -g -O0 -fpre-include=/usr/include/finclude/math-vector-fortran.h
REM seed -273054085 1996600310 -1124506670 -644619164 -1530012060 -1516626315 -1694273399 -487623623 1416418271 -967974167 -1011752182 -1902688097 -881110943 1076602119 -530782338 1757845358 -1898176470 361928150 225308623 -43532970 1874748926 -1493417422 -175481069 708950741 993556721 -1695960732 1413189875 1780422274 -490938334 -1654292724 -65552880 308541223 540423526
REM
CELL 1.54180   50.00000   50.00000   50.00000   90.00000   90.00000   90.00000
LATT -1
SFAC C  
C      1  0.4573020000000  0.5590590000000  0.5689130000000 1.0
C      1  0.4565370000000  0.5387170000000  0.5046510000000 1.0
C      1  0.4384890000000  0.4658790000000  0.4977750000000 1.0
C      1  0.4573600000000  0.4698840000000  0.4178170000000 1.0
C      1  0.4975750000000  0.4706710000000  0.4364650000000 1.0
C      1  0.4822460000000  0.5667720000000  0.4713900000000 1.0
C      1  0.4269870000000  0.5092220000000  0.4096840000000 1.0
C      1  0.4768020000000  0.4500590000000  0.4462640000000 1.0
C      1  0.5836690000000  0.5822610000000  0.5307380000000 1.0
C      1  0.4519780000000  0.5088390000000  0.5860470000000 1.0
C      1  0.5971800000000  0.5520110000000  0.4695890000000 1.0
C      1  0.4528970000000  0.4843490000000  0.5191280000000 1.0
C      1  0.4743240000000  0.3923350000000  0.4696680000000 1.0
C      1  0.5870610000000  0.5073770000000  0.5259630000000 1.0
C      1  0.5545110000000  0.5253560000000  0.4127570000000 1.0
C      1  0.5889530000000  0.4914690000000  0.4783740000000 1.0
C      1  0.5580030000000  0.4623260000000  0.4955210000000 1.0
C      1  0.6082570000000  0.5313250000000  0.5196940000000 1.0
C      1  0.4229470000000  0.5527240000000  0.4299460000000 1.0
C      1  0.6004650000000  0.5593690000000  0.5223790000000 1.0
C      1  0.5065030000000  0.5858770000000  0.5587520000000 1.0
C      1  0.3973950000000  0.5059960000000  0.4971590000000 1.0
C      1  0.4665880000000  0.4778660000000  0.5475470000000 1.0
C      1  0.5191560000000  0.5854590000000  0.5291360000000 1.0
C      1  0.5199720000000  0.4723920000000  0.6084970000000 1.0
C      1  0.4037010000000  0.5600990000000  0.5013540000000 1.0
C      1  0.5225320000000  0.5212830000000  0.4206160000000 1.0
C      1  0.5206830000000  0.5444210000000  0.6064900000000 1.0
C      1  0.5158410000000  0.5563650000000  0.4029840000000 1.0
C      1  0.4913010000000  0.4853360000000  0.6106790000000 1.0
C      1  0.4787250000000  0.4737090000000  0.4714150000000 1.0
C      1  0.5129590000000  0.5564290000000  0.5185040000000 1.0
C      1  0.4664110000000  0.5163830000000  0.6100120000000 1.0
C      1  0.5205840000000  0.4007300000000  0.5452730000000 1.0
C      1  0.5161070000000  0.4339440000000  0.4884150000000 1.0
C      1  0.5585080000000  0.4127840000000  0.6001240000000 1.0
C      1  0.4656410000000  0.4448530000000  0.4772640000000 1.0
C      1  0.4328830000000  0.5443400000000  0.5224500000000 1.0
C      1  0.4062270000000  0.4239100000000  0.4983790000000 1.0
C      1  0.5801670000000  0.5693300000000  0.4785690000000 1.0
C      1  0.3920120000000  0.4810820000000  0.4772340000000 1.0
C      1  0.4457320000000  0.5466800000000  0.4533180000000 1.0
C      1  0.4119650000000  0.4298280000000  0.4423510000000 1.0
C      1  0.5031790000000  0.5027020000000  0.4378580000000 1.0
C      1  0.4353110000000  0.4486280000000  0.4684180000000 1.0
C      1  0.5909450000000  0.4826680000000  0.5451910000000 1.0
C      1  0.5073870000000  0.4349570000000  0.4214060000000 1.0
C      1  0.4809130000000  0.4503320000000  0.4064850000000 1.0
C      1  0.5202280000000  0.4694360000000  0.4593550000000 1.0
C      1  0.5053460000000  0.6069430000000  0.5119080000000 1.0
C      1  0.5755710000000  0.5085100000000  0.4178690000000 1.0
C      1  0.5639260000000  0.4947100000000  0.5896090000000 1.0
C      1  0.4679700000000  0.5669790000000  0.4952260000000 1.0
C      1  0.4916620000000  0.4887590000000  0.5275330000000 1.0
C      1  0.4244310000000  0.5800150000000  0.4591200000000 1.0
C      1  0.5589180000000  0.4486820000000  0.5641420000000 1.0
C      1  0.4104510000000  0.4274270000000  0.4717640000000 1.0
C      1  0.5749300000000  0.4762980000000  0.5691440000000 1.0
C      1  0.5821010000000  0.5232360000000  0.4697680000000 1.0
C      1  0.4836980000000  0.4053780000000  0.5162800000000 1.0
C      1  0.5709460000000  0.4354940000000  0.5385070000000 1.0
C      1  0.4768330000000  0.5816490000000  0.5424740000000 1.0
C      1  0.4345490000000  0.4524820000000  0.4351730000000 1.0
C      1  0.4567460000000  0.5859080000000  0.5162010000000 1.0
C      1  0.4160770000000  0.5147120000000  0.5432360000000 1.0
C      1  0.5601670000000  0.4120620000000  0.5066700000000 1.0
C      1  0.5447940000000  0.5830270000000  0.4659370000000 1.0
C      1  0.5277800000000  0.5408140000000  0.5675260000000 1.0
C      1  0.5365550000000  0.4708640000000  0.5593390000000 1.0
C      1  0.5557020000000  0.5017990000000  0.5270680000000 1.0
C      1  0.4458600000000  0.4273870000000  0.5493430000000 1.0
C      1  0.5027460000000  0.4416280000000  0.5651150000000 1.0
C      1  0.5724490000000  0.5439290000000  0.5320430000000 1.0
C      1  0.4435100000000  0.5807330000000  0.5476810000000 1.0
C      1  0.5424590000000  0.4924400000000  0.6088550000000 1.0
C      1  0.5147590000000  0.4960800000000  0.3906730000000 1.0
C      1  0.4867900000000  0.4226650000000  0.4803650000000 1.0
C      1  0.4040500000000  0.5285820000000  0.5144890000000 1.0
C      1  0.4600110000000  0.4985490000000  0.4738970000000 1.0
C      1  0.5187380000000  0.5684650000000  0.5855730000000 1.0
C      1  0.4016090000000  0.4768920000000  0.5085200000000 1.0
C      1  0.5306530000000  0.5079170000000  0.4573330000000 1.0
C      1  0.5511630000000  0.5547990000000  0.4821590000000 1.0
C      1  0.5559490000000  0.4266470000000  0.4453260000000 1.0
C      1  0.4910440000000  0.4910380000000  0.5673770000000 1.0
C      1  0.4539480000000  0.5458270000000  0.4225160000000 1.0
C      1  0.4541030000000  0.5191940000000  0.4116720000000 1.0
C      1  0.4846870000000  0.5705950000000  0.5800430000000 1.0
C      1  0.4086190000000  0.5304100000000  0.4169260000000 1.0
C      1  0.4553840000000  0.4505820000000  0.5582540000000 1.0
C      1  0.5141920000000  0.5116410000000  0.6096890000000 1.0
C      1  0.4104240000000  0.5117360000000  0.4600470000000 1.0
C      1  0.5478040000000  0.4804740000000  0.4501500000000 1.0
C      1  0.4752410000000  0.4233380000000  0.4251770000000 1.0
C      1  0.4923480000000  0.4111320000000  0.4494580000000 1.0
C      1  0.5101900000000  0.5269570000000  0.3900590000000 1.0
C      1  0.4095020000000  0.4806880000000  0.4480710000000 1.0
C      1  0.5462290000000  0.4256930000000  0.5791670000000 1.0
C      1  0.4618350000000  0.3957880000000  0.4961480000000 1.0
C      1  0.5413010000000  0.4368740000000  0.5002620000000 1.0
C      1  0.5385040000000  0.4292230000000  0.4247440000000 1.0
C      1  0.5203490000000  0.4909360000000  0.4849450000000 1.0
C      1  0.5504850000000  0.5881540000000  0.5264580000000 1.0
C      1  0.5504610000000  0.5313120000000  0.4591590000000 1.0
C      1  0.4250350000000  0.4807780000000  0.4200820000000 1.0
C      1  0.4281820000000  0.4386450000000  0.5154660000000 1.0
C      1  0.5215640000000  0.4187960000000  0.5667830000000 1.0
C      1  0.4953420000000  0.5407670000000  0.5701140000000 1.0
C      1  0.5724980000000  0.5276230000000  0.5021600000000 1.0
C      1  0.6004010000000  0.4611280000000  0.5305220000000 1.0
C      1  0.4310560000000  0.4880570000000  0.4731280000000 1.0
C      1  0.5316850000000  0.3982830000000  0.4973520000000 1.0
C      1  0.4730840000000  0.4988810000000  0.4222640000000 1.0
C      1  0.5643950000000  0.5753590000000  0.5549870000000 1.0
C      1  0.4407910000000  0.4831930000000  0.5775140000000 1.0
C      1  0.4517000000000  0.4162960000000  0.5206130000000 1.0
C      1  0.4950290000000  0.5399000000000  0.4646390000000 1.0
C      1  0.4166820000000  0.4665950000000  0.5310590000000 1.0
C      1  0.5532190000000  0.4757830000000  0.4186960000000 1.0
C      1  0.4880640000000  0.5520480000000  0.5399230000000 1.0
C      1  0.5460100000000  0.5612750000000  0.4434710000000 1.0
C      1  0.5092550000000  0.4641020000000  0.5400770000000 1.0
C      1  0.4637110000000  0.5314390000000  0.4720540000000 1.0
C      1  0.4939070000000  0.6247400000000  0.4976380000000 1.0
C      1  0.5698830000000  0.4718810000000  0.4700020000000 1.0
C      1  0.5454580000000  0.5000680000000  0.5547810000000 1.0
C      1  0.4233960000000  0.4863530000000  0.5516210000000 1.0
C      1  0.5749730000000  0.4295110000000  0.4802570000000 1.0
C      1  0.5815210000000  0.4452310000000  0.5097920000000 1.0
C      1  0.5687700000000  0.5465570000000  0.5652840000000 1.0
C      1  0.5433600000000  0.5547980000000  0.4153340000000 1.0
C      1  0.5422000000000  0.4857230000000  0.5050700000000 1.0
C      1  0.5136470000000  0.4374230000000  0.4549160000000 1.0
C      1  0.4932830000000  0.4806560000000  0.4040620000000 1.0
C      1  0.5415220000000  0.5418870000000  0.5071720000000 1.0
C      1  0.4688140000000  0.4739780000000  0.5958410000000 1.0
C      1  0.5401240000000  0.4855290000000  0.3975570000000 1.0
C      1  0.4807970000000  0.5185360000000  0.5403290000000 1.0
C      1  0.4947330000000  0.5670860000000  0.4245860000000 1.0
C      1  0.4033330000000  0.5366680000000  0.4608270000000 1.0
C      1  0.5473530000000  0.4113440000000  0.4701300000000 1.0
C      1  0.4594190000000  0.5255810000000  0.5628660000000 1.0
C      1  0.5115680000000  0.5232720000000  0.5260310000000 1.0
C      1  0.4076410000000  0.5615810000000  0.4731770000000 1.0
C      1  0.5072300000000  0.5423430000000  0.4393050000000 1.0
C      1  0.4337920000000  0.5400620000000  0.5530540000000 1.0
C      1  0.5108660000000  0.3992470000000  0.5184870000000 1.0
C      1  0.5832860000000  0.4760990000000  0.4326160000000 1.0
C      1  0.4750440000000  0.5781190000000  0.4449230000000 1.0
C      1  0.5161520000000  0.5098750000000  0.5563220000000 1.0
C      1  0.4657940000000  0.5089790000000  0.5047590000000 1.0
C      1  0.4925450000000  0.4905280000000  0.4956730000000 1.0
C      1  0.5106510000000  0.4693190000000  0.5792780000000 1.0
C      1  0.5403130000000  0.5365530000000  0.5393540000000 1.0
C      1  0.5937680000000  0.5070780000000  0.4420930000000 1.0
C      1  0.4473980000000  0.5857950000000  0.4450490000000 1.0
C      1  0.5619720000000  0.5216600000000  0.5753980000000 1.0
C      1  0.4240800000000  0.5771160000000  0.5201090000000 1.0
C      1  0.4754330000000  0.4504470000000  0.5792490000000 1.0
C      1  0.4909730000000  0.5168010000000  0.5865000000000 1.0
C      1  0.5804330000000  0.4478570000000  0.4518170000000 1.0
C      1  0.5472210000000  0.5928930000000  0.4936550000000 1.0
END
