TITL C-2778432-5617-730 0.407187815308744 125000 -313.926744062969 0 0 55 (C1) n - 1
REM
REM in /home/nfs/bkarasulu/CARBON/AIRSS/Generating-Clusters/REBO/Only-C1/SD-CG/HFTN-CG
REM
REM
REM
REM
REM
REM ./C.cell (11c1c37f851c82e70ff6c80c92926a4b)
REM
REM compiler GCC version 9.2.1 20190827 (Red Hat 9.2.1-1)
REM options -cpp -mtune=generic -march=x86-64 -g -O0 -fpre-include=/usr/include/finclude/math-vector-fortran.h
REM seed 1042689801 971568856 -1601153264 -1250943346 -927801679 1546882591 -74127700 930153386 -71894609 -1082911576 -1463169092 972202990 973950505 1083486694 -1593315492 -169137598 -258423211 -472206334 -1180402592 -1820794558 983811044 -186770932 2077197875 1682702730 -450788207 -1876287263 1585034217 -1534521345 1879942510 -957282759 1199608293 -1900761572 -72395573
REM
CELL 1.54180   50.00000   50.00000   50.00000   90.00000   90.00000   90.00000
LATT -1
SFAC C  
C      1  0.4708980000000  0.4568540000000  0.5341940000000 1.0
C      1  0.4352450000000  0.5455470000000  0.5256390000000 1.0
C      1  0.5871190000000  0.5555020000000  0.5144380000000 1.0
C      1  0.5091570000000  0.5508510000000  0.4650710000000 1.0
C      1  0.4735990000000  0.4794980000000  0.5568020000000 1.0
C      1  0.5447610000000  0.5046360000000  0.4629910000000 1.0
C      1  0.5202150000000  0.5357770000000  0.5264080000000 1.0
C      1  0.5680430000000  0.4668040000000  0.4834290000000 1.0
C      1  0.4868180000000  0.4381760000000  0.4587130000000 1.0
C      1  0.4884370000000  0.5448720000000  0.4463090000000 1.0
C      1  0.5570830000000  0.4418500000000  0.4855080000000 1.0
C      1  0.5134640000000  0.4419880000000  0.5066380000000 1.0
C      1  0.5299130000000  0.4329310000000  0.4846690000000 1.0
C      1  0.4350720000000  0.5097890000000  0.4923090000000 1.0
C      1  0.4847100000000  0.4988180000000  0.5724990000000 1.0
C      1  0.4365290000000  0.5529690000000  0.4610880000000 1.0
C      1  0.4541740000000  0.4779910000000  0.4536420000000 1.0
C      1  0.5182980000000  0.5662040000000  0.5372250000000 1.0
C      1  0.5660580000000  0.4208120000000  0.5617640000000 1.0
C      1  0.4823010000000  0.4485330000000  0.5065560000000 1.0
C      1  0.4997870000000  0.5635160000000  0.4896480000000 1.0
C      1  0.4245840000000  0.4857600000000  0.5392820000000 1.0
C      1  0.4854030000000  0.4809810000000  0.4966360000000 1.0
C      1  0.4603310000000  0.5328650000000  0.4608210000000 1.0
C      1  0.5274200000000  0.5263610000000  0.4701690000000 1.0
C      1  0.4546690000000  0.5074160000000  0.4389300000000 1.0
C      1  0.4951650000000  0.5236700000000  0.5716890000000 1.0
C      1  0.5667110000000  0.4874210000000  0.5321580000000 1.0
C      1  0.4724050000000  0.5236640000000  0.4890480000000 1.0
C      1  0.5585010000000  0.4419810000000  0.5482890000000 1.0
C      1  0.4595740000000  0.4381840000000  0.4878470000000 1.0
C      1  0.5614670000000  0.4942380000000  0.4834920000000 1.0
C      1  0.4601810000000  0.4983220000000  0.5072340000000 1.0
C      1  0.4610020000000  0.5556740000000  0.5252540000000 1.0
C      1  0.4513690000000  0.4840410000000  0.5324990000000 1.0
C      1  0.5026140000000  0.5162510000000  0.4839190000000 1.0
C      1  0.4493190000000  0.4493630000000  0.4679660000000 1.0
C      1  0.5328420000000  0.4854480000000  0.4458220000000 1.0
C      1  0.5258390000000  0.4646910000000  0.5195920000000 1.0
C      1  0.4791300000000  0.5501420000000  0.5044330000000 1.0
C      1  0.5278720000000  0.5121390000000  0.5146360000000 1.0
C      1  0.5238250000000  0.5918630000000  0.5344520000000 1.0
C      1  0.5581480000000  0.5075370000000  0.5108280000000 1.0
C      1  0.5504520000000  0.4645260000000  0.5339380000000 1.0
C      1  0.5739520000000  0.5337030000000  0.5127980000000 1.0
C      1  0.5127870000000  0.4886810000000  0.5109570000000 1.0
C      1  0.5173360000000  0.4359580000000  0.4588370000000 1.0
C      1  0.5128830000000  0.4666560000000  0.4506250000000 1.0
C      1  0.4177430000000  0.5520670000000  0.4810440000000 1.0
C      1  0.4785190000000  0.5254980000000  0.4262140000000 1.0
C      1  0.5061970000000  0.5420630000000  0.5546150000000 1.0
C      1  0.4342030000000  0.5019530000000  0.4654160000000 1.0
C      1  0.5895320000000  0.4918580000000  0.5470470000000 1.0
C      1  0.4236280000000  0.5339250000000  0.5022330000000 1.0
C      1  0.4827170000000  0.4711830000000  0.4657380000000 1.0
END
