TITL C-2778437-8639-1353 -0.165838699664801 125000 -1011.90774482493 0 0 175 (C1) n - 1
REM
REM in /home/nfs/bkarasulu/CARBON/AIRSS/Generating-Clusters/REBO/Only-C1/SD-CG/HFTN-CG
REM
REM
REM
REM
REM
REM ./C.cell (11c1c37f851c82e70ff6c80c92926a4b)
REM
REM compiler GCC version 9.2.1 20190827 (Red Hat 9.2.1-1)
REM options -cpp -mtune=generic -march=x86-64 -g -O0 -fpre-include=/usr/include/finclude/math-vector-fortran.h
REM seed -432320542 422924595 1770632449 -827648107 1700062809 1477221379 1681389030 -1766261468 1770922560 -184572453 -1729401036 -1653719392 1104259673 -1503974922 -1394696637 2037125675 1689241535 -771604188 -971067661 -644353788 -750609983 48519472 -193821635 570245861 -692803953 1340399091 917837210 -1438886480 -322153855 1672696068 1791167191 1834736008 415481709
REM
CELL 1.54180   50.00000   50.00000   50.00000   90.00000   90.00000   90.00000
LATT -1
SFAC C  
C      1  0.5390940000000  0.4395050000000  0.5825420000000 1.0
C      1  0.4570020000000  0.6010090000000  0.5189070000000 1.0
C      1  0.4955940000000  0.5644300000000  0.4372790000000 1.0
C      1  0.5597850000000  0.5166440000000  0.5379470000000 1.0
C      1  0.5420760000000  0.4616620000000  0.5134220000000 1.0
C      1  0.4367210000000  0.4518320000000  0.4751230000000 1.0
C      1  0.4634880000000  0.4844330000000  0.4373040000000 1.0
C      1  0.4938080000000  0.4357220000000  0.6037790000000 1.0
C      1  0.5926570000000  0.5102690000000  0.4945040000000 1.0
C      1  0.5048500000000  0.5737470000000  0.5115020000000 1.0
C      1  0.5532030000000  0.4539570000000  0.4860240000000 1.0
C      1  0.5953890000000  0.5422660000000  0.5176930000000 1.0
C      1  0.5564370000000  0.5375720000000  0.5128170000000 1.0
C      1  0.5143500000000  0.5175300000000  0.4517020000000 1.0
C      1  0.3941120000000  0.4865600000000  0.4866770000000 1.0
C      1  0.6083300000000  0.4670420000000  0.4715510000000 1.0
C      1  0.4237550000000  0.5438730000000  0.5693310000000 1.0
C      1  0.4873850000000  0.4844530000000  0.5513260000000 1.0
C      1  0.4900460000000  0.4825380000000  0.5833530000000 1.0
C      1  0.4313200000000  0.4609770000000  0.5621820000000 1.0
C      1  0.4918230000000  0.5643390000000  0.5359600000000 1.0
C      1  0.5467860000000  0.5278810000000  0.4114140000000 1.0
C      1  0.5247100000000  0.4168020000000  0.5529270000000 1.0
C      1  0.5528900000000  0.4604740000000  0.5703380000000 1.0
C      1  0.4553860000000  0.5958060000000  0.5488760000000 1.0
C      1  0.6014090000000  0.4973260000000  0.4578880000000 1.0
C      1  0.5219950000000  0.5882860000000  0.4856530000000 1.0
C      1  0.4338690000000  0.4838660000000  0.5848600000000 1.0
C      1  0.5051670000000  0.4052460000000  0.5201150000000 1.0
C      1  0.4548820000000  0.4442940000000  0.5254710000000 1.0
C      1  0.4346120000000  0.4760630000000  0.4317340000000 1.0
C      1  0.5871530000000  0.4623270000000  0.4452920000000 1.0
C      1  0.4984400000000  0.4178370000000  0.5607730000000 1.0
C      1  0.5605550000000  0.5126630000000  0.5832970000000 1.0
C      1  0.5431560000000  0.5916860000000  0.4589430000000 1.0
C      1  0.4837670000000  0.5928960000000  0.4755360000000 1.0
C      1  0.5840550000000  0.4444290000000  0.4748270000000 1.0
C      1  0.5570740000000  0.4757130000000  0.5406070000000 1.0
C      1  0.4579710000000  0.5257330000000  0.5972330000000 1.0
C      1  0.5276690000000  0.5579070000000  0.4953470000000 1.0
C      1  0.4679710000000  0.4455090000000  0.4724680000000 1.0
C      1  0.4525940000000  0.4203260000000  0.4341120000000 1.0
C      1  0.5372550000000  0.4773480000000  0.4408340000000 1.0
C      1  0.4640510000000  0.5472020000000  0.5260700000000 1.0
C      1  0.5433780000000  0.5076390000000  0.4349700000000 1.0
C      1  0.4676640000000  0.4482950000000  0.5902990000000 1.0
C      1  0.4270860000000  0.4311440000000  0.5004130000000 1.0
C      1  0.4282550000000  0.5211510000000  0.4493740000000 1.0
C      1  0.5095360000000  0.6132190000000  0.5142820000000 1.0
C      1  0.5445450000000  0.5521180000000  0.4551870000000 1.0
C      1  0.4891620000000  0.5358830000000  0.5548150000000 1.0
C      1  0.4246800000000  0.4545040000000  0.4472860000000 1.0
C      1  0.5527600000000  0.5770940000000  0.5084040000000 1.0
C      1  0.5049040000000  0.5067460000000  0.4243250000000 1.0
C      1  0.5096110000000  0.3943050000000  0.4815410000000 1.0
C      1  0.5616180000000  0.5701370000000  0.4782300000000 1.0
C      1  0.5834270000000  0.4927170000000  0.4301530000000 1.0
C      1  0.4894740000000  0.5231640000000  0.5068220000000 1.0
C      1  0.4829650000000  0.3971570000000  0.4800140000000 1.0
C      1  0.4647130000000  0.5717060000000  0.5052780000000 1.0
C      1  0.4929670000000  0.4286470000000  0.4017050000000 1.0
C      1  0.4164110000000  0.5626400000000  0.5119090000000 1.0
C      1  0.5163220000000  0.5363950000000  0.4006060000000 1.0
C      1  0.4342150000000  0.5856630000000  0.5003190000000 1.0
C      1  0.5447680000000  0.4855880000000  0.5889660000000 1.0
C      1  0.4441960000000  0.4341930000000  0.5729330000000 1.0
C      1  0.4417830000000  0.5010030000000  0.4725300000000 1.0
C      1  0.4850240000000  0.4736810000000  0.5129630000000 1.0
C      1  0.4833540000000  0.5635890000000  0.5825280000000 1.0
C      1  0.4606020000000  0.5550740000000  0.5586000000000 1.0
C      1  0.5157810000000  0.4665240000000  0.5544820000000 1.0
C      1  0.4668280000000  0.5650240000000  0.4653790000000 1.0
C      1  0.4161000000000  0.4973030000000  0.5591460000000 1.0
C      1  0.5486120000000  0.4818940000000  0.4714870000000 1.0
C      1  0.5517580000000  0.5741980000000  0.4310080000000 1.0
C      1  0.5102540000000  0.4282020000000  0.4311190000000 1.0
C      1  0.5160560000000  0.4521490000000  0.4070190000000 1.0
C      1  0.4529690000000  0.4207520000000  0.5484210000000 1.0
C      1  0.5973370000000  0.5093520000000  0.5269290000000 1.0
C      1  0.5842450000000  0.5071160000000  0.5585620000000 1.0
C      1  0.4858870000000  0.5206350000000  0.3991630000000 1.0
C      1  0.5179460000000  0.4478480000000  0.6003990000000 1.0
C      1  0.5603570000000  0.4835490000000  0.4110920000000 1.0
C      1  0.4927510000000  0.5115380000000  0.5372310000000 1.0
C      1  0.5256280000000  0.5004950000000  0.4775710000000 1.0
C      1  0.4102460000000  0.5553090000000  0.5406070000000 1.0
C      1  0.4821170000000  0.5490730000000  0.4899280000000 1.0
C      1  0.5631960000000  0.4424670000000  0.4385640000000 1.0
C      1  0.5354850000000  0.5528640000000  0.5759320000000 1.0
C      1  0.5324930000000  0.5264520000000  0.5972310000000 1.0
C      1  0.4726810000000  0.5134740000000  0.4298530000000 1.0
C      1  0.4364810000000  0.5489560000000  0.4651720000000 1.0
C      1  0.5289110000000  0.5238770000000  0.5592950000000 1.0
C      1  0.4634010000000  0.4612580000000  0.5509070000000 1.0
C      1  0.5176040000000  0.5309870000000  0.4889320000000 1.0
C      1  0.4730720000000  0.5064300000000  0.6094650000000 1.0
C      1  0.5527490000000  0.5240200000000  0.4600450000000 1.0
C      1  0.4500290000000  0.5254790000000  0.5129320000000 1.0
C      1  0.5981250000000  0.5294130000000  0.4665610000000 1.0
C      1  0.5612780000000  0.5664700000000  0.5586340000000 1.0
C      1  0.5672970000000  0.5449040000000  0.4231430000000 1.0
C      1  0.4248400000000  0.4907150000000  0.4966690000000 1.0
C      1  0.4237750000000  0.5085660000000  0.5217550000000 1.0
C      1  0.4932330000000  0.5923560000000  0.4368560000000 1.0
C      1  0.5678670000000  0.3901180000000  0.5252070000000 1.0
C      1  0.4609680000000  0.4784270000000  0.5991030000000 1.0
C      1  0.5366890000000  0.3973740000000  0.4848920000000 1.0
C      1  0.5324660000000  0.6000790000000  0.5224070000000 1.0
C      1  0.5142350000000  0.4628640000000  0.4846690000000 1.0
C      1  0.4681800000000  0.4953690000000  0.4750270000000 1.0
C      1  0.4391050000000  0.4957320000000  0.4081970000000 1.0
C      1  0.4813360000000  0.4614450000000  0.4484890000000 1.0
C      1  0.4753660000000  0.4036680000000  0.5526990000000 1.0
C      1  0.4440330000000  0.4667170000000  0.5048100000000 1.0
C      1  0.4923550000000  0.5007860000000  0.4847420000000 1.0
C      1  0.4330970000000  0.5213400000000  0.4192420000000 1.0
C      1  0.5009490000000  0.4800600000000  0.3950550000000 1.0
C      1  0.4684190000000  0.4912870000000  0.3964530000000 1.0
C      1  0.4333540000000  0.5737950000000  0.5577350000000 1.0
C      1  0.4495310000000  0.5423740000000  0.4132960000000 1.0
C      1  0.5201990000000  0.4241930000000  0.4571640000000 1.0
C      1  0.5210180000000  0.5031640000000  0.3939540000000 1.0
C      1  0.5320770000000  0.5739030000000  0.5424100000000 1.0
C      1  0.5589110000000  0.4102800000000  0.5074000000000 1.0
C      1  0.5095220000000  0.4703730000000  0.4568680000000 1.0
C      1  0.5153680000000  0.4814210000000  0.5110860000000 1.0
C      1  0.5114690000000  0.6044510000000  0.4591550000000 1.0
C      1  0.3994230000000  0.5203600000000  0.4894950000000 1.0
C      1  0.5179170000000  0.4352060000000  0.4867250000000 1.0
C      1  0.5008420000000  0.5443460000000  0.4618570000000 1.0
C      1  0.5480480000000  0.4953590000000  0.3885430000000 1.0
C      1  0.4025990000000  0.5069950000000  0.4608480000000 1.0
C      1  0.5484650000000  0.4333670000000  0.4612390000000 1.0
C      1  0.5818020000000  0.4331670000000  0.5041990000000 1.0
C      1  0.5298070000000  0.4236840000000  0.5138850000000 1.0
C      1  0.5927310000000  0.4519850000000  0.5217840000000 1.0
C      1  0.5323770000000  0.4445000000000  0.5390590000000 1.0
C      1  0.4764610000000  0.4581160000000  0.3962870000000 1.0
C      1  0.4805780000000  0.4158390000000  0.5150280000000 1.0
C      1  0.4839350000000  0.6064440000000  0.5020820000000 1.0
C      1  0.3880660000000  0.4942260000000  0.5322260000000 1.0
C      1  0.4630410000000  0.4150330000000  0.4616820000000 1.0
C      1  0.5123990000000  0.5745290000000  0.5686990000000 1.0
C      1  0.5872150000000  0.5499150000000  0.4880200000000 1.0
C      1  0.5047870000000  0.5095980000000  0.6080290000000 1.0
C      1  0.4297850000000  0.5790470000000  0.4695990000000 1.0
C      1  0.5792310000000  0.4836550000000  0.4797440000000 1.0
C      1  0.5617590000000  0.5187870000000  0.4870690000000 1.0
C      1  0.4777060000000  0.4456460000000  0.5009960000000 1.0
C      1  0.5012850000000  0.5349530000000  0.5857070000000 1.0
C      1  0.5172520000000  0.4797370000000  0.6020080000000 1.0
C      1  0.5234070000000  0.5551600000000  0.4281410000000 1.0
C      1  0.4907180000000  0.4472750000000  0.5656250000000 1.0
C      1  0.4830840000000  0.5879310000000  0.5585340000000 1.0
C      1  0.4725860000000  0.4412950000000  0.4245200000000 1.0
C      1  0.3874390000000  0.4589890000000  0.4979100000000 1.0
C      1  0.5853120000000  0.5262910000000  0.4365100000000 1.0
C      1  0.4604810000000  0.4934530000000  0.5180750000000 1.0
C      1  0.4550590000000  0.4127970000000  0.4940540000000 1.0
C      1  0.4265390000000  0.4294020000000  0.4337210000000 1.0
C      1  0.5451730000000  0.4564300000000  0.4177710000000 1.0
C      1  0.5346580000000  0.4937950000000  0.5588500000000 1.0
C      1  0.5301470000000  0.5428010000000  0.5322020000000 1.0
C      1  0.5719550000000  0.5632860000000  0.5288910000000 1.0
C      1  0.5512460000000  0.4985760000000  0.5105390000000 1.0
C      1  0.4068500000000  0.4480580000000  0.5154000000000 1.0
C      1  0.5865560000000  0.4773760000000  0.5318160000000 1.0
C      1  0.4423060000000  0.5233010000000  0.5740000000000 1.0
C      1  0.4089230000000  0.4684750000000  0.5403350000000 1.0
C      1  0.4242100000000  0.5379130000000  0.4945840000000 1.0
C      1  0.4470470000000  0.5050070000000  0.5471040000000 1.0
C      1  0.5233400000000  0.5105710000000  0.5227970000000 1.0
C      1  0.5699520000000  0.5372030000000  0.5632970000000 1.0
C      1  0.4018070000000  0.5231890000000  0.5418870000000 1.0
C      1  0.4695950000000  0.5466310000000  0.4370870000000 1.0
END
