TITL C-2778429-3646-1359 0.00203056978835895 125000 -249.462972315933 0 0 46 (C1) n - 1
REM
REM in /home/nfs/bkarasulu/CARBON/AIRSS/Generating-Clusters/REBO/Only-C1/SD-CG/HFTN-CG
REM
REM
REM
REM
REM
REM ./C.cell (11c1c37f851c82e70ff6c80c92926a4b)
REM
REM compiler GCC version 9.2.1 20190827 (Red Hat 9.2.1-1)
REM options -cpp -mtune=generic -march=x86-64 -g -O0 -fpre-include=/usr/include/finclude/math-vector-fortran.h
REM seed 1070418522 1995411810 1008328895 166786736 2041659764 449872277 96267575 963008935 2010716687 -1157728543 283216320 -529149423 182050427 -1241284845 321920272 752367623 1376855005 987883298 1981606792 1230500509 590286545 -1228395427 -995805578 -688295449 880919214 1895908814 281911894 55893923 -1531336430 -2074633661 -1065380932 -752261635 982976117
REM
CELL 1.54180   50.00000   50.00000   50.00000   90.00000   90.00000   90.00000
LATT -1
SFAC C  
C      1  0.4469790000000  0.4840590000000  0.5258930000000 1.0
C      1  0.4827690000000  0.4962870000000  0.5711460000000 1.0
C      1  0.4735520000000  0.4794580000000  0.4477310000000 1.0
C      1  0.4775540000000  0.4712370000000  0.6171010000000 1.0
C      1  0.5378390000000  0.5235520000000  0.4648150000000 1.0
C      1  0.5583670000000  0.5384800000000  0.5315410000000 1.0
C      1  0.5626400000000  0.4463010000000  0.4876160000000 1.0
C      1  0.5433250000000  0.5019690000000  0.4892880000000 1.0
C      1  0.5349900000000  0.5331580000000  0.6307040000000 1.0
C      1  0.4778860000000  0.5406830000000  0.5101100000000 1.0
C      1  0.4625280000000  0.4554650000000  0.4890200000000 1.0
C      1  0.4758280000000  0.5671690000000  0.4942150000000 1.0
C      1  0.5372200000000  0.4978090000000  0.4431750000000 1.0
C      1  0.5352990000000  0.5310980000000  0.6045800000000 1.0
C      1  0.5830920000000  0.5466040000000  0.5397010000000 1.0
C      1  0.4921970000000  0.4169680000000  0.4716570000000 1.0
C      1  0.4636560000000  0.5052340000000  0.5217910000000 1.0
C      1  0.4769040000000  0.4775580000000  0.4762560000000 1.0
C      1  0.4871610000000  0.5227130000000  0.4406080000000 1.0
C      1  0.4694040000000  0.5630770000000  0.4697020000000 1.0
C      1  0.4634130000000  0.5181030000000  0.4902830000000 1.0
C      1  0.4460750000000  0.4612030000000  0.5111240000000 1.0
C      1  0.5028260000000  0.5207080000000  0.5029320000000 1.0
C      1  0.4990350000000  0.4913730000000  0.4885040000000 1.0
C      1  0.4951180000000  0.4845150000000  0.4318580000000 1.0
C      1  0.5250270000000  0.4800700000000  0.4849490000000 1.0
C      1  0.5255300000000  0.5377020000000  0.4898050000000 1.0
C      1  0.4490630000000  0.4739600000000  0.4370200000000 1.0
C      1  0.4374050000000  0.5142820000000  0.4146380000000 1.0
C      1  0.5138680000000  0.5125200000000  0.5330660000000 1.0
C      1  0.5428160000000  0.5516490000000  0.5063820000000 1.0
C      1  0.5416460000000  0.4724370000000  0.4493840000000 1.0
C      1  0.5356130000000  0.5290040000000  0.5780330000000 1.0
C      1  0.4857590000000  0.5106540000000  0.5447890000000 1.0
C      1  0.4703480000000  0.5395260000000  0.5407020000000 1.0
C      1  0.4436170000000  0.4963500000000  0.4879970000000 1.0
C      1  0.5214750000000  0.4296700000000  0.4694590000000 1.0
C      1  0.4581610000000  0.5202310000000  0.4301800000000 1.0
C      1  0.4696660000000  0.4296410000000  0.4807160000000 1.0
C      1  0.5164180000000  0.3991350000000  0.4597130000000 1.0
C      1  0.4801520000000  0.4837190000000  0.5942040000000 1.0
C      1  0.5385820000000  0.4527690000000  0.4745390000000 1.0
C      1  0.5431190000000  0.5127840000000  0.5156350000000 1.0
C      1  0.5133560000000  0.5184190000000  0.4426340000000 1.0
C      1  0.5359250000000  0.5269180000000  0.5515930000000 1.0
C      1  0.4667970000000  0.5337790000000  0.4632150000000 1.0
END
