TITL C-2778422-5617-357 -0.00243593856480534 125000 -1108.05362984063 0 0 187 (C1) n - 1
REM
REM in /home/nfs/bkarasulu/CARBON/AIRSS/Generating-Clusters/REBO/Only-C1/SD-CG/HFTN-CG
REM
REM
REM
REM
REM
REM ./C.cell (11c1c37f851c82e70ff6c80c92926a4b)
REM
REM compiler GCC version 9.2.1 20190827 (Red Hat 9.2.1-1)
REM options -cpp -mtune=generic -march=x86-64 -g -O0 -fpre-include=/usr/include/finclude/math-vector-fortran.h
REM seed -310174266 76908399 1409755115 -1626085548 -2055327447 237354358 -1142960968 -1357216199 -496064303 -80525182 -1428569307 686654240 -472814518 2087736109 -2107784166 -1039760771 -2066074937 -1849101708 683179379 -1350240072 -218948778 -196250763 1279678550 804656554 2115275673 71666303 521231447 -1174529642 1889397295 1683511675 -497688359 1217019076 1265446149
REM
CELL 1.54180   50.00000   50.00000   50.00000   90.00000   90.00000   90.00000
LATT -1
SFAC C  
C      1  0.5100070000000  0.6129800000000  0.5031950000000 1.0
C      1  0.5016000000000  0.5966140000000  0.5411400000000 1.0
C      1  0.4298450000000  0.4842770000000  0.5153070000000 1.0
C      1  0.5410950000000  0.5440240000000  0.5861900000000 1.0
C      1  0.5647620000000  0.5551080000000  0.5345090000000 1.0
C      1  0.4349280000000  0.4304120000000  0.4859780000000 1.0
C      1  0.5191290000000  0.4613490000000  0.5677170000000 1.0
C      1  0.4897780000000  0.4960910000000  0.5018730000000 1.0
C      1  0.5145010000000  0.4706440000000  0.4378610000000 1.0
C      1  0.5336820000000  0.5992140000000  0.5089990000000 1.0
C      1  0.5511180000000  0.4399040000000  0.5122040000000 1.0
C      1  0.5440250000000  0.4039810000000  0.4610250000000 1.0
C      1  0.4521500000000  0.4291560000000  0.4583210000000 1.0
C      1  0.5370850000000  0.5159230000000  0.4451670000000 1.0
C      1  0.5271500000000  0.4519540000000  0.4030830000000 1.0
C      1  0.5168760000000  0.6025260000000  0.4184670000000 1.0
C      1  0.4569000000000  0.5119580000000  0.4540520000000 1.0
C      1  0.4362200000000  0.5398460000000  0.4231590000000 1.0
C      1  0.6085040000000  0.5049310000000  0.4964850000000 1.0
C      1  0.5003430000000  0.4937330000000  0.4194000000000 1.0
C      1  0.4503620000000  0.4094230000000  0.5348090000000 1.0
C      1  0.4423110000000  0.5718010000000  0.5684210000000 1.0
C      1  0.4366890000000  0.5064620000000  0.4296240000000 1.0
C      1  0.5459410000000  0.5127260000000  0.4884380000000 1.0
C      1  0.5956810000000  0.5301390000000  0.5322810000000 1.0
C      1  0.5033210000000  0.5782090000000  0.4137390000000 1.0
C      1  0.5034100000000  0.4347870000000  0.5929910000000 1.0
C      1  0.4318760000000  0.4567290000000  0.4572820000000 1.0
C      1  0.4815260000000  0.4834580000000  0.5309850000000 1.0
C      1  0.5792230000000  0.5087320000000  0.4108320000000 1.0
C      1  0.5489190000000  0.4683050000000  0.5032790000000 1.0
C      1  0.4551410000000  0.4811950000000  0.4623190000000 1.0
C      1  0.5244060000000  0.5861200000000  0.4632580000000 1.0
C      1  0.5138940000000  0.5216030000000  0.5675720000000 1.0
C      1  0.5337320000000  0.4489400000000  0.5468720000000 1.0
C      1  0.6068900000000  0.4824700000000  0.5124700000000 1.0
C      1  0.4697600000000  0.4555210000000  0.4478950000000 1.0
C      1  0.4140710000000  0.5749100000000  0.4966340000000 1.0
C      1  0.5288240000000  0.4521550000000  0.5964110000000 1.0
C      1  0.4908450000000  0.4720840000000  0.5679700000000 1.0
C      1  0.4760940000000  0.4534430000000  0.4817430000000 1.0
C      1  0.5480580000000  0.4357300000000  0.4182350000000 1.0
C      1  0.5654130000000  0.4870770000000  0.4217560000000 1.0
C      1  0.5567950000000  0.4577430000000  0.5804060000000 1.0
C      1  0.4073640000000  0.4713350000000  0.4605900000000 1.0
C      1  0.5390490000000  0.3905700000000  0.5395960000000 1.0
C      1  0.5343580000000  0.3888960000000  0.4899700000000 1.0
C      1  0.4639090000000  0.5625850000000  0.4406060000000 1.0
C      1  0.5479590000000  0.5370530000000  0.4567710000000 1.0
C      1  0.5781340000000  0.4696880000000  0.4406360000000 1.0
C      1  0.5730140000000  0.4059550000000  0.5103530000000 1.0
C      1  0.4516850000000  0.5853760000000  0.5403510000000 1.0
C      1  0.5589670000000  0.4950480000000  0.5411600000000 1.0
C      1  0.4117410000000  0.5261650000000  0.5746220000000 1.0
C      1  0.4449320000000  0.4410400000000  0.5381620000000 1.0
C      1  0.5786080000000  0.5415880000000  0.4682580000000 1.0
C      1  0.4685600000000  0.5230030000000  0.5954970000000 1.0
C      1  0.4376720000000  0.5428910000000  0.4941450000000 1.0
C      1  0.4522420000000  0.5474200000000  0.4021320000000 1.0
C      1  0.5013840000000  0.5757300000000  0.5822220000000 1.0
C      1  0.3793490000000  0.5154190000000  0.4898590000000 1.0
C      1  0.4446730000000  0.4495630000000  0.5842960000000 1.0
C      1  0.4278830000000  0.5325050000000  0.5244500000000 1.0
C      1  0.4994080000000  0.4968290000000  0.4733430000000 1.0
C      1  0.4500120000000  0.5328400000000  0.5457290000000 1.0
C      1  0.5190700000000  0.5529350000000  0.4226400000000 1.0
C      1  0.4671700000000  0.5776680000000  0.4676500000000 1.0
C      1  0.4024140000000  0.4682240000000  0.5479410000000 1.0
C      1  0.4752590000000  0.4627650000000  0.4196070000000 1.0
C      1  0.5188920000000  0.4405400000000  0.4446980000000 1.0
C      1  0.5303010000000  0.4113090000000  0.4321260000000 1.0
C      1  0.3977530000000  0.4605610000000  0.5154320000000 1.0
C      1  0.5350490000000  0.4859240000000  0.5258030000000 1.0
C      1  0.5263370000000  0.4261570000000  0.5226720000000 1.0
C      1  0.5141390000000  0.4515390000000  0.4930060000000 1.0
C      1  0.4734740000000  0.5702810000000  0.5208700000000 1.0
C      1  0.5017370000000  0.5661880000000  0.5026180000000 1.0
C      1  0.4123260000000  0.5044270000000  0.5274530000000 1.0
C      1  0.4794240000000  0.4908010000000  0.5935010000000 1.0
C      1  0.4760070000000  0.4092450000000  0.4491260000000 1.0
C      1  0.4924650000000  0.5383730000000  0.4905900000000 1.0
C      1  0.5818660000000  0.4274870000000  0.4904650000000 1.0
C      1  0.4387920000000  0.4518990000000  0.5090770000000 1.0
C      1  0.4161030000000  0.5516750000000  0.4713500000000 1.0
C      1  0.4701650000000  0.4504280000000  0.5539610000000 1.0
C      1  0.4807220000000  0.5071410000000  0.3977450000000 1.0
C      1  0.5080430000000  0.5305340000000  0.4022680000000 1.0
C      1  0.4783080000000  0.4105970000000  0.5521100000000 1.0
C      1  0.5888780000000  0.4870060000000  0.4643090000000 1.0
C      1  0.5917510000000  0.5367830000000  0.4306350000000 1.0
C      1  0.5151170000000  0.3864980000000  0.4649760000000 1.0
C      1  0.5793720000000  0.5795690000000  0.5036710000000 1.0
C      1  0.5605490000000  0.5924190000000  0.5212840000000 1.0
C      1  0.5326680000000  0.4764010000000  0.3886270000000 1.0
C      1  0.5173210000000  0.5244420000000  0.4788640000000 1.0
C      1  0.5660540000000  0.5518080000000  0.5683410000000 1.0
C      1  0.4221470000000  0.4457720000000  0.5623140000000 1.0
C      1  0.5040650000000  0.5302190000000  0.5298870000000 1.0
C      1  0.4319990000000  0.5637410000000  0.4470360000000 1.0
C      1  0.4021590000000  0.5252510000000  0.4627940000000 1.0
C      1  0.4610920000000  0.4886400000000  0.4136510000000 1.0
C      1  0.4032860000000  0.5527340000000  0.5148110000000 1.0
C      1  0.4796710000000  0.5849800000000  0.5573670000000 1.0
C      1  0.4983200000000  0.5844720000000  0.4777840000000 1.0
C      1  0.6197730000000  0.5008150000000  0.4692220000000 1.0
C      1  0.5363530000000  0.4108930000000  0.5580930000000 1.0
C      1  0.4374680000000  0.5922700000000  0.5120780000000 1.0
C      1  0.4642050000000  0.5573680000000  0.4922490000000 1.0
C      1  0.4754520000000  0.5352470000000  0.4475980000000 1.0
C      1  0.4072440000000  0.4969880000000  0.5577350000000 1.0
C      1  0.4760520000000  0.5380570000000  0.3938840000000 1.0
C      1  0.4869800000000  0.3893310000000  0.4660390000000 1.0
C      1  0.4973080000000  0.4196080000000  0.4300410000000 1.0
C      1  0.4549080000000  0.6069780000000  0.4917710000000 1.0
C      1  0.5379080000000  0.5099460000000  0.5872110000000 1.0
C      1  0.5364510000000  0.4485870000000  0.4695050000000 1.0
C      1  0.4255670000000  0.4973160000000  0.5864130000000 1.0
C      1  0.4877560000000  0.4358360000000  0.5071330000000 1.0
C      1  0.4895100000000  0.5526260000000  0.5612090000000 1.0
C      1  0.4129490000000  0.5025910000000  0.4842180000000 1.0
C      1  0.4539880000000  0.4800030000000  0.5330370000000 1.0
C      1  0.6007510000000  0.5148840000000  0.4484040000000 1.0
C      1  0.5495820000000  0.3907420000000  0.5129830000000 1.0
C      1  0.4763280000000  0.5760180000000  0.4163210000000 1.0
C      1  0.5018380000000  0.4683000000000  0.4673810000000 1.0
C      1  0.5543190000000  0.5391260000000  0.5082160000000 1.0
C      1  0.4351180000000  0.5866600000000  0.4726280000000 1.0
C      1  0.5093090000000  0.4666920000000  0.5206620000000 1.0
C      1  0.4291250000000  0.5462670000000  0.5645460000000 1.0
C      1  0.5039980000000  0.4057920000000  0.5278270000000 1.0
C      1  0.5611660000000  0.5824820000000  0.5538960000000 1.0
C      1  0.4979950000000  0.3786460000000  0.5125370000000 1.0
C      1  0.5750810000000  0.5747360000000  0.4729760000000 1.0
C      1  0.3872710000000  0.4971910000000  0.4221620000000 1.0
C      1  0.4057750000000  0.4339570000000  0.5350270000000 1.0
C      1  0.4719720000000  0.4085660000000  0.5120210000000 1.0
C      1  0.4071990000000  0.4987460000000  0.4424400000000 1.0
C      1  0.5946570000000  0.5573810000000  0.5177290000000 1.0
C      1  0.5200000000000  0.5478040000000  0.5493080000000 1.0
C      1  0.5626090000000  0.4294140000000  0.4670430000000 1.0
C      1  0.5078730000000  0.4233360000000  0.5632080000000 1.0
C      1  0.4545470000000  0.4759530000000  0.4933570000000 1.0
C      1  0.4835570000000  0.5530740000000  0.6006820000000 1.0
C      1  0.4823470000000  0.6100800000000  0.4907080000000 1.0
C      1  0.5439660000000  0.5657510000000  0.4655700000000 1.0
C      1  0.5102130000000  0.5361300000000  0.5982980000000 1.0
C      1  0.5238740000000  0.5789080000000  0.5418690000000 1.0
C      1  0.4723460000000  0.4301110000000  0.5799300000000 1.0
C      1  0.5988570000000  0.4651460000000  0.5386990000000 1.0
C      1  0.4596440000000  0.5730850000000  0.5898460000000 1.0
C      1  0.5914440000000  0.5338030000000  0.5596410000000 1.0
C      1  0.5749090000000  0.5616190000000  0.4407520000000 1.0
C      1  0.4745130000000  0.5272740000000  0.5643760000000 1.0
C      1  0.5327230000000  0.5649960000000  0.5127590000000 1.0
C      1  0.5381350000000  0.4822310000000  0.4746520000000 1.0
C      1  0.4951890000000  0.4440130000000  0.5388920000000 1.0
C      1  0.5052740000000  0.5089090000000  0.4445950000000 1.0
C      1  0.5674370000000  0.4440260000000  0.4391960000000 1.0
C      1  0.4001140000000  0.4730900000000  0.4910070000000 1.0
C      1  0.5764660000000  0.5072510000000  0.5200880000000 1.0
C      1  0.5945100000000  0.5323500000000  0.3980100000000 1.0
C      1  0.5080280000000  0.5030310000000  0.6023250000000 1.0
C      1  0.4770040000000  0.3837750000000  0.4918740000000 1.0
C      1  0.5068610000000  0.5411440000000  0.4504990000000 1.0
C      1  0.4743410000000  0.5386020000000  0.5260620000000 1.0
C      1  0.5273930000000  0.6063220000000  0.4436520000000 1.0
C      1  0.5344690000000  0.5752720000000  0.5741760000000 1.0
C      1  0.5121170000000  0.5066790000000  0.5206380000000 1.0
C      1  0.5766590000000  0.4715690000000  0.5563350000000 1.0
C      1  0.4204670000000  0.4094430000000  0.4964210000000 1.0
C      1  0.4427440000000  0.5128010000000  0.4834060000000 1.0
C      1  0.4679630000000  0.5182310000000  0.5016640000000 1.0
C      1  0.5198980000000  0.4997400000000  0.3947050000000 1.0
C      1  0.5556620000000  0.4912370000000  0.5744020000000 1.0
C      1  0.5496210000000  0.5625680000000  0.4261250000000 1.0
C      1  0.5781160000000  0.4322870000000  0.5298670000000 1.0
C      1  0.4202880000000  0.4105310000000  0.5240960000000 1.0
C      1  0.5718860000000  0.4900800000000  0.4906910000000 1.0
C      1  0.4981960000000  0.4462020000000  0.4109430000000 1.0
C      1  0.4489460000000  0.4767670000000  0.5907280000000 1.0
C      1  0.4916200000000  0.5022230000000  0.5555880000000 1.0
C      1  0.5612450000000  0.4340030000000  0.5565280000000 1.0
C      1  0.5834790000000  0.5278420000000  0.4940310000000 1.0
C      1  0.5386650000000  0.4910140000000  0.4304650000000 1.0
C      1  0.5977020000000  0.4499790000000  0.5082770000000 1.0
C      1  0.3902300000000  0.5245700000000  0.5147510000000 1.0
C      1  0.4404460000000  0.5217660000000  0.6019140000000 1.0
END
