TITL C-2778436-5916-576 0.00305315155937268 125000 -531.808555418563 0 0 93 (C1) n - 1
REM
REM in /home/nfs/bkarasulu/CARBON/AIRSS/Generating-Clusters/REBO/Only-C1/SD-CG/HFTN-CG
REM
REM
REM
REM
REM
REM ./C.cell (11c1c37f851c82e70ff6c80c92926a4b)
REM
REM compiler GCC version 9.2.1 20190827 (Red Hat 9.2.1-1)
REM options -cpp -mtune=generic -march=x86-64 -g -O0 -fpre-include=/usr/include/finclude/math-vector-fortran.h
REM seed -2126477372 -1590509582 152566377 -1303077131 1633121015 -1611508749 440146640 1360227299 2017290502 -677441633 69884160 698602624 -662685777 -1525084480 153641605 705832517 -44791207 -2079542968 -254860720 140228299 -895801856 1613776893 -1382831438 704282343 -953005674 -1223517192 -1311776759 1004112394 602812249 1075804751 -1199758385 -1289509899 -1552450144
REM
CELL 1.54180   50.00000   50.00000   50.00000   90.00000   90.00000   90.00000
LATT -1
SFAC C  
C      1  0.5683400000000  0.5301260000000  0.5514100000000 1.0
C      1  0.4199990000000  0.4582310000000  0.4838050000000 1.0
C      1  0.5182960000000  0.4841940000000  0.4065700000000 1.0
C      1  0.5504950000000  0.5085520000000  0.5173860000000 1.0
C      1  0.5304700000000  0.5387920000000  0.5294730000000 1.0
C      1  0.5351080000000  0.4269370000000  0.5277410000000 1.0
C      1  0.5722340000000  0.4954150000000  0.4615780000000 1.0
C      1  0.4522560000000  0.5241410000000  0.5683900000000 1.0
C      1  0.4990970000000  0.5834240000000  0.5303770000000 1.0
C      1  0.5356590000000  0.4589660000000  0.4991530000000 1.0
C      1  0.4826340000000  0.4955320000000  0.5495580000000 1.0
C      1  0.5363360000000  0.4779830000000  0.5671900000000 1.0
C      1  0.5342850000000  0.4863170000000  0.4329200000000 1.0
C      1  0.4637330000000  0.4855950000000  0.5237660000000 1.0
C      1  0.5244420000000  0.5528210000000  0.4505970000000 1.0
C      1  0.4844590000000  0.4181820000000  0.5104720000000 1.0
C      1  0.4514630000000  0.4902990000000  0.5734790000000 1.0
C      1  0.4965780000000  0.4654120000000  0.4602930000000 1.0
C      1  0.5134390000000  0.4568360000000  0.5422530000000 1.0
C      1  0.5356500000000  0.5793440000000  0.4960240000000 1.0
C      1  0.5167660000000  0.4238110000000  0.5013600000000 1.0
C      1  0.4709100000000  0.4652190000000  0.5622670000000 1.0
C      1  0.4767460000000  0.5465410000000  0.4233890000000 1.0
C      1  0.5808040000000  0.4953240000000  0.5155350000000 1.0
C      1  0.5113050000000  0.5015300000000  0.5197610000000 1.0
C      1  0.4155760000000  0.5040750000000  0.5232800000000 1.0
C      1  0.4847590000000  0.4065570000000  0.4594530000000 1.0
C      1  0.5044320000000  0.5688740000000  0.4645890000000 1.0
C      1  0.5382920000000  0.5102190000000  0.4465060000000 1.0
C      1  0.4876540000000  0.5098970000000  0.4349120000000 1.0
C      1  0.4989520000000  0.5183980000000  0.5900080000000 1.0
C      1  0.5161290000000  0.5457170000000  0.5655190000000 1.0
C      1  0.4544510000000  0.4312350000000  0.5198810000000 1.0
C      1  0.5448910000000  0.4516510000000  0.5497010000000 1.0
C      1  0.5270110000000  0.4408890000000  0.4735500000000 1.0
C      1  0.5831250000000  0.4685900000000  0.5177890000000 1.0
C      1  0.5451600000000  0.5310880000000  0.5751430000000 1.0
C      1  0.4494760000000  0.4878710000000  0.4622900000000 1.0
C      1  0.4682260000000  0.5586420000000  0.5329210000000 1.0
C      1  0.4877380000000  0.4807570000000  0.4321350000000 1.0
C      1  0.4589720000000  0.4391160000000  0.4579900000000 1.0
C      1  0.5483220000000  0.4778420000000  0.4769190000000 1.0
C      1  0.4379080000000  0.5506460000000  0.4945240000000 1.0
C      1  0.5602460000000  0.5014500000000  0.5678600000000 1.0
C      1  0.5673880000000  0.5533360000000  0.5315070000000 1.0
C      1  0.5022510000000  0.5717730000000  0.4984250000000 1.0
C      1  0.4335230000000  0.4451490000000  0.5090190000000 1.0
C      1  0.4718440000000  0.4396870000000  0.5436410000000 1.0
C      1  0.4607520000000  0.5265440000000  0.5058290000000 1.0
C      1  0.4546460000000  0.5462490000000  0.4483080000000 1.0
C      1  0.5217230000000  0.5200390000000  0.4733190000000 1.0
C      1  0.5079200000000  0.5403810000000  0.5093390000000 1.0
C      1  0.5024560000000  0.4746810000000  0.5652040000000 1.0
C      1  0.4492520000000  0.5412970000000  0.5411920000000 1.0
C      1  0.4299040000000  0.5311400000000  0.5196420000000 1.0
C      1  0.5587380000000  0.4502920000000  0.5199590000000 1.0
C      1  0.5103790000000  0.4560310000000  0.4240910000000 1.0
C      1  0.5116470000000  0.4702170000000  0.5146430000000 1.0
C      1  0.4386160000000  0.4613660000000  0.4622050000000 1.0
C      1  0.5420290000000  0.5610030000000  0.5495070000000 1.0
C      1  0.4933440000000  0.5245040000000  0.5510180000000 1.0
C      1  0.4718730000000  0.5399720000000  0.4766340000000 1.0
C      1  0.5218360000000  0.5077020000000  0.5763930000000 1.0
C      1  0.5047260000000  0.5035000000000  0.3909340000000 1.0
C      1  0.5023230000000  0.4268070000000  0.5381470000000 1.0
C      1  0.5650820000000  0.4670080000000  0.4491640000000 1.0
C      1  0.4897360000000  0.5637710000000  0.5563080000000 1.0
C      1  0.5300450000000  0.5101420000000  0.5444090000000 1.0
C      1  0.4641840000000  0.4162820000000  0.4831730000000 1.0
C      1  0.4858160000000  0.5214180000000  0.5192830000000 1.0
C      1  0.5307870000000  0.4983850000000  0.4932270000000 1.0
C      1  0.4801170000000  0.5682940000000  0.4496280000000 1.0
C      1  0.5723150000000  0.5225960000000  0.4704050000000 1.0
C      1  0.4421250000000  0.5022500000000  0.5443940000000 1.0
C      1  0.4917800000000  0.5183920000000  0.4668200000000 1.0
C      1  0.4968870000000  0.4333570000000  0.4685250000000 1.0
C      1  0.4876320000000  0.5210840000000  0.4039060000000 1.0
C      1  0.5514210000000  0.5390530000000  0.4546440000000 1.0
C      1  0.4789310000000  0.5390970000000  0.5777770000000 1.0
C      1  0.4332470000000  0.5352020000000  0.4680370000000 1.0
C      1  0.5599360000000  0.5590370000000  0.5044400000000 1.0
C      1  0.4790700000000  0.4896500000000  0.4726290000000 1.0
C      1  0.4823180000000  0.4744160000000  0.5023290000000 1.0
C      1  0.4794110000000  0.4475110000000  0.4355230000000 1.0
C      1  0.5081220000000  0.5372760000000  0.4329050000000 1.0
C      1  0.5345660000000  0.4550520000000  0.4471310000000 1.0
C      1  0.4297890000000  0.5070780000000  0.4712770000000 1.0
C      1  0.4332790000000  0.4757600000000  0.5166540000000 1.0
C      1  0.4686030000000  0.5650150000000  0.4998880000000 1.0
C      1  0.5753820000000  0.5227350000000  0.4990750000000 1.0
C      1  0.4732680000000  0.4489850000000  0.4880240000000 1.0
C      1  0.5325310000000  0.5459710000000  0.4890060000000 1.0
C      1  0.4136260000000  0.4904720000000  0.4927420000000 1.0
END
