TITL C-2778422-5617-432 -0.00211677275057502 125000 -386.959275614984 0 0 66 (C1) n - 1
REM
REM in /home/nfs/bkarasulu/CARBON/AIRSS/Generating-Clusters/REBO/Only-C1/SD-CG/HFTN-CG
REM
REM
REM
REM
REM
REM ./C.cell (11c1c37f851c82e70ff6c80c92926a4b)
REM
REM compiler GCC version 9.2.1 20190827 (Red Hat 9.2.1-1)
REM options -cpp -mtune=generic -march=x86-64 -g -O0 -fpre-include=/usr/include/finclude/math-vector-fortran.h
REM seed 999676075 -191777115 21753608 930644642 -1256645577 1383264420 1725974127 -1299721340 -2006920015 1852540397 -1784004089 -1618350224 -1706534846 1180448699 1046430348 436841123 -1617335996 -1540875525 1026223199 1415635295 -1673495026 1464087875 -658427773 -572315826 -1366103476 -575132462 1520989223 1714365988 285012544 2069669130 -19096696 12573418 -1499063356
REM
CELL 1.54180   50.00000   50.00000   50.00000   90.00000   90.00000   90.00000
LATT -1
SFAC C  
C      1  0.4398200000000  0.5014850000000  0.5497320000000 1.0
C      1  0.4696690000000  0.4727270000000  0.4764700000000 1.0
C      1  0.5292430000000  0.4334600000000  0.5020020000000 1.0
C      1  0.4323640000000  0.4879410000000  0.5211780000000 1.0
C      1  0.5383640000000  0.5388520000000  0.4457300000000 1.0
C      1  0.4880210000000  0.4244050000000  0.4756840000000 1.0
C      1  0.4473420000000  0.4447500000000  0.4939000000000 1.0
C      1  0.4784130000000  0.5323000000000  0.5547920000000 1.0
C      1  0.4692700000000  0.5193420000000  0.4384190000000 1.0
C      1  0.4701350000000  0.4424850000000  0.4611880000000 1.0
C      1  0.5043540000000  0.5041180000000  0.5314110000000 1.0
C      1  0.5152940000000  0.4391010000000  0.4757890000000 1.0
C      1  0.5607250000000  0.5302620000000  0.4903500000000 1.0
C      1  0.4817730000000  0.4793930000000  0.5621590000000 1.0
C      1  0.4313940000000  0.5366140000000  0.4965650000000 1.0
C      1  0.4720140000000  0.5707370000000  0.4962510000000 1.0
C      1  0.5061250000000  0.5568430000000  0.5396470000000 1.0
C      1  0.5009120000000  0.5226640000000  0.4792130000000 1.0
C      1  0.4388090000000  0.4487790000000  0.4637470000000 1.0
C      1  0.4889330000000  0.4980470000000  0.4659500000000 1.0
C      1  0.5404160000000  0.5081420000000  0.4409410000000 1.0
C      1  0.5146770000000  0.4591700000000  0.4479900000000 1.0
C      1  0.5501680000000  0.4740800000000  0.5317880000000 1.0
C      1  0.5023010000000  0.4781810000000  0.4288540000000 1.0
C      1  0.5032370000000  0.4699480000000  0.4766110000000 1.0
C      1  0.4823890000000  0.5325240000000  0.5047160000000 1.0
C      1  0.5102850000000  0.4778520000000  0.5616130000000 1.0
C      1  0.5138840000000  0.5335090000000  0.5170780000000 1.0
C      1  0.4661740000000  0.5775750000000  0.5217250000000 1.0
C      1  0.4583600000000  0.5436350000000  0.4847490000000 1.0
C      1  0.5437780000000  0.5475690000000  0.4727530000000 1.0
C      1  0.4474330000000  0.4700350000000  0.4433450000000 1.0
C      1  0.4713160000000  0.4288280000000  0.5003410000000 1.0
C      1  0.5182190000000  0.5334860000000  0.4203740000000 1.0
C      1  0.5182960000000  0.5005190000000  0.4206210000000 1.0
C      1  0.5230300000000  0.5629130000000  0.4869190000000 1.0
C      1  0.4949440000000  0.5563870000000  0.4755890000000 1.0
C      1  0.4726520000000  0.4874720000000  0.4378890000000 1.0
C      1  0.5684200000000  0.4605290000000  0.5125560000000 1.0
C      1  0.4762770000000  0.4890720000000  0.5240320000000 1.0
C      1  0.5444950000000  0.5378630000000  0.5173230000000 1.0
C      1  0.5419910000000  0.4930240000000  0.4649120000000 1.0
C      1  0.5131600000000  0.4404100000000  0.5251320000000 1.0
C      1  0.5782930000000  0.4785950000000  0.4924210000000 1.0
C      1  0.4543380000000  0.4739750000000  0.5046460000000 1.0
C      1  0.4758830000000  0.5642150000000  0.5431940000000 1.0
C      1  0.4648930000000  0.5032480000000  0.5635220000000 1.0
C      1  0.4726620000000  0.5391950000000  0.4561700000000 1.0
C      1  0.5521130000000  0.5691120000000  0.5262660000000 1.0
C      1  0.5790960000000  0.5062580000000  0.5001450000000 1.0
C      1  0.5238110000000  0.4598370000000  0.5429610000000 1.0
C      1  0.5241300000000  0.5719460000000  0.5149180000000 1.0
C      1  0.5574500000000  0.4357370000000  0.5040080000000 1.0
C      1  0.5608650000000  0.5120670000000  0.5258140000000 1.0
C      1  0.5102900000000  0.5274030000000  0.5562490000000 1.0
C      1  0.5256840000000  0.5019780000000  0.5651690000000 1.0
C      1  0.4849250000000  0.4383880000000  0.5238630000000 1.0
C      1  0.5519190000000  0.4987280000000  0.5537790000000 1.0
C      1  0.5642470000000  0.4757560000000  0.4679090000000 1.0
C      1  0.5262700000000  0.5031090000000  0.4861590000000 1.0
C      1  0.4356050000000  0.5212300000000  0.5218850000000 1.0
C      1  0.4081370000000  0.5430490000000  0.4861680000000 1.0
C      1  0.4675650000000  0.5192080000000  0.5271040000000 1.0
C      1  0.4424350000000  0.4527130000000  0.5442170000000 1.0
C      1  0.5313000000000  0.4975920000000  0.5158040000000 1.0
C      1  0.4692110000000  0.4596290000000  0.5396000000000 1.0
END
