TITL C-2778426-5645-1177 -0.00333237699330781 125000 -887.62847778283 0 0 153 (C1) n - 1
REM
REM in /home/nfs/bkarasulu/CARBON/AIRSS/Generating-Clusters/REBO/Only-C1/SD-CG/HFTN-CG
REM
REM
REM
REM
REM
REM ./C.cell (11c1c37f851c82e70ff6c80c92926a4b)
REM
REM compiler GCC version 9.2.1 20190827 (Red Hat 9.2.1-1)
REM options -cpp -mtune=generic -march=x86-64 -g -O0 -fpre-include=/usr/include/finclude/math-vector-fortran.h
REM seed 29565841 1799803765 1051972883 -1041099605 1770728886 -1556762611 822172189 956758637 222890949 -808329737 1431708597 999888747 260446246 78485853 -693804780 -1402516388 1724959230 512092711 1614817630 -101644544 -1766133169 -2121123611 -31296628 -1031088051 1013817289 14818240 -1836962019 1128356553 -1726171878 -1214908697 -2081388519 -1316497145 -1876644699
REM
CELL 1.54180   50.00000   50.00000   50.00000   90.00000   90.00000   90.00000
LATT -1
SFAC C  
C      1  0.4052310000000  0.4529300000000  0.5091730000000 1.0
C      1  0.5947470000000  0.5215330000000  0.5221150000000 1.0
C      1  0.5261790000000  0.5945570000000  0.4822030000000 1.0
C      1  0.5570180000000  0.4429920000000  0.4505450000000 1.0
C      1  0.4543840000000  0.5283260000000  0.4707500000000 1.0
C      1  0.4982710000000  0.5113150000000  0.4857430000000 1.0
C      1  0.5427440000000  0.4196810000000  0.5392190000000 1.0
C      1  0.3999790000000  0.4768570000000  0.5303010000000 1.0
C      1  0.4354870000000  0.5545570000000  0.4982240000000 1.0
C      1  0.4769000000000  0.4409200000000  0.5009410000000 1.0
C      1  0.5827370000000  0.4435900000000  0.5487140000000 1.0
C      1  0.5231060000000  0.5247420000000  0.3974640000000 1.0
C      1  0.5723610000000  0.4205770000000  0.4975480000000 1.0
C      1  0.5577460000000  0.5636500000000  0.5262590000000 1.0
C      1  0.4420910000000  0.4371210000000  0.4452700000000 1.0
C      1  0.4998990000000  0.5835280000000  0.4950820000000 1.0
C      1  0.5789650000000  0.5584040000000  0.4435440000000 1.0
C      1  0.4520290000000  0.5516570000000  0.4564140000000 1.0
C      1  0.4946370000000  0.4732040000000  0.4548300000000 1.0
C      1  0.4727350000000  0.4503520000000  0.4504450000000 1.0
C      1  0.4365960000000  0.5464220000000  0.5638990000000 1.0
C      1  0.4745090000000  0.5347820000000  0.5906750000000 1.0
C      1  0.5748470000000  0.5054670000000  0.4909170000000 1.0
C      1  0.4469150000000  0.4538230000000  0.5434520000000 1.0
C      1  0.4189360000000  0.4920110000000  0.5619480000000 1.0
C      1  0.5166200000000  0.5574980000000  0.5883270000000 1.0
C      1  0.4158750000000  0.5345320000000  0.4788160000000 1.0
C      1  0.4159390000000  0.5069060000000  0.5323280000000 1.0
C      1  0.5357200000000  0.5066680000000  0.5761930000000 1.0
C      1  0.5610410000000  0.5626000000000  0.4207250000000 1.0
C      1  0.5943570000000  0.5399470000000  0.4980150000000 1.0
C      1  0.4577720000000  0.4151950000000  0.4908320000000 1.0
C      1  0.4631170000000  0.4065250000000  0.5313950000000 1.0
C      1  0.5130500000000  0.5029320000000  0.5957090000000 1.0
C      1  0.4120580000000  0.4457550000000  0.4588510000000 1.0
C      1  0.5681710000000  0.4843610000000  0.5697930000000 1.0
C      1  0.5610730000000  0.5516010000000  0.5566840000000 1.0
C      1  0.5870470000000  0.4429870000000  0.4761890000000 1.0
C      1  0.4985090000000  0.5260970000000  0.5133510000000 1.0
C      1  0.5462110000000  0.4868100000000  0.4916430000000 1.0
C      1  0.4927340000000  0.5307170000000  0.4605600000000 1.0
C      1  0.5878690000000  0.4803110000000  0.4621920000000 1.0
C      1  0.5345820000000  0.5422910000000  0.5190090000000 1.0
C      1  0.5189370000000  0.4955550000000  0.4637590000000 1.0
C      1  0.5257760000000  0.4648780000000  0.5380400000000 1.0
C      1  0.5034740000000  0.5777850000000  0.5414610000000 1.0
C      1  0.4468350000000  0.4836510000000  0.4175900000000 1.0
C      1  0.5213640000000  0.4843710000000  0.5113360000000 1.0
C      1  0.5023490000000  0.5282720000000  0.5797160000000 1.0
C      1  0.4312900000000  0.4649690000000  0.4953860000000 1.0
C      1  0.4444150000000  0.5063430000000  0.3945580000000 1.0
C      1  0.4975460000000  0.4870920000000  0.5618700000000 1.0
C      1  0.5597310000000  0.4075210000000  0.5185540000000 1.0
C      1  0.5086330000000  0.5278120000000  0.5459560000000 1.0
C      1  0.5322420000000  0.5381190000000  0.4333990000000 1.0
C      1  0.4530720000000  0.6028560000000  0.5069680000000 1.0
C      1  0.5544520000000  0.5318570000000  0.4092630000000 1.0
C      1  0.4749050000000  0.4566180000000  0.5267210000000 1.0
C      1  0.4298640000000  0.5565430000000  0.5376800000000 1.0
C      1  0.4310530000000  0.5164480000000  0.5789730000000 1.0
C      1  0.5445030000000  0.5379270000000  0.5830040000000 1.0
C      1  0.5746430000000  0.5647620000000  0.4981540000000 1.0
C      1  0.4635250000000  0.5547980000000  0.4306450000000 1.0
C      1  0.4326710000000  0.4715220000000  0.4632820000000 1.0
C      1  0.5850840000000  0.4545730000000  0.4436520000000 1.0
C      1  0.4188890000000  0.5242880000000  0.4531370000000 1.0
C      1  0.4463630000000  0.5010340000000  0.5455350000000 1.0
C      1  0.4264540000000  0.4424400000000  0.5757900000000 1.0
C      1  0.5680780000000  0.4797890000000  0.4276240000000 1.0
C      1  0.4661340000000  0.3872480000000  0.5083730000000 1.0
C      1  0.4281310000000  0.5185660000000  0.4219010000000 1.0
C      1  0.5381830000000  0.5609640000000  0.4651880000000 1.0
C      1  0.4854850000000  0.4701840000000  0.4071910000000 1.0
C      1  0.4508080000000  0.4888510000000  0.4944140000000 1.0
C      1  0.4236000000000  0.4276080000000  0.5070040000000 1.0
C      1  0.4568230000000  0.5210110000000  0.5023700000000 1.0
C      1  0.4817680000000  0.3943860000000  0.4813360000000 1.0
C      1  0.4575910000000  0.5743270000000  0.4713970000000 1.0
C      1  0.4771440000000  0.5928320000000  0.4564540000000 1.0
C      1  0.4650340000000  0.4955940000000  0.5217150000000 1.0
C      1  0.4158760000000  0.4611710000000  0.5547350000000 1.0
C      1  0.4992290000000  0.4498860000000  0.5475880000000 1.0
C      1  0.4385210000000  0.5808930000000  0.5188300000000 1.0
C      1  0.4906410000000  0.5720820000000  0.4329370000000 1.0
C      1  0.5461030000000  0.5939420000000  0.5276160000000 1.0
C      1  0.5091290000000  0.4308680000000  0.5000230000000 1.0
C      1  0.5951490000000  0.5246300000000  0.4713200000000 1.0
C      1  0.5831030000000  0.4631090000000  0.5222800000000 1.0
C      1  0.4298700000000  0.4931270000000  0.4445750000000 1.0
C      1  0.5425880000000  0.5147840000000  0.5296390000000 1.0
C      1  0.5363040000000  0.4782330000000  0.4397060000000 1.0
C      1  0.5044250000000  0.4861030000000  0.6150780000000 1.0
C      1  0.4912280000000  0.5643280000000  0.5665560000000 1.0
C      1  0.5952080000000  0.4911380000000  0.5124040000000 1.0
C      1  0.4578820000000  0.4531240000000  0.4783250000000 1.0
C      1  0.4605180000000  0.5568950000000  0.5767600000000 1.0
C      1  0.6000570000000  0.4725580000000  0.4874480000000 1.0
C      1  0.5174930000000  0.4344680000000  0.4282980000000 1.0
C      1  0.4696870000000  0.4998960000000  0.4711040000000 1.0
C      1  0.5135270000000  0.4233600000000  0.5322380000000 1.0
C      1  0.4497300000000  0.4856150000000  0.5866630000000 1.0
C      1  0.5189520000000  0.4682670000000  0.5770810000000 1.0
C      1  0.5127350000000  0.4570450000000  0.4725190000000 1.0
C      1  0.3936160000000  0.4895190000000  0.4993120000000 1.0
C      1  0.5102800000000  0.4934340000000  0.4037250000000 1.0
C      1  0.4697370000000  0.5676400000000  0.4982250000000 1.0
C      1  0.5923930000000  0.5329680000000  0.4440020000000 1.0
C      1  0.5340970000000  0.4525480000000  0.5078700000000 1.0
C      1  0.3947770000000  0.4640680000000  0.4793830000000 1.0
C      1  0.4582400000000  0.5301810000000  0.4139640000000 1.0
C      1  0.4754440000000  0.6055970000000  0.4880350000000 1.0
C      1  0.4004190000000  0.5159650000000  0.4966540000000 1.0
C      1  0.5061990000000  0.4462860000000  0.5877390000000 1.0
C      1  0.4739980000000  0.5113740000000  0.5572390000000 1.0
C      1  0.5762250000000  0.5127060000000  0.4216900000000 1.0
C      1  0.5102910000000  0.5535330000000  0.4119660000000 1.0
C      1  0.4319060000000  0.4230890000000  0.4747750000000 1.0
C      1  0.5655750000000  0.5628040000000  0.4684060000000 1.0
C      1  0.5345560000000  0.4955300000000  0.5494830000000 1.0
C      1  0.5442310000000  0.4273600000000  0.4327410000000 1.0
C      1  0.4432260000000  0.4262760000000  0.5278340000000 1.0
C      1  0.5945610000000  0.4742970000000  0.5518650000000 1.0
C      1  0.4695740000000  0.5444310000000  0.5165040000000 1.0
C      1  0.5008750000000  0.4246380000000  0.4489430000000 1.0
C      1  0.4592290000000  0.4544540000000  0.4211960000000 1.0
C      1  0.5066870000000  0.5591110000000  0.5164720000000 1.0
C      1  0.5472400000000  0.5117740000000  0.4709870000000 1.0
C      1  0.5273870000000  0.5500220000000  0.5573830000000 1.0
C      1  0.5222160000000  0.5977710000000  0.5419570000000 1.0
C      1  0.5427210000000  0.4640630000000  0.4700600000000 1.0
C      1  0.5883500000000  0.5058080000000  0.5523590000000 1.0
C      1  0.5156670000000  0.4639130000000  0.4200670000000 1.0
C      1  0.5685050000000  0.5023430000000  0.4517320000000 1.0
C      1  0.5027010000000  0.4124800000000  0.4746570000000 1.0
C      1  0.5069140000000  0.5166080000000  0.4260050000000 1.0
C      1  0.5413900000000  0.5835660000000  0.4248650000000 1.0
C      1  0.4530920000000  0.4510090000000  0.5836370000000 1.0
C      1  0.5096650000000  0.5534330000000  0.4517520000000 1.0
C      1  0.4166490000000  0.5344560000000  0.5186270000000 1.0
C      1  0.4928500000000  0.4850870000000  0.5286590000000 1.0
C      1  0.5284550000000  0.5886400000000  0.4512260000000 1.0
C      1  0.4783830000000  0.5180130000000  0.4355560000000 1.0
C      1  0.5647270000000  0.4515890000000  0.5009780000000 1.0
C      1  0.4851860000000  0.4131560000000  0.5480480000000 1.0
C      1  0.5553600000000  0.4391350000000  0.5568740000000 1.0
C      1  0.5472200000000  0.4645740000000  0.5715810000000 1.0
C      1  0.5505040000000  0.5897530000000  0.4974050000000 1.0
C      1  0.4681580000000  0.4724330000000  0.5626750000000 1.0
C      1  0.4571400000000  0.5140660000000  0.5969520000000 1.0
C      1  0.4694430000000  0.4889700000000  0.4409220000000 1.0
C      1  0.5690900000000  0.5277110000000  0.5395150000000 1.0
C      1  0.4789140000000  0.5404100000000  0.5455540000000 1.0
C      1  0.4803340000000  0.4357610000000  0.5725390000000 1.0
END
