TITL C-2778424-3986-758 0.00131180403624597 125000 -770.029408210808 0 0 130 (C1) n - 1
REM
REM in /home/nfs/bkarasulu/CARBON/AIRSS/Generating-Clusters/REBO/Only-C1/SD-CG/HFTN-CG
REM
REM
REM
REM
REM
REM ./C.cell (11c1c37f851c82e70ff6c80c92926a4b)
REM
REM compiler GCC version 9.2.1 20190827 (Red Hat 9.2.1-1)
REM options -cpp -mtune=generic -march=x86-64 -g -O0 -fpre-include=/usr/include/finclude/math-vector-fortran.h
REM seed 1885981823 -609745212 1716607554 1950210331 -2145675656 -175710821 1399040459 -173150365 1553414592 520046884 1818063923 1915932241 1524380054 1407223875 -1938653871 -2111155102 -1219244241 94958328 526244833 347439214 1173166227 -2084056006 616000040 261515574 1553111100 515329447 98678630 751335209 -78014526 1516841091 -819311620 -536588680 -1629850108
REM
CELL 1.54180   50.00000   50.00000   50.00000   90.00000   90.00000   90.00000
LATT -1
SFAC C  
C      1  0.5523320000000  0.5444090000000  0.5785810000000 1.0
C      1  0.5240100000000  0.5294090000000  0.5516270000000 1.0
C      1  0.4901810000000  0.5260660000000  0.5501390000000 1.0
C      1  0.5019740000000  0.5740490000000  0.4333750000000 1.0
C      1  0.4173650000000  0.5144120000000  0.4737740000000 1.0
C      1  0.4573450000000  0.4998260000000  0.4778000000000 1.0
C      1  0.5424890000000  0.5900870000000  0.5056820000000 1.0
C      1  0.3999000000000  0.4720960000000  0.5392250000000 1.0
C      1  0.5608870000000  0.4838710000000  0.4209760000000 1.0
C      1  0.4837740000000  0.4898360000000  0.4382910000000 1.0
C      1  0.5815650000000  0.4779980000000  0.5140270000000 1.0
C      1  0.5185110000000  0.4618600000000  0.5180970000000 1.0
C      1  0.5810060000000  0.5422360000000  0.4749130000000 1.0
C      1  0.4256280000000  0.5364340000000  0.5723320000000 1.0
C      1  0.5609560000000  0.4783270000000  0.5342470000000 1.0
C      1  0.4502270000000  0.4750800000000  0.4957240000000 1.0
C      1  0.5144770000000  0.5108690000000  0.4937870000000 1.0
C      1  0.5343250000000  0.4678160000000  0.4249850000000 1.0
C      1  0.4472240000000  0.5706590000000  0.5432070000000 1.0
C      1  0.4485970000000  0.4160780000000  0.5312010000000 1.0
C      1  0.4655720000000  0.4390410000000  0.5813970000000 1.0
C      1  0.4397950000000  0.4726040000000  0.5371100000000 1.0
C      1  0.4524300000000  0.5303680000000  0.4190070000000 1.0
C      1  0.5303470000000  0.4230190000000  0.4538380000000 1.0
C      1  0.5478330000000  0.4421210000000  0.4395380000000 1.0
C      1  0.4883640000000  0.5528940000000  0.4804150000000 1.0
C      1  0.5495850000000  0.5083950000000  0.5432520000000 1.0
C      1  0.5629030000000  0.5311020000000  0.4311370000000 1.0
C      1  0.4349060000000  0.4040400000000  0.5097020000000 1.0
C      1  0.5785700000000  0.5233860000000  0.4531070000000 1.0
C      1  0.5115810000000  0.5171100000000  0.5998910000000 1.0
C      1  0.4898150000000  0.4574320000000  0.5333180000000 1.0
C      1  0.5167530000000  0.4873760000000  0.4467510000000 1.0
C      1  0.5179900000000  0.3810310000000  0.5123240000000 1.0
C      1  0.4221290000000  0.5386950000000  0.4952470000000 1.0
C      1  0.5103720000000  0.4984940000000  0.3903640000000 1.0
C      1  0.4785810000000  0.4360030000000  0.4466340000000 1.0
C      1  0.4503560000000  0.4442290000000  0.4838450000000 1.0
C      1  0.4942280000000  0.4628470000000  0.4216350000000 1.0
C      1  0.5770540000000  0.4417850000000  0.4791970000000 1.0
C      1  0.4382160000000  0.5587250000000  0.4732490000000 1.0
C      1  0.4223130000000  0.4558860000000  0.4992260000000 1.0
C      1  0.5219760000000  0.4601990000000  0.4657930000000 1.0
C      1  0.4103970000000  0.4489550000000  0.5244990000000 1.0
C      1  0.4169510000000  0.4936360000000  0.5226710000000 1.0
C      1  0.5602480000000  0.5598620000000  0.5491030000000 1.0
C      1  0.4947480000000  0.5206500000000  0.4441640000000 1.0
C      1  0.4829380000000  0.4069790000000  0.4846930000000 1.0
C      1  0.5284330000000  0.5597120000000  0.5518720000000 1.0
C      1  0.4392610000000  0.4401490000000  0.5745500000000 1.0
C      1  0.4514640000000  0.5243010000000  0.5379010000000 1.0
C      1  0.5324710000000  0.5908490000000  0.4729370000000 1.0
C      1  0.4338430000000  0.4395860000000  0.5438020000000 1.0
C      1  0.4843060000000  0.5082700000000  0.3849360000000 1.0
C      1  0.4768300000000  0.5034640000000  0.5049920000000 1.0
C      1  0.4158930000000  0.5177170000000  0.5548720000000 1.0
C      1  0.4840780000000  0.4212000000000  0.5627240000000 1.0
C      1  0.5104840000000  0.5009150000000  0.5441280000000 1.0
C      1  0.4493000000000  0.5511380000000  0.5674160000000 1.0
C      1  0.4234520000000  0.5240940000000  0.5227280000000 1.0
C      1  0.5484540000000  0.4765530000000  0.4684360000000 1.0
C      1  0.4227840000000  0.4957460000000  0.4582520000000 1.0
C      1  0.5066320000000  0.5986020000000  0.4903910000000 1.0
C      1  0.5897990000000  0.4314790000000  0.5266800000000 1.0
C      1  0.5136920000000  0.5396250000000  0.4752100000000 1.0
C      1  0.5378950000000  0.4461280000000  0.5652750000000 1.0
C      1  0.5551660000000  0.5105090000000  0.4123970000000 1.0
C      1  0.5674060000000  0.5779210000000  0.5238030000000 1.0
C      1  0.5508010000000  0.5277370000000  0.4836130000000 1.0
C      1  0.5905870000000  0.4524820000000  0.5043950000000 1.0
C      1  0.4508060000000  0.5552770000000  0.4415960000000 1.0
C      1  0.5833780000000  0.5308310000000  0.5130480000000 1.0
C      1  0.5239130000000  0.4927750000000  0.5709390000000 1.0
C      1  0.5600220000000  0.4291070000000  0.5216320000000 1.0
C      1  0.5337160000000  0.4153310000000  0.4803050000000 1.0
C      1  0.5190100000000  0.5889640000000  0.4433940000000 1.0
C      1  0.4683040000000  0.4762650000000  0.5233430000000 1.0
C      1  0.5175210000000  0.4622830000000  0.5770990000000 1.0
C      1  0.5763980000000  0.4960920000000  0.4661510000000 1.0
C      1  0.5439290000000  0.4517000000000  0.5349490000000 1.0
C      1  0.4634060000000  0.5774860000000  0.5162100000000 1.0
C      1  0.4308880000000  0.4188890000000  0.4870420000000 1.0
C      1  0.4763650000000  0.4152640000000  0.5361940000000 1.0
C      1  0.5692370000000  0.5319090000000  0.5368580000000 1.0
C      1  0.5215700000000  0.4925310000000  0.5174760000000 1.0
C      1  0.5508700000000  0.5079490000000  0.5095260000000 1.0
C      1  0.4848270000000  0.5350160000000  0.5976530000000 1.0
C      1  0.5847010000000  0.5607390000000  0.5014450000000 1.0
C      1  0.4836180000000  0.5500380000000  0.4342890000000 1.0
C      1  0.5080190000000  0.4423730000000  0.4409840000000 1.0
C      1  0.4849300000000  0.5557100000000  0.5109240000000 1.0
C      1  0.4887990000000  0.5085640000000  0.4731340000000 1.0
C      1  0.5038600000000  0.5668680000000  0.5710000000000 1.0
C      1  0.5810360000000  0.5029240000000  0.4960100000000 1.0
C      1  0.5561670000000  0.4256490000000  0.4931460000000 1.0
C      1  0.4788310000000  0.5752850000000  0.5553840000000 1.0
C      1  0.5420360000000  0.5153390000000  0.5844300000000 1.0
C      1  0.5047230000000  0.4501490000000  0.4895690000000 1.0
C      1  0.4997000000000  0.5755060000000  0.5322310000000 1.0
C      1  0.5157080000000  0.5358230000000  0.4234550000000 1.0
C      1  0.4704880000000  0.4817000000000  0.5956480000000 1.0
C      1  0.4914360000000  0.4531540000000  0.5647790000000 1.0
C      1  0.4634970000000  0.5209780000000  0.3968000000000 1.0
C      1  0.4959430000000  0.4290620000000  0.5151630000000 1.0
C      1  0.5787220000000  0.4758340000000  0.4424720000000 1.0
C      1  0.5214690000000  0.5482310000000  0.5891940000000 1.0
C      1  0.5726680000000  0.4493920000000  0.4518650000000 1.0
C      1  0.5141560000000  0.5959560000000  0.5193140000000 1.0
C      1  0.5514880000000  0.5612390000000  0.4917780000000 1.0
C      1  0.4206220000000  0.4872820000000  0.5616350000000 1.0
C      1  0.4648690000000  0.5401580000000  0.4681700000000 1.0
C      1  0.4544460000000  0.5080930000000  0.5590250000000 1.0
C      1  0.4491110000000  0.5849620000000  0.4878230000000 1.0
C      1  0.4528700000000  0.4273970000000  0.4283940000000 1.0
C      1  0.4998340000000  0.4859950000000  0.5968600000000 1.0
C      1  0.4502450000000  0.4840610000000  0.4419420000000 1.0
C      1  0.4611130000000  0.4586700000000  0.4281900000000 1.0
C      1  0.5352400000000  0.5585820000000  0.4635900000000 1.0
C      1  0.4772710000000  0.4346360000000  0.4764400000000 1.0
C      1  0.4327420000000  0.5662520000000  0.5121500000000 1.0
C      1  0.5138460000000  0.4718320000000  0.3995140000000 1.0
C      1  0.5403020000000  0.5481570000000  0.4363790000000 1.0
C      1  0.4773530000000  0.5291780000000  0.5219290000000 1.0
C      1  0.4827040000000  0.5848350000000  0.4823080000000 1.0
C      1  0.5287460000000  0.5113840000000  0.4630370000000 1.0
C      1  0.5119440000000  0.4043980000000  0.4983880000000 1.0
C      1  0.4553890000000  0.5162330000000  0.4479990000000 1.0
C      1  0.5280120000000  0.5166330000000  0.4032150000000 1.0
C      1  0.4497460000000  0.4870400000000  0.5793720000000 1.0
C      1  0.4746890000000  0.5395810000000  0.5728090000000 1.0
END
