TITL C-2778431-5191-689 -0.00188309322965654 125000 -850.413361079413 0 0 145 (C1) n - 1
REM
REM in /home/nfs/bkarasulu/CARBON/AIRSS/Generating-Clusters/REBO/Only-C1/SD-CG/HFTN-CG
REM
REM
REM
REM
REM
REM ./C.cell (11c1c37f851c82e70ff6c80c92926a4b)
REM
REM compiler GCC version 9.2.1 20190827 (Red Hat 9.2.1-1)
REM options -cpp -mtune=generic -march=x86-64 -g -O0 -fpre-include=/usr/include/finclude/math-vector-fortran.h
REM seed -211257684 -1487481829 116170455 702978046 1116692254 976996565 -796382307 2017592156 -159743595 -463837200 -12472044 -1539366563 920483413 -2019410905 226369948 1291639284 1807282653 -993113410 -1251195385 -1047489351 1820123309 1692051933 -1528638378 -1607882587 485636505 -2060834784 653309830 -937865131 1663792271 463751608 -1686559806 -2052597810 -187713375
REM
CELL 1.54180   50.00000   50.00000   50.00000   90.00000   90.00000   90.00000
LATT -1
SFAC C  
C      1  0.5084940000000  0.4352370000000  0.5221130000000 1.0
C      1  0.5140430000000  0.5245120000000  0.4526850000000 1.0
C      1  0.4311690000000  0.4684300000000  0.4782410000000 1.0
C      1  0.4167840000000  0.4552850000000  0.5045070000000 1.0
C      1  0.4787110000000  0.4983810000000  0.5913070000000 1.0
C      1  0.4014710000000  0.5091690000000  0.5107850000000 1.0
C      1  0.5031580000000  0.4658800000000  0.5523130000000 1.0
C      1  0.4680420000000  0.4623850000000  0.4242800000000 1.0
C      1  0.4167720000000  0.4774890000000  0.5496490000000 1.0
C      1  0.4799860000000  0.5790480000000  0.5498210000000 1.0
C      1  0.4440190000000  0.4363310000000  0.4968190000000 1.0
C      1  0.4946310000000  0.5041110000000  0.4694220000000 1.0
C      1  0.4561930000000  0.4132410000000  0.4827340000000 1.0
C      1  0.5645020000000  0.4666110000000  0.5467880000000 1.0
C      1  0.4311840000000  0.5179400000000  0.5193320000000 1.0
C      1  0.4072400000000  0.5333260000000  0.4659430000000 1.0
C      1  0.5370010000000  0.5003840000000  0.4745720000000 1.0
C      1  0.5041170000000  0.4126020000000  0.4613490000000 1.0
C      1  0.5249590000000  0.6049370000000  0.5170680000000 1.0
C      1  0.4497690000000  0.4868720000000  0.4150630000000 1.0
C      1  0.4940230000000  0.5344860000000  0.5231830000000 1.0
C      1  0.4592920000000  0.5661920000000  0.4406320000000 1.0
C      1  0.5465040000000  0.4899140000000  0.5294360000000 1.0
C      1  0.5612280000000  0.4334800000000  0.4715160000000 1.0
C      1  0.5495810000000  0.5326750000000  0.4953130000000 1.0
C      1  0.5001670000000  0.4610400000000  0.5020700000000 1.0
C      1  0.5398730000000  0.5674610000000  0.5168450000000 1.0
C      1  0.4014830000000  0.5040930000000  0.5420560000000 1.0
C      1  0.4247090000000  0.4563450000000  0.5340320000000 1.0
C      1  0.5784060000000  0.4927050000000  0.4765870000000 1.0
C      1  0.4793940000000  0.5502320000000  0.4711270000000 1.0
C      1  0.5199270000000  0.4630830000000  0.4517000000000 1.0
C      1  0.4991330000000  0.5454420000000  0.4922640000000 1.0
C      1  0.5457200000000  0.5928450000000  0.4954040000000 1.0
C      1  0.5608130000000  0.5409140000000  0.4428460000000 1.0
C      1  0.5075400000000  0.5557260000000  0.5992130000000 1.0
C      1  0.4880660000000  0.5389260000000  0.4434650000000 1.0
C      1  0.5533560000000  0.5085360000000  0.4467360000000 1.0
C      1  0.5797740000000  0.5651730000000  0.5180370000000 1.0
C      1  0.5715940000000  0.4460430000000  0.4478900000000 1.0
C      1  0.5217370000000  0.4100800000000  0.5877280000000 1.0
C      1  0.5118560000000  0.5002790000000  0.5994830000000 1.0
C      1  0.5193140000000  0.3902310000000  0.5275620000000 1.0
C      1  0.5782840000000  0.4371120000000  0.5432430000000 1.0
C      1  0.5346310000000  0.5018800000000  0.4120420000000 1.0
C      1  0.4533550000000  0.4224410000000  0.5571650000000 1.0
C      1  0.4666720000000  0.5094610000000  0.5537960000000 1.0
C      1  0.4630260000000  0.5789230000000  0.4747500000000 1.0
C      1  0.4413120000000  0.5126800000000  0.4656300000000 1.0
C      1  0.5155400000000  0.4938690000000  0.4372670000000 1.0
C      1  0.5769810000000  0.4765670000000  0.4509050000000 1.0
C      1  0.5437160000000  0.4693110000000  0.4720480000000 1.0
C      1  0.4236220000000  0.5564810000000  0.5124110000000 1.0
C      1  0.5115400000000  0.4591040000000  0.4026830000000 1.0
C      1  0.4901020000000  0.5784710000000  0.4389440000000 1.0
C      1  0.4802460000000  0.4170560000000  0.5280960000000 1.0
C      1  0.5324360000000  0.5470710000000  0.4703030000000 1.0
C      1  0.5293510000000  0.4476580000000  0.4908100000000 1.0
C      1  0.4702830000000  0.4859750000000  0.5095960000000 1.0
C      1  0.5954180000000  0.4632470000000  0.5334890000000 1.0
C      1  0.5007280000000  0.4026420000000  0.5455010000000 1.0
C      1  0.4607670000000  0.4757770000000  0.4828930000000 1.0
C      1  0.5286940000000  0.4513660000000  0.4240110000000 1.0
C      1  0.4872570000000  0.5505960000000  0.4114030000000 1.0
C      1  0.5290380000000  0.5314840000000  0.4059900000000 1.0
C      1  0.4461140000000  0.5292860000000  0.4937300000000 1.0
C      1  0.4745320000000  0.4298690000000  0.5745630000000 1.0
C      1  0.5688870000000  0.5243330000000  0.4714840000000 1.0
C      1  0.4466580000000  0.5444320000000  0.4635150000000 1.0
C      1  0.4936080000000  0.5147910000000  0.5671050000000 1.0
C      1  0.4132430000000  0.5156500000000  0.4373790000000 1.0
C      1  0.4283250000000  0.4629920000000  0.4487050000000 1.0
C      1  0.5496580000000  0.4451320000000  0.5165860000000 1.0
C      1  0.5028750000000  0.5339120000000  0.3947310000000 1.0
C      1  0.4512200000000  0.4391880000000  0.4403710000000 1.0
C      1  0.4496340000000  0.5075350000000  0.5897940000000 1.0
C      1  0.5750080000000  0.5683030000000  0.4418830000000 1.0
C      1  0.5132250000000  0.5039170000000  0.5462030000000 1.0
C      1  0.5902840000000  0.4784610000000  0.5045210000000 1.0
C      1  0.4478140000000  0.4404730000000  0.5364130000000 1.0
C      1  0.5136820000000  0.5437430000000  0.5456650000000 1.0
C      1  0.4844940000000  0.4875420000000  0.4347100000000 1.0
C      1  0.5615480000000  0.5880180000000  0.4502720000000 1.0
C      1  0.4518330000000  0.5737010000000  0.5042640000000 1.0
C      1  0.4985600000000  0.4452230000000  0.4655510000000 1.0
C      1  0.4601820000000  0.5361470000000  0.4236740000000 1.0
C      1  0.4963560000000  0.4230910000000  0.4922770000000 1.0
C      1  0.4738540000000  0.3993750000000  0.5020810000000 1.0
C      1  0.5609640000000  0.5029770000000  0.5041680000000 1.0
C      1  0.4983600000000  0.4127700000000  0.5721780000000 1.0
C      1  0.5068610000000  0.6016590000000  0.4691590000000 1.0
C      1  0.4550990000000  0.4785410000000  0.5601790000000 1.0
C      1  0.4729370000000  0.5881110000000  0.5235800000000 1.0
C      1  0.4632580000000  0.5094200000000  0.4063510000000 1.0
C      1  0.5348880000000  0.5242900000000  0.5924460000000 1.0
C      1  0.5321410000000  0.4982320000000  0.5725890000000 1.0
C      1  0.4073280000000  0.5387450000000  0.4949840000000 1.0
C      1  0.4478260000000  0.4954180000000  0.5310160000000 1.0
C      1  0.4044150000000  0.4845460000000  0.4923800000000 1.0
C      1  0.4703640000000  0.4180120000000  0.4577590000000 1.0
C      1  0.5331450000000  0.4159320000000  0.4793330000000 1.0
C      1  0.5394050000000  0.5219250000000  0.5395370000000 1.0
C      1  0.4377900000000  0.5359890000000  0.5750140000000 1.0
C      1  0.5615760000000  0.4885080000000  0.4229480000000 1.0
C      1  0.5008610000000  0.4724240000000  0.5843240000000 1.0
C      1  0.5084540000000  0.4838300000000  0.4838880000000 1.0
C      1  0.5091440000000  0.4869250000000  0.3983970000000 1.0
C      1  0.4238870000000  0.5055750000000  0.5676500000000 1.0
C      1  0.5337320000000  0.5812640000000  0.4666700000000 1.0
C      1  0.4948510000000  0.5452010000000  0.5740280000000 1.0
C      1  0.4806750000000  0.4747600000000  0.5397060000000 1.0
C      1  0.5702000000000  0.5360530000000  0.5605500000000 1.0
C      1  0.5629990000000  0.4122630000000  0.5583440000000 1.0
C      1  0.4822030000000  0.6015760000000  0.4718720000000 1.0
C      1  0.4586410000000  0.5367010000000  0.5414670000000 1.0
C      1  0.5788090000000  0.5090980000000  0.5555550000000 1.0
C      1  0.5133560000000  0.5702890000000  0.5014680000000 1.0
C      1  0.5273700000000  0.4618410000000  0.5332870000000 1.0
C      1  0.5343830000000  0.5493990000000  0.4270320000000 1.0
C      1  0.4266490000000  0.4871060000000  0.4318340000000 1.0
C      1  0.5925120000000  0.4971830000000  0.5331580000000 1.0
C      1  0.4649180000000  0.5448930000000  0.5129050000000 1.0
C      1  0.5569060000000  0.4562880000000  0.4232910000000 1.0
C      1  0.4642720000000  0.5562280000000  0.5669180000000 1.0
C      1  0.5273200000000  0.5955810000000  0.5442480000000 1.0
C      1  0.4714380000000  0.4463360000000  0.5132150000000 1.0
C      1  0.4102080000000  0.4997710000000  0.4660150000000 1.0
C      1  0.5193020000000  0.5198560000000  0.4963680000000 1.0
C      1  0.4988150000000  0.5026870000000  0.5176070000000 1.0
C      1  0.5550710000000  0.5406750000000  0.5846290000000 1.0
C      1  0.5581320000000  0.5483060000000  0.5341250000000 1.0
C      1  0.5585460000000  0.4165820000000  0.5251710000000 1.0
C      1  0.5373210000000  0.4010660000000  0.5096420000000 1.0
C      1  0.5475420000000  0.4077650000000  0.5792640000000 1.0
C      1  0.4967950000000  0.5951640000000  0.5085410000000 1.0
C      1  0.4728060000000  0.4578380000000  0.4585840000000 1.0
C      1  0.4661100000000  0.4972050000000  0.4596620000000 1.0
C      1  0.5171030000000  0.5696530000000  0.4389800000000 1.0
C      1  0.4894680000000  0.5076700000000  0.3935060000000 1.0
C      1  0.4266180000000  0.5419980000000  0.5430580000000 1.0
C      1  0.5089720000000  0.5752220000000  0.5520200000000 1.0
C      1  0.4735710000000  0.4580730000000  0.5780300000000 1.0
C      1  0.5676870000000  0.4580410000000  0.4933780000000 1.0
C      1  0.5603440000000  0.4896300000000  0.5667860000000 1.0
C      1  0.5753200000000  0.5845580000000  0.5028440000000 1.0
END
