TITL C-2778437-8639-136 0.0023368719725876 125000 -1145.91170100877 0 0 197 (C1) n - 1
REM
REM in /home/nfs/bkarasulu/CARBON/AIRSS/Generating-Clusters/REBO/Only-C1/SD-CG/HFTN-CG
REM
REM
REM
REM
REM
REM ./C.cell (11c1c37f851c82e70ff6c80c92926a4b)
REM
REM compiler GCC version 9.2.1 20190827 (Red Hat 9.2.1-1)
REM options -cpp -mtune=generic -march=x86-64 -g -O0 -fpre-include=/usr/include/finclude/math-vector-fortran.h
REM seed 255892214 1062749693 1615675170 807914067 671431754 -1553482446 235748104 -1106351365 1044763989 525895264 195824397 1345092125 -1112693087 -93383000 1351361775 1361764527 1457817908 -1508042852 -1660694075 1972003897 -1642853424 1884743406 -1259807902 1686691185 -643047049 1493530284 -2014502335 223314460 1955804692 -319552383 -922965422 -1814942409 -579764565
REM
CELL 1.54180   50.00000   50.00000   50.00000   90.00000   90.00000   90.00000
LATT -1
SFAC C  
C      1  0.5154490000000  0.5887560000000  0.5693710000000 1.0
C      1  0.4513380000000  0.5860930000000  0.4474880000000 1.0
C      1  0.3949840000000  0.4975410000000  0.5649860000000 1.0
C      1  0.4145680000000  0.4761770000000  0.4493150000000 1.0
C      1  0.5029890000000  0.4902110000000  0.3955490000000 1.0
C      1  0.5714570000000  0.4510860000000  0.5282930000000 1.0
C      1  0.3907120000000  0.5403690000000  0.5167660000000 1.0
C      1  0.5494140000000  0.4783420000000  0.5474100000000 1.0
C      1  0.5028470000000  0.5748690000000  0.4761800000000 1.0
C      1  0.5005840000000  0.6124840000000  0.4632980000000 1.0
C      1  0.5500560000000  0.5104690000000  0.5911340000000 1.0
C      1  0.4318310000000  0.4512170000000  0.4524400000000 1.0
C      1  0.5620960000000  0.5553640000000  0.5063390000000 1.0
C      1  0.4831600000000  0.5113700000000  0.5799390000000 1.0
C      1  0.4855520000000  0.4410050000000  0.5967890000000 1.0
C      1  0.5408550000000  0.5384660000000  0.5920900000000 1.0
C      1  0.5364250000000  0.5160980000000  0.5488760000000 1.0
C      1  0.4612450000000  0.4349730000000  0.5831990000000 1.0
C      1  0.4183450000000  0.4529130000000  0.5695560000000 1.0
C      1  0.4651000000000  0.5551280000000  0.4435150000000 1.0
C      1  0.4405400000000  0.5461550000000  0.5679550000000 1.0
C      1  0.4206580000000  0.5607640000000  0.4835660000000 1.0
C      1  0.4674030000000  0.4865000000000  0.4797860000000 1.0
C      1  0.5631790000000  0.4869980000000  0.5771980000000 1.0
C      1  0.4949430000000  0.5606610000000  0.4031040000000 1.0
C      1  0.5411790000000  0.3954800000000  0.4844640000000 1.0
C      1  0.6001950000000  0.5077840000000  0.4435320000000 1.0
C      1  0.5032630000000  0.5876360000000  0.4446250000000 1.0
C      1  0.4584300000000  0.4548000000000  0.4047030000000 1.0
C      1  0.5615560000000  0.4411060000000  0.4800530000000 1.0
C      1  0.5537130000000  0.5440030000000  0.4044330000000 1.0
C      1  0.5535860000000  0.6013310000000  0.5227280000000 1.0
C      1  0.5420350000000  0.5241340000000  0.4916630000000 1.0
C      1  0.4271470000000  0.5640500000000  0.4518790000000 1.0
C      1  0.5124080000000  0.4184650000000  0.4491800000000 1.0
C      1  0.5289120000000  0.4842370000000  0.4960460000000 1.0
C      1  0.4988180000000  0.4687620000000  0.5006730000000 1.0
C      1  0.4342010000000  0.4306320000000  0.4250760000000 1.0
C      1  0.5096090000000  0.4524800000000  0.4224150000000 1.0
C      1  0.5155860000000  0.5427950000000  0.4566270000000 1.0
C      1  0.5145140000000  0.5447170000000  0.6025510000000 1.0
C      1  0.6044380000000  0.4686240000000  0.5424740000000 1.0
C      1  0.4880620000000  0.4381280000000  0.5058540000000 1.0
C      1  0.4148050000000  0.5088630000000  0.5122890000000 1.0
C      1  0.4637270000000  0.5432610000000  0.4913330000000 1.0
C      1  0.6009390000000  0.4562530000000  0.5111730000000 1.0
C      1  0.5133560000000  0.4361770000000  0.5839080000000 1.0
C      1  0.5360840000000  0.4631160000000  0.4586150000000 1.0
C      1  0.5385540000000  0.4696520000000  0.4273680000000 1.0
C      1  0.4604200000000  0.4901260000000  0.4241410000000 1.0
C      1  0.5266790000000  0.4576680000000  0.5608230000000 1.0
C      1  0.5072820000000  0.4425100000000  0.5298120000000 1.0
C      1  0.5261720000000  0.6038550000000  0.5213610000000 1.0
C      1  0.4663350000000  0.4386590000000  0.4677860000000 1.0
C      1  0.5154700000000  0.5152570000000  0.5717370000000 1.0
C      1  0.5373310000000  0.4337000000000  0.4443170000000 1.0
C      1  0.4054590000000  0.5005800000000  0.4697270000000 1.0
C      1  0.5131080000000  0.5794410000000  0.4194700000000 1.0
C      1  0.5664840000000  0.5234170000000  0.4287870000000 1.0
C      1  0.4728160000000  0.5647620000000  0.4729450000000 1.0
C      1  0.4843370000000  0.4870960000000  0.5254650000000 1.0
C      1  0.5364340000000  0.4134840000000  0.5400500000000 1.0
C      1  0.4974310000000  0.4295180000000  0.4754540000000 1.0
C      1  0.4890800000000  0.4989850000000  0.4253120000000 1.0
C      1  0.5887620000000  0.5654090000000  0.5436380000000 1.0
C      1  0.5831720000000  0.4613640000000  0.4418710000000 1.0
C      1  0.4340330000000  0.4373830000000  0.5268610000000 1.0
C      1  0.6246950000000  0.5205950000000  0.4840490000000 1.0
C      1  0.5557410000000  0.4803830000000  0.4773360000000 1.0
C      1  0.4955760000000  0.5149360000000  0.5124930000000 1.0
C      1  0.5847010000000  0.4262520000000  0.5088850000000 1.0
C      1  0.5660790000000  0.4386190000000  0.5772650000000 1.0
C      1  0.4677280000000  0.4851180000000  0.5927340000000 1.0
C      1  0.4812570000000  0.5988580000000  0.5194760000000 1.0
C      1  0.5231620000000  0.5000390000000  0.4661320000000 1.0
C      1  0.4182100000000  0.4021980000000  0.5618810000000 1.0
C      1  0.5675120000000  0.6042210000000  0.4983890000000 1.0
C      1  0.4605170000000  0.6003800000000  0.4999120000000 1.0
C      1  0.4547810000000  0.4346430000000  0.4996260000000 1.0
C      1  0.4916410000000  0.4231920000000  0.4254140000000 1.0
C      1  0.5775750000000  0.4908560000000  0.4956170000000 1.0
C      1  0.4864870000000  0.4682660000000  0.6069820000000 1.0
C      1  0.4510190000000  0.5799670000000  0.5487710000000 1.0
C      1  0.6173160000000  0.4972040000000  0.4687730000000 1.0
C      1  0.4878540000000  0.4022860000000  0.5556670000000 1.0
C      1  0.5614390000000  0.5826990000000  0.5441430000000 1.0
C      1  0.5036050000000  0.4568340000000  0.3886820000000 1.0
C      1  0.5591800000000  0.5478650000000  0.4759890000000 1.0
C      1  0.4411520000000  0.4052320000000  0.4918430000000 1.0
C      1  0.5909960000000  0.4798640000000  0.5600890000000 1.0
C      1  0.3924250000000  0.4710610000000  0.5218940000000 1.0
C      1  0.6013870000000  0.5368250000000  0.4429580000000 1.0
C      1  0.5760540000000  0.5217340000000  0.4898240000000 1.0
C      1  0.4223190000000  0.4282010000000  0.5541750000000 1.0
C      1  0.4091590000000  0.4502680000000  0.5082510000000 1.0
C      1  0.5690790000000  0.5515640000000  0.5670890000000 1.0
C      1  0.4863740000000  0.3916740000000  0.4820540000000 1.0
C      1  0.5327230000000  0.4634960000000  0.5217180000000 1.0
C      1  0.6004390000000  0.5372760000000  0.5284430000000 1.0
C      1  0.4199390000000  0.4569840000000  0.4148100000000 1.0
C      1  0.5533710000000  0.4926830000000  0.4071800000000 1.0
C      1  0.5169100000000  0.5472420000000  0.4905730000000 1.0
C      1  0.4953710000000  0.4657530000000  0.5498760000000 1.0
C      1  0.4268990000000  0.5286240000000  0.4927740000000 1.0
C      1  0.5102760000000  0.4215160000000  0.5564690000000 1.0
C      1  0.4577530000000  0.4610340000000  0.4358940000000 1.0
C      1  0.4397760000000  0.5342700000000  0.4433640000000 1.0
C      1  0.4469520000000  0.4739380000000  0.3891620000000 1.0
C      1  0.5727120000000  0.4852890000000  0.5249530000000 1.0
C      1  0.4683450000000  0.5619380000000  0.5713730000000 1.0
C      1  0.5447560000000  0.5546410000000  0.4510920000000 1.0
C      1  0.5071230000000  0.5825690000000  0.5064420000000 1.0
C      1  0.5200350000000  0.5052440000000  0.6039720000000 1.0
C      1  0.5525820000000  0.4321860000000  0.4215830000000 1.0
C      1  0.4810020000000  0.4385780000000  0.3986770000000 1.0
C      1  0.4134640000000  0.5595800000000  0.5227240000000 1.0
C      1  0.5060630000000  0.5244450000000  0.4157360000000 1.0
C      1  0.4055760000000  0.4761440000000  0.5509360000000 1.0
C      1  0.4623870000000  0.4722170000000  0.5552590000000 1.0
C      1  0.4494140000000  0.5207240000000  0.4700020000000 1.0
C      1  0.4192810000000  0.5152090000000  0.5386040000000 1.0
C      1  0.4446640000000  0.5561470000000  0.5148770000000 1.0
C      1  0.5749480000000  0.4893250000000  0.4513690000000 1.0
C      1  0.5443810000000  0.4416550000000  0.5005020000000 1.0
C      1  0.5052170000000  0.5969950000000  0.5435770000000 1.0
C      1  0.4872640000000  0.4563830000000  0.4477480000000 1.0
C      1  0.5718790000000  0.4056150000000  0.4951740000000 1.0
C      1  0.4907610000000  0.5445070000000  0.5821100000000 1.0
C      1  0.5829030000000  0.4435740000000  0.4637390000000 1.0
C      1  0.4980060000000  0.5263590000000  0.6505950000000 1.0
C      1  0.4117310000000  0.4090390000000  0.4817900000000 1.0
C      1  0.4692840000000  0.5026410000000  0.5542120000000 1.0
C      1  0.5309600000000  0.4574080000000  0.6005830000000 1.0
C      1  0.4207420000000  0.4907360000000  0.4192020000000 1.0
C      1  0.4454300000000  0.4622270000000  0.5808640000000 1.0
C      1  0.4375910000000  0.5837780000000  0.5020580000000 1.0
C      1  0.4046640000000  0.5395470000000  0.4617370000000 1.0
C      1  0.4984640000000  0.5881120000000  0.5913800000000 1.0
C      1  0.5244000000000  0.5190720000000  0.5180250000000 1.0
C      1  0.4638000000000  0.3975460000000  0.5334750000000 1.0
C      1  0.5351070000000  0.5608660000000  0.5485390000000 1.0
C      1  0.5089800000000  0.5190900000000  0.3815430000000 1.0
C      1  0.3982630000000  0.5340860000000  0.5493430000000 1.0
C      1  0.5571970000000  0.4600990000000  0.5920320000000 1.0
C      1  0.4849010000000  0.3948970000000  0.5111610000000 1.0
C      1  0.5143910000000  0.3941250000000  0.4702240000000 1.0
C      1  0.5061160000000  0.5543630000000  0.5221170000000 1.0
C      1  0.4130360000000  0.5500460000000  0.5689780000000 1.0
C      1  0.4441420000000  0.5049770000000  0.3996860000000 1.0
C      1  0.5254750000000  0.6224120000000  0.4716350000000 1.0
C      1  0.5837830000000  0.5135280000000  0.5397280000000 1.0
C      1  0.4642340000000  0.4216560000000  0.4385290000000 1.0
C      1  0.4586410000000  0.3998770000000  0.4641740000000 1.0
C      1  0.4856690000000  0.5402610000000  0.3852360000000 1.0
C      1  0.4539280000000  0.5155610000000  0.5091330000000 1.0
C      1  0.4875260000000  0.5261630000000  0.6746150000000 1.0
C      1  0.6046660000000  0.4775630000000  0.4865890000000 1.0
C      1  0.6001960000000  0.5679960000000  0.5127510000000 1.0
C      1  0.5365010000000  0.5188640000000  0.4016820000000 1.0
C      1  0.4605290000000  0.5286650000000  0.3875920000000 1.0
C      1  0.4372900000000  0.4639350000000  0.4971520000000 1.0
C      1  0.4292750000000  0.4172590000000  0.4561480000000 1.0
C      1  0.5737870000000  0.4495540000000  0.4180590000000 1.0
C      1  0.5642410000000  0.5248060000000  0.5569050000000 1.0
C      1  0.6040110000000  0.5320870000000  0.4978850000000 1.0
C      1  0.4615360000000  0.4178360000000  0.5608620000000 1.0
C      1  0.5716420000000  0.5570590000000  0.4301810000000 1.0
C      1  0.4469690000000  0.5230740000000  0.5477660000000 1.0
C      1  0.4355350000000  0.4678510000000  0.5369080000000 1.0
C      1  0.3955160000000  0.4275340000000  0.4932050000000 1.0
C      1  0.5088470000000  0.5265610000000  0.6257480000000 1.0
C      1  0.5093410000000  0.5446450000000  0.5547440000000 1.0
C      1  0.4256890000000  0.5804350000000  0.5403290000000 1.0
C      1  0.4717180000000  0.5993270000000  0.4706630000000 1.0
C      1  0.4349810000000  0.4915640000000  0.4800000000000 1.0
C      1  0.5469540000000  0.5768430000000  0.5743840000000 1.0
C      1  0.5528370000000  0.4386650000000  0.5487410000000 1.0
C      1  0.5477650000000  0.5086460000000  0.4506130000000 1.0
C      1  0.3878330000000  0.5238560000000  0.4871420000000 1.0
C      1  0.4139850000000  0.5148150000000  0.4400390000000 1.0
C      1  0.4733440000000  0.5328060000000  0.5286620000000 1.0
C      1  0.4923710000000  0.5482830000000  0.4331020000000 1.0
C      1  0.4870510000000  0.5059030000000  0.4821780000000 1.0
C      1  0.3898790000000  0.4950230000000  0.5060040000000 1.0
C      1  0.5056730000000  0.4703930000000  0.4673420000000 1.0
C      1  0.5413130000000  0.5705080000000  0.4212010000000 1.0
C      1  0.4775920000000  0.5624080000000  0.5385520000000 1.0
C      1  0.5133040000000  0.4770840000000  0.6098250000000 1.0
C      1  0.5514110000000  0.6173570000000  0.4788820000000 1.0
C      1  0.5465080000000  0.5432400000000  0.5262400000000 1.0
C      1  0.5908430000000  0.5878220000000  0.4969870000000 1.0
C      1  0.5845490000000  0.4994080000000  0.4143450000000 1.0
C      1  0.5094470000000  0.4023360000000  0.5218000000000 1.0
C      1  0.5353920000000  0.4146970000000  0.5081830000000 1.0
C      1  0.4982330000000  0.5145890000000  0.4536330000000 1.0
C      1  0.5310820000000  0.4725660000000  0.3953870000000 1.0
C      1  0.4520700000000  0.4863370000000  0.5165390000000 1.0
END
