TITL C-2778422-5617-355 0.00785253857108012 125000 -423.101673485578 0 0 75 (C1) n - 1
REM
REM in /home/nfs/bkarasulu/CARBON/AIRSS/Generating-Clusters/REBO/Only-C1/SD-CG/HFTN-CG
REM
REM
REM
REM
REM
REM ./C.cell (11c1c37f851c82e70ff6c80c92926a4b)
REM
REM compiler GCC version 9.2.1 20190827 (Red Hat 9.2.1-1)
REM options -cpp -mtune=generic -march=x86-64 -g -O0 -fpre-include=/usr/include/finclude/math-vector-fortran.h
REM seed 1376880997 -1185484225 1163871269 -1265267473 -1394792488 1283849531 2024596913 426605012 1207817809 -1518768431 1429133599 -1467085526 -21018532 444357580 -267256180 -1249676766 1894679901 -1785310157 -1776866520 1167181142 1663663338 -1782670506 -212147684 -532829041 -332328164 -462901914 1615007223 -1200345877 643908910 -1698891401 -27557242 -1239747578 845992410
REM
CELL 1.54180   50.00000   50.00000   50.00000   90.00000   90.00000   90.00000
LATT -1
SFAC C  
C      1  0.4805580000000  0.5181500000000  0.5837310000000 1.0
C      1  0.4363580000000  0.5301180000000  0.4736860000000 1.0
C      1  0.4754180000000  0.4636520000000  0.4749740000000 1.0
C      1  0.4632470000000  0.5467060000000  0.5132120000000 1.0
C      1  0.4668370000000  0.4962640000000  0.4803380000000 1.0
C      1  0.5099790000000  0.4986790000000  0.5220080000000 1.0
C      1  0.5317640000000  0.5817710000000  0.5189240000000 1.0
C      1  0.4825420000000  0.4457890000000  0.5284370000000 1.0
C      1  0.4800790000000  0.5498240000000  0.4605010000000 1.0
C      1  0.4407930000000  0.4498690000000  0.5323540000000 1.0
C      1  0.4784710000000  0.4209210000000  0.5103120000000 1.0
C      1  0.5623400000000  0.5462590000000  0.4770810000000 1.0
C      1  0.5514380000000  0.4425300000000  0.4987110000000 1.0
C      1  0.4339140000000  0.5442280000000  0.5535090000000 1.0
C      1  0.5020980000000  0.5264200000000  0.4598570000000 1.0
C      1  0.5615380000000  0.4886090000000  0.4883160000000 1.0
C      1  0.4883770000000  0.5517650000000  0.5247240000000 1.0
C      1  0.4985630000000  0.4482760000000  0.5552300000000 1.0
C      1  0.5469300000000  0.5138800000000  0.4613390000000 1.0
C      1  0.5277160000000  0.4294920000000  0.4884610000000 1.0
C      1  0.4420230000000  0.4559320000000  0.5605270000000 1.0
C      1  0.4644920000000  0.4959670000000  0.5881930000000 1.0
C      1  0.4527280000000  0.4984650000000  0.5415240000000 1.0
C      1  0.5161440000000  0.5613300000000  0.4733200000000 1.0
C      1  0.4936470000000  0.4802800000000  0.5445340000000 1.0
C      1  0.5295210000000  0.5010080000000  0.4875210000000 1.0
C      1  0.5411220000000  0.4703550000000  0.5688490000000 1.0
C      1  0.5578830000000  0.4676890000000  0.5470190000000 1.0
C      1  0.4281270000000  0.4713920000000  0.4811560000000 1.0
C      1  0.4661720000000  0.5038520000000  0.4483780000000 1.0
C      1  0.5236000000000  0.4684970000000  0.4560450000000 1.0
C      1  0.5024050000000  0.4802900000000  0.4877770000000 1.0
C      1  0.5282720000000  0.4954880000000  0.5702560000000 1.0
C      1  0.5287410000000  0.5807880000000  0.4940610000000 1.0
C      1  0.5099400000000  0.4229660000000  0.5103180000000 1.0
C      1  0.5220940000000  0.5238650000000  0.4326520000000 1.0
C      1  0.4802780000000  0.4740940000000  0.5130650000000 1.0
C      1  0.4482150000000  0.4774480000000  0.5165390000000 1.0
C      1  0.5345260000000  0.5126670000000  0.5488900000000 1.0
C      1  0.4768050000000  0.5154500000000  0.5361440000000 1.0
C      1  0.5197520000000  0.4363230000000  0.4622940000000 1.0
C      1  0.4874980000000  0.5294880000000  0.5584670000000 1.0
C      1  0.5170770000000  0.5308110000000  0.5243670000000 1.0
C      1  0.5312920000000  0.5610360000000  0.5403510000000 1.0
C      1  0.4898720000000  0.6001820000000  0.4455470000000 1.0
C      1  0.5058050000000  0.4982040000000  0.4203710000000 1.0
C      1  0.5219580000000  0.4678180000000  0.5299490000000 1.0
C      1  0.5209680000000  0.4370330000000  0.5340920000000 1.0
C      1  0.4503300000000  0.4354360000000  0.5074300000000 1.0
C      1  0.4307640000000  0.5068320000000  0.5182830000000 1.0
C      1  0.5776830000000  0.5158980000000  0.4759280000000 1.0
C      1  0.4421530000000  0.5348710000000  0.5288310000000 1.0
C      1  0.4557970000000  0.5306500000000  0.4497470000000 1.0
C      1  0.5428500000000  0.4960210000000  0.4345080000000 1.0
C      1  0.4590910000000  0.5473810000000  0.4855330000000 1.0
C      1  0.5047710000000  0.5363660000000  0.4916910000000 1.0
C      1  0.4345070000000  0.5019690000000  0.4878300000000 1.0
C      1  0.4778030000000  0.4901560000000  0.4269280000000 1.0
C      1  0.5049620000000  0.4945140000000  0.4568470000000 1.0
C      1  0.5473220000000  0.5282560000000  0.4983370000000 1.0
C      1  0.5610780000000  0.5257310000000  0.5224660000000 1.0
C      1  0.4510900000000  0.4826010000000  0.5671610000000 1.0
C      1  0.5600500000000  0.4969890000000  0.5324060000000 1.0
C      1  0.5616410000000  0.4688210000000  0.5131390000000 1.0
C      1  0.4743660000000  0.4621310000000  0.4257120000000 1.0
C      1  0.4482650000000  0.4529500000000  0.4849680000000 1.0
C      1  0.5542300000000  0.4755350000000  0.4595140000000 1.0
C      1  0.4937720000000  0.5771120000000  0.4564230000000 1.0
C      1  0.5187900000000  0.4470040000000  0.4308890000000 1.0
C      1  0.5366150000000  0.5456530000000  0.4547850000000 1.0
C      1  0.5257980000000  0.4734430000000  0.4164910000000 1.0
C      1  0.4805210000000  0.4485930000000  0.4486150000000 1.0
C      1  0.5031770000000  0.5549710000000  0.5528350000000 1.0
C      1  0.5571520000000  0.5453840000000  0.5413430000000 1.0
C      1  0.4855100000000  0.5128150000000  0.5034510000000 1.0
END
