TITL C-2778431-5191-7 0.00139256239338012 125000 -563.000885051191 0 0 97 (C1) n - 1
REM
REM in /home/nfs/bkarasulu/CARBON/AIRSS/Generating-Clusters/REBO/Only-C1/SD-CG/HFTN-CG
REM
REM
REM
REM
REM
REM ./C.cell (11c1c37f851c82e70ff6c80c92926a4b)
REM
REM compiler GCC version 9.2.1 20190827 (Red Hat 9.2.1-1)
REM options -cpp -mtune=generic -march=x86-64 -g -O0 -fpre-include=/usr/include/finclude/math-vector-fortran.h
REM seed -831796215 1035448025 -1950460022 -422547486 1749606060 1094055860 -75731479 -263862566 2025035645 549345165 1602031824 -353617399 878383900 967178269 -669576765 -842878651 -1045562076 -766478451 -2067302482 -1619129615 -1564270263 -1858349852 -269506862 -1043442646 -1097153332 -1124002490 -1177259136 1844306399 998602782 1970529989 -1575101430 -1823451370 -407136527
REM
CELL 1.54180   50.00000   50.00000   50.00000   90.00000   90.00000   90.00000
LATT -1
SFAC C  
C      1  0.5342710000000  0.5095740000000  0.5571430000000 1.0
C      1  0.4085260000000  0.4453010000000  0.4762170000000 1.0
C      1  0.5491550000000  0.5721410000000  0.4424530000000 1.0
C      1  0.3831600000000  0.4411690000000  0.4710860000000 1.0
C      1  0.4789670000000  0.4233220000000  0.5103180000000 1.0
C      1  0.5224980000000  0.4598480000000  0.5313650000000 1.0
C      1  0.5150460000000  0.4391100000000  0.4434910000000 1.0
C      1  0.4797550000000  0.4706240000000  0.4493430000000 1.0
C      1  0.4354750000000  0.4496910000000  0.4816680000000 1.0
C      1  0.5462060000000  0.4479610000000  0.5480500000000 1.0
C      1  0.4483110000000  0.5011870000000  0.5606770000000 1.0
C      1  0.6080910000000  0.4146930000000  0.5505460000000 1.0
C      1  0.5226570000000  0.4928310000000  0.4318620000000 1.0
C      1  0.4727350000000  0.5602140000000  0.5456540000000 1.0
C      1  0.5514290000000  0.5416530000000  0.4938520000000 1.0
C      1  0.5136490000000  0.5712670000000  0.4878380000000 1.0
C      1  0.5140540000000  0.4887630000000  0.4906660000000 1.0
C      1  0.5296760000000  0.4635620000000  0.5001760000000 1.0
C      1  0.4675490000000  0.4908260000000  0.4947660000000 1.0
C      1  0.5666530000000  0.5233020000000  0.4750480000000 1.0
C      1  0.5178220000000  0.5386420000000  0.4946620000000 1.0
C      1  0.4710480000000  0.4849850000000  0.5762110000000 1.0
C      1  0.4548380000000  0.5584590000000  0.4735640000000 1.0
C      1  0.5898250000000  0.4561100000000  0.5750650000000 1.0
C      1  0.4413490000000  0.4777420000000  0.4392220000000 1.0
C      1  0.5128260000000  0.5553370000000  0.5813880000000 1.0
C      1  0.5241060000000  0.4925690000000  0.5324470000000 1.0
C      1  0.4238290000000  0.5212950000000  0.4694850000000 1.0
C      1  0.4912970000000  0.4955930000000  0.4205830000000 1.0
C      1  0.4168480000000  0.5175940000000  0.5252800000000 1.0
C      1  0.4910560000000  0.5287100000000  0.4132150000000 1.0
C      1  0.5612580000000  0.4289870000000  0.5032300000000 1.0
C      1  0.4315340000000  0.5691520000000  0.5264310000000 1.0
C      1  0.4666790000000  0.5872880000000  0.4801610000000 1.0
C      1  0.4473120000000  0.4324120000000  0.4439900000000 1.0
C      1  0.5033310000000  0.5865130000000  0.5105910000000 1.0
C      1  0.4320770000000  0.4518100000000  0.4313280000000 1.0
C      1  0.5688590000000  0.5135210000000  0.5328450000000 1.0
C      1  0.4937810000000  0.4877060000000  0.5849240000000 1.0
C      1  0.5530080000000  0.4826430000000  0.4664740000000 1.0
C      1  0.5636310000000  0.4685210000000  0.5661760000000 1.0
C      1  0.4720210000000  0.5727940000000  0.4503900000000 1.0
C      1  0.5185620000000  0.5052320000000  0.5862530000000 1.0
C      1  0.5403790000000  0.4387480000000  0.4558400000000 1.0
C      1  0.5787920000000  0.4096320000000  0.5091770000000 1.0
C      1  0.5295370000000  0.5775100000000  0.4602340000000 1.0
C      1  0.5133980000000  0.5330270000000  0.5983460000000 1.0
C      1  0.5337980000000  0.5564640000000  0.5190540000000 1.0
C      1  0.4419680000000  0.4424520000000  0.5445360000000 1.0
C      1  0.5497090000000  0.5359410000000  0.5505310000000 1.0
C      1  0.5699900000000  0.5069580000000  0.5009520000000 1.0
C      1  0.4588440000000  0.5793720000000  0.5285280000000 1.0
C      1  0.4626550000000  0.5318300000000  0.5380820000000 1.0
C      1  0.4912260000000  0.5560110000000  0.4318400000000 1.0
C      1  0.4208380000000  0.5302420000000  0.4977850000000 1.0
C      1  0.5349970000000  0.5599680000000  0.5602310000000 1.0
C      1  0.5041050000000  0.5213450000000  0.4702000000000 1.0
C      1  0.4477890000000  0.4690470000000  0.5371900000000 1.0
C      1  0.4574400000000  0.4927730000000  0.4225280000000 1.0
C      1  0.5570800000000  0.4841870000000  0.5363840000000 1.0
C      1  0.4351820000000  0.5200080000000  0.5763620000000 1.0
C      1  0.5046170000000  0.4299290000000  0.4913220000000 1.0
C      1  0.5452770000000  0.4991360000000  0.4130710000000 1.0
C      1  0.5617840000000  0.5263780000000  0.4474530000000 1.0
C      1  0.4468240000000  0.5083950000000  0.4639600000000 1.0
C      1  0.5359470000000  0.4343630000000  0.4859630000000 1.0
C      1  0.4324360000000  0.5415230000000  0.5343280000000 1.0
C      1  0.5054990000000  0.5533210000000  0.4599810000000 1.0
C      1  0.4964440000000  0.5669400000000  0.5579650000000 1.0
C      1  0.4496880000000  0.4312210000000  0.4960360000000 1.0
C      1  0.4956410000000  0.4508410000000  0.5168870000000 1.0
C      1  0.4473140000000  0.4757650000000  0.4718760000000 1.0
C      1  0.4711330000000  0.5218070000000  0.5066020000000 1.0
C      1  0.4793690000000  0.4985720000000  0.4648190000000 1.0
C      1  0.5655870000000  0.5448910000000  0.5229450000000 1.0
C      1  0.5051730000000  0.4657370000000  0.4300220000000 1.0
C      1  0.4609370000000  0.5183440000000  0.4086500000000 1.0
C      1  0.5573510000000  0.4607000000000  0.4507420000000 1.0
C      1  0.5467460000000  0.5454840000000  0.4319470000000 1.0
C      1  0.4753650000000  0.5910600000000  0.5076550000000 1.0
C      1  0.4990340000000  0.5039790000000  0.5154420000000 1.0
C      1  0.4103110000000  0.5824550000000  0.5162670000000 1.0
C      1  0.4746330000000  0.4726320000000  0.5195430000000 1.0
C      1  0.4950140000000  0.4293810000000  0.4617790000000 1.0
C      1  0.5634450000000  0.4550890000000  0.5195600000000 1.0
C      1  0.4499780000000  0.4222390000000  0.5265480000000 1.0
C      1  0.5477090000000  0.4903270000000  0.5802940000000 1.0
C      1  0.5206770000000  0.5411520000000  0.4223330000000 1.0
C      1  0.6050150000000  0.4350230000000  0.5681320000000 1.0
C      1  0.4704780000000  0.4432070000000  0.4568140000000 1.0
C      1  0.5180890000000  0.5775340000000  0.5364890000000 1.0
C      1  0.5595010000000  0.4790820000000  0.4967980000000 1.0
C      1  0.4748990000000  0.5001070000000  0.5394680000000 1.0
C      1  0.4314970000000  0.4938120000000  0.5319530000000 1.0
C      1  0.4497890000000  0.5399090000000  0.4934150000000 1.0
C      1  0.5977810000000  0.4041760000000  0.5277850000000 1.0
C      1  0.5265330000000  0.4993190000000  0.4612200000000 1.0
END
