TITL C-2778425-5191-569 0.00445606109978738 125000 -325.735735406444 0 0 55 (C1) n - 1
REM
REM in /home/nfs/bkarasulu/CARBON/AIRSS/Generating-Clusters/REBO/Only-C1/SD-CG/HFTN-CG
REM
REM
REM
REM
REM
REM ./C.cell (11c1c37f851c82e70ff6c80c92926a4b)
REM
REM compiler GCC version 9.2.1 20190827 (Red Hat 9.2.1-1)
REM options -cpp -mtune=generic -march=x86-64 -g -O0 -fpre-include=/usr/include/finclude/math-vector-fortran.h
REM seed 809605455 1865425747 790713681 -1545810135 -831196596 -144708901 1584142858 1773808431 -543079420 775122830 -1712137794 2064343182 -521358473 1374356624 -520963594 1453918503 -113180486 1574927623 -1927614893 1243016367 -1390592835 -9911176 1012915391 -1453483800 57278612 -338603174 1049684936 865876006 -1513590410 -1727716790 -240818340 105982950 1270693652
REM
CELL 1.54180   50.00000   50.00000   50.00000   90.00000   90.00000   90.00000
LATT -1
SFAC C  
C      1  0.4869650000000  0.5236660000000  0.4456970000000 1.0
C      1  0.4945340000000  0.4193490000000  0.4485640000000 1.0
C      1  0.5256210000000  0.5239960000000  0.5515530000000 1.0
C      1  0.4667800000000  0.4725380000000  0.5523680000000 1.0
C      1  0.5525400000000  0.5402790000000  0.5074080000000 1.0
C      1  0.4496050000000  0.5353120000000  0.4832070000000 1.0
C      1  0.5061830000000  0.4884740000000  0.5776470000000 1.0
C      1  0.4885490000000  0.5112070000000  0.5772920000000 1.0
C      1  0.5105070000000  0.5161000000000  0.4295470000000 1.0
C      1  0.4970650000000  0.4615840000000  0.5615840000000 1.0
C      1  0.4676900000000  0.4693830000000  0.4982130000000 1.0
C      1  0.5357120000000  0.4819020000000  0.4840880000000 1.0
C      1  0.4917410000000  0.5562480000000  0.5118040000000 1.0
C      1  0.4637240000000  0.4596340000000  0.5243950000000 1.0
C      1  0.4422610000000  0.5175270000000  0.4612880000000 1.0
C      1  0.5030600000000  0.5626220000000  0.4395530000000 1.0
C      1  0.5381590000000  0.5568300000000  0.4842240000000 1.0
C      1  0.5356180000000  0.4973700000000  0.5660810000000 1.0
C      1  0.4791320000000  0.5387100000000  0.5367090000000 1.0
C      1  0.4938020000000  0.5250510000000  0.4771350000000 1.0
C      1  0.4656130000000  0.5137770000000  0.5914020000000 1.0
C      1  0.5447750000000  0.5435410000000  0.4534110000000 1.0
C      1  0.4864090000000  0.4425750000000  0.5354750000000 1.0
C      1  0.5157950000000  0.4876630000000  0.4359220000000 1.0
C      1  0.5245970000000  0.5261200000000  0.4826190000000 1.0
C      1  0.5471270000000  0.5140870000000  0.4635220000000 1.0
C      1  0.4652120000000  0.4824270000000  0.4369860000000 1.0
C      1  0.5308490000000  0.4464890000000  0.5264830000000 1.0
C      1  0.5067150000000  0.4375250000000  0.5158300000000 1.0
C      1  0.5237910000000  0.5435860000000  0.4329940000000 1.0
C      1  0.5386130000000  0.4865410000000  0.4539470000000 1.0
C      1  0.4631210000000  0.4549120000000  0.4742820000000 1.0
C      1  0.4915690000000  0.5579310000000  0.4650870000000 1.0
C      1  0.5664540000000  0.5173080000000  0.4988480000000 1.0
C      1  0.4827320000000  0.4997280000000  0.4929390000000 1.0
C      1  0.4318570000000  0.4916540000000  0.4985480000000 1.0
C      1  0.4310430000000  0.4915940000000  0.4699180000000 1.0
C      1  0.5590990000000  0.4996950000000  0.5807320000000 1.0
C      1  0.4544230000000  0.5051060000000  0.5095130000000 1.0
C      1  0.4623510000000  0.5115030000000  0.4407340000000 1.0
C      1  0.4632740000000  0.5438750000000  0.5060400000000 1.0
C      1  0.4555950000000  0.4981210000000  0.5560270000000 1.0
C      1  0.5080860000000  0.4775370000000  0.4916510000000 1.0
C      1  0.4463860000000  0.4700630000000  0.4562390000000 1.0
C      1  0.4923090000000  0.4706340000000  0.4399690000000 1.0
C      1  0.5293990000000  0.4679280000000  0.5530050000000 1.0
C      1  0.4903550000000  0.4442170000000  0.4599700000000 1.0
C      1  0.5716880000000  0.4730620000000  0.5188090000000 1.0
C      1  0.4571240000000  0.5166390000000  0.5346450000000 1.0
C      1  0.5071330000000  0.5621920000000  0.4898580000000 1.0
C      1  0.5596020000000  0.4898130000000  0.4992820000000 1.0
C      1  0.5012550000000  0.4495260000000  0.4897820000000 1.0
C      1  0.5576070000000  0.4573150000000  0.5372140000000 1.0
C      1  0.4985080000000  0.5294280000000  0.5574260000000 1.0
C      1  0.5402900000000  0.5381070000000  0.5325350000000 1.0
END
