TITL C-2778425-5191-214 -0.0661958646513381 125000 -272.527566061051 0 0 47 (C1) n - 1
REM
REM in /home/nfs/bkarasulu/CARBON/AIRSS/Generating-Clusters/REBO/Only-C1/SD-CG/HFTN-CG
REM
REM
REM
REM
REM
REM ./C.cell (11c1c37f851c82e70ff6c80c92926a4b)
REM
REM compiler GCC version 9.2.1 20190827 (Red Hat 9.2.1-1)
REM options -cpp -mtune=generic -march=x86-64 -g -O0 -fpre-include=/usr/include/finclude/math-vector-fortran.h
REM seed -1450805561 1984287516 -1827526151 980287974 -1487742129 -1225297368 1311132573 1429142921 1919279218 -165462418 2021168127 -236983568 -1640300775 -1658223817 -1899260774 1576584395 1173266549 -810951061 1223005697 949995685 1615360625 264295701 895860172 1834244856 139104670 932769650 -1915833390 -1531766853 -1180819724 -1583434708 -362669310 749340178 -2109979661
REM
CELL 1.54180   50.00000   50.00000   50.00000   90.00000   90.00000   90.00000
LATT -1
SFAC C  
C      1  0.4870810000000  0.5000720000000  0.5729780000000 1.0
C      1  0.4439330000000  0.4574560000000  0.4958210000000 1.0
C      1  0.5137610000000  0.5062670000000  0.5694930000000 1.0
C      1  0.5114020000000  0.4389450000000  0.5003320000000 1.0
C      1  0.5361040000000  0.5010010000000  0.4538860000000 1.0
C      1  0.5263660000000  0.4538360000000  0.5270710000000 1.0
C      1  0.5804370000000  0.4779290000000  0.5440820000000 1.0
C      1  0.4472290000000  0.5019680000000  0.4624650000000 1.0
C      1  0.5878330000000  0.5084180000000  0.5068560000000 1.0
C      1  0.4953660000000  0.5612980000000  0.4947190000000 1.0
C      1  0.5151400000000  0.5198520000000  0.4502260000000 1.0
C      1  0.4490490000000  0.5476690000000  0.4785960000000 1.0
C      1  0.4939440000000  0.5182310000000  0.5181260000000 1.0
C      1  0.4667880000000  0.5333150000000  0.5217740000000 1.0
C      1  0.4819490000000  0.4788490000000  0.4697240000000 1.0
C      1  0.4994500000000  0.4994740000000  0.4901500000000 1.0
C      1  0.4732610000000  0.4886970000000  0.5510600000000 1.0
C      1  0.5308590000000  0.4942880000000  0.5503610000000 1.0
C      1  0.4878500000000  0.4546510000000  0.5167650000000 1.0
C      1  0.4833120000000  0.4798740000000  0.4367500000000 1.0
C      1  0.4867930000000  0.5273800000000  0.4466640000000 1.0
C      1  0.5320950000000  0.4652890000000  0.5509940000000 1.0
C      1  0.4924890000000  0.4853190000000  0.5267480000000 1.0
C      1  0.5102730000000  0.5358490000000  0.4778740000000 1.0
C      1  0.4433570000000  0.5194010000000  0.5278710000000 1.0
C      1  0.5115880000000  0.4638150000000  0.4771010000000 1.0
C      1  0.4244220000000  0.5132950000000  0.5037780000000 1.0
C      1  0.5390560000000  0.5500790000000  0.5177330000000 1.0
C      1  0.5090650000000  0.4704970000000  0.4291150000000 1.0
C      1  0.5432760000000  0.5041590000000  0.5256710000000 1.0
C      1  0.5129030000000  0.5444470000000  0.5166540000000 1.0
C      1  0.4512190000000  0.4762740000000  0.4767770000000 1.0
C      1  0.5189310000000  0.4773730000000  0.5064170000000 1.0
C      1  0.4794850000000  0.5497680000000  0.4667120000000 1.0
C      1  0.5740250000000  0.5267750000000  0.4904710000000 1.0
C      1  0.4687580000000  0.5056750000000  0.4431740000000 1.0
C      1  0.5711640000000  0.4957230000000  0.5257200000000 1.0
C      1  0.4224630000000  0.4863100000000  0.5220500000000 1.0
C      1  0.5549130000000  0.5136390000000  0.4727640000000 1.0
C      1  0.5145130000000  0.4127200000000  0.4930830000000 1.0
C      1  0.4462320000000  0.4928590000000  0.5436230000000 1.0
C      1  0.4349180000000  0.5226020000000  0.4783490000000 1.0
C      1  0.5271810000000  0.4736960000000  0.4515430000000 1.0
C      1  0.5629640000000  0.5488840000000  0.5047150000000 1.0
C      1  0.4619530000000  0.4468330000000  0.5134990000000 1.0
C      1  0.4651610000000  0.5547730000000  0.5034300000000 1.0
C      1  0.5296910000000  0.5144760000000  0.4962360000000 1.0
END
