TITL C-2778423-5760-542 -0.00146752692831564 125000 -993.765370764997 0 0 169 (C1) n - 1
REM
REM in /home/nfs/bkarasulu/CARBON/AIRSS/Generating-Clusters/REBO/Only-C1/SD-CG/HFTN-CG
REM
REM
REM
REM
REM
REM ./C.cell (11c1c37f851c82e70ff6c80c92926a4b)
REM
REM compiler GCC version 9.2.1 20190827 (Red Hat 9.2.1-1)
REM options -cpp -mtune=generic -march=x86-64 -g -O0 -fpre-include=/usr/include/finclude/math-vector-fortran.h
REM seed -1869262864 1351561715 -941775447 -1321129782 323006641 2104196419 1838830705 -641209927 -2055093746 -1896494734 -659604648 -782029024 1161641670 -718387840 931061801 -607420848 -475802067 -876629127 -121751029 -294678464 -238473559 1554354484 -2043911210 571447745 -1087202175 1774126921 920878679 -1165686052 27048010 -1383654425 1453884692 -1595503999 1880128625
REM
CELL 1.54180   50.00000   50.00000   50.00000   90.00000   90.00000   90.00000
LATT -1
SFAC C  
C      1  0.5825420000000  0.5622480000000  0.4545900000000 1.0
C      1  0.4700390000000  0.4901450000000  0.5880600000000 1.0
C      1  0.4944520000000  0.4564340000000  0.4740850000000 1.0
C      1  0.4632370000000  0.4648550000000  0.4872890000000 1.0
C      1  0.6075150000000  0.5621560000000  0.5226220000000 1.0
C      1  0.3990260000000  0.4667850000000  0.5027680000000 1.0
C      1  0.5442750000000  0.4339620000000  0.5672570000000 1.0
C      1  0.4418000000000  0.5325140000000  0.4703870000000 1.0
C      1  0.5612860000000  0.5213520000000  0.5924590000000 1.0
C      1  0.5130120000000  0.5132060000000  0.6053090000000 1.0
C      1  0.4492180000000  0.4342310000000  0.4290610000000 1.0
C      1  0.5009920000000  0.5329150000000  0.5801140000000 1.0
C      1  0.4060300000000  0.5294280000000  0.4871170000000 1.0
C      1  0.5559550000000  0.5538820000000  0.5195080000000 1.0
C      1  0.4732350000000  0.3985750000000  0.5310940000000 1.0
C      1  0.4652310000000  0.4485770000000  0.5322170000000 1.0
C      1  0.3988480000000  0.5530420000000  0.5084790000000 1.0
C      1  0.4965450000000  0.4024390000000  0.5102030000000 1.0
C      1  0.5765290000000  0.4544880000000  0.4660000000000 1.0
C      1  0.4533200000000  0.5134140000000  0.5481160000000 1.0
C      1  0.5490420000000  0.4791440000000  0.5319570000000 1.0
C      1  0.6126340000000  0.5104380000000  0.5175530000000 1.0
C      1  0.4191750000000  0.4260570000000  0.4751500000000 1.0
C      1  0.5092700000000  0.5511460000000  0.3990370000000 1.0
C      1  0.5439960000000  0.4483020000000  0.4250840000000 1.0
C      1  0.4732360000000  0.4484560000000  0.5930180000000 1.0
C      1  0.5092870000000  0.4458520000000  0.4059250000000 1.0
C      1  0.4889370000000  0.5150630000000  0.5190480000000 1.0
C      1  0.4151990000000  0.4511520000000  0.5498890000000 1.0
C      1  0.4057630000000  0.4532460000000  0.4731430000000 1.0
C      1  0.5236960000000  0.4141690000000  0.5247910000000 1.0
C      1  0.5431490000000  0.4241180000000  0.4654360000000 1.0
C      1  0.4996310000000  0.5033750000000  0.4492780000000 1.0
C      1  0.5705290000000  0.4537320000000  0.5739570000000 1.0
C      1  0.4470310000000  0.4204420000000  0.5317710000000 1.0
C      1  0.4567920000000  0.5058540000000  0.5162270000000 1.0
C      1  0.4260680000000  0.5685320000000  0.5612860000000 1.0
C      1  0.5533480000000  0.5594620000000  0.4276630000000 1.0
C      1  0.5449140000000  0.5115150000000  0.4976740000000 1.0
C      1  0.5077840000000  0.5260780000000  0.3822740000000 1.0
C      1  0.5356610000000  0.5145700000000  0.4085230000000 1.0
C      1  0.4582050000000  0.4864730000000  0.4007170000000 1.0
C      1  0.5053860000000  0.4324750000000  0.5756680000000 1.0
C      1  0.4967330000000  0.4851890000000  0.5816150000000 1.0
C      1  0.5693700000000  0.6038380000000  0.5227670000000 1.0
C      1  0.4898860000000  0.4061420000000  0.5599700000000 1.0
C      1  0.5903040000000  0.5629890000000  0.5011470000000 1.0
C      1  0.5208420000000  0.4950760000000  0.3882150000000 1.0
C      1  0.5380410000000  0.4962990000000  0.4321890000000 1.0
C      1  0.5373580000000  0.5035610000000  0.5514810000000 1.0
C      1  0.4366890000000  0.5350740000000  0.4311260000000 1.0
C      1  0.3960930000000  0.4738880000000  0.4494230000000 1.0
C      1  0.5015730000000  0.4510730000000  0.6019020000000 1.0
C      1  0.5680900000000  0.4312100000000  0.4771730000000 1.0
C      1  0.5812510000000  0.5410010000000  0.4295670000000 1.0
C      1  0.5194320000000  0.4515490000000  0.5519520000000 1.0
C      1  0.4659890000000  0.4266470000000  0.5585070000000 1.0
C      1  0.4318850000000  0.5601110000000  0.4525300000000 1.0
C      1  0.6103690000000  0.4894090000000  0.4467830000000 1.0
C      1  0.4697490000000  0.5414360000000  0.4268330000000 1.0
C      1  0.4375430000000  0.5251210000000  0.5009780000000 1.0
C      1  0.5332880000000  0.5850650000000  0.4273960000000 1.0
C      1  0.4312130000000  0.4206910000000  0.5034800000000 1.0
C      1  0.4199610000000  0.4942060000000  0.5226220000000 1.0
C      1  0.5713220000000  0.4945470000000  0.4531510000000 1.0
C      1  0.6096100000000  0.5158800000000  0.4899200000000 1.0
C      1  0.4442410000000  0.5498420000000  0.5180600000000 1.0
C      1  0.5577260000000  0.4866500000000  0.5050850000000 1.0
C      1  0.5335720000000  0.4654790000000  0.3974450000000 1.0
C      1  0.5207920000000  0.5313600000000  0.5549680000000 1.0
C      1  0.4432610000000  0.4475260000000  0.5917210000000 1.0
C      1  0.4753120000000  0.5479220000000  0.5985190000000 1.0
C      1  0.4579690000000  0.3993160000000  0.5003020000000 1.0
C      1  0.4305240000000  0.4622620000000  0.5705010000000 1.0
C      1  0.4333020000000  0.5294260000000  0.5653040000000 1.0
C      1  0.4898560000000  0.5808980000000  0.5513390000000 1.0
C      1  0.5954870000000  0.5338530000000  0.4073780000000 1.0
C      1  0.4491490000000  0.5543550000000  0.5777640000000 1.0
C      1  0.5395200000000  0.5590310000000  0.5553820000000 1.0
C      1  0.4510310000000  0.4874250000000  0.5639670000000 1.0
C      1  0.4133430000000  0.5248790000000  0.4539660000000 1.0
C      1  0.4558030000000  0.4954820000000  0.4776980000000 1.0
C      1  0.5584090000000  0.4828100000000  0.4106690000000 1.0
C      1  0.5251210000000  0.4518150000000  0.4599330000000 1.0
C      1  0.5794030000000  0.5225350000000  0.4556580000000 1.0
C      1  0.3935930000000  0.4682050000000  0.5363270000000 1.0
C      1  0.5138410000000  0.6072580000000  0.5106620000000 1.0
C      1  0.5338400000000  0.4018310000000  0.4804720000000 1.0
C      1  0.4926960000000  0.5360030000000  0.4498620000000 1.0
C      1  0.5887250000000  0.5369440000000  0.4825390000000 1.0
C      1  0.5485920000000  0.5881930000000  0.4808730000000 1.0
C      1  0.4483740000000  0.5098760000000  0.4154880000000 1.0
C      1  0.5069040000000  0.5821680000000  0.4351230000000 1.0
C      1  0.5464430000000  0.4047290000000  0.5072110000000 1.0
C      1  0.4084490000000  0.5178590000000  0.5647440000000 1.0
C      1  0.5779850000000  0.4431390000000  0.5230800000000 1.0
C      1  0.4727050000000  0.5641280000000  0.5124670000000 1.0
C      1  0.4950880000000  0.4104980000000  0.4528690000000 1.0
C      1  0.4913130000000  0.4924180000000  0.3960320000000 1.0
C      1  0.5181270000000  0.5188540000000  0.5021510000000 1.0
C      1  0.4745340000000  0.4571430000000  0.4460630000000 1.0
C      1  0.5874130000000  0.4744280000000  0.5772990000000 1.0
C      1  0.4061430000000  0.4991470000000  0.4947250000000 1.0
C      1  0.5240540000000  0.5500210000000  0.5264150000000 1.0
C      1  0.5659650000000  0.5167710000000  0.5618220000000 1.0
C      1  0.4926540000000  0.5630420000000  0.4194150000000 1.0
C      1  0.4660700000000  0.5031480000000  0.6125170000000 1.0
C      1  0.4585630000000  0.5584590000000  0.4818630000000 1.0
C      1  0.4003740000000  0.5562980000000  0.5573050000000 1.0
C      1  0.5056720000000  0.4915850000000  0.5284300000000 1.0
C      1  0.5693030000000  0.4229920000000  0.5049770000000 1.0
C      1  0.5692450000000  0.5457480000000  0.5495000000000 1.0
C      1  0.4552610000000  0.4405280000000  0.4662410000000 1.0
C      1  0.5839120000000  0.4756490000000  0.4859450000000 1.0
C      1  0.5687330000000  0.4568530000000  0.4388950000000 1.0
C      1  0.5239590000000  0.6009460000000  0.4843310000000 1.0
C      1  0.4809710000000  0.4616650000000  0.3953770000000 1.0
C      1  0.5624400000000  0.5333880000000  0.4986580000000 1.0
C      1  0.6056070000000  0.4931460000000  0.4736660000000 1.0
C      1  0.4352140000000  0.5831900000000  0.5381290000000 1.0
C      1  0.4459890000000  0.5839480000000  0.4647800000000 1.0
C      1  0.4917240000000  0.5786380000000  0.4909350000000 1.0
C      1  0.4011150000000  0.4973410000000  0.5465490000000 1.0
C      1  0.5425100000000  0.5213380000000  0.6085060000000 1.0
C      1  0.4652360000000  0.4018600000000  0.4668990000000 1.0
C      1  0.4847080000000  0.5409990000000  0.4801530000000 1.0
C      1  0.5227780000000  0.4117660000000  0.5549870000000 1.0
C      1  0.5984950000000  0.5554650000000  0.5476940000000 1.0
C      1  0.4822480000000  0.5099730000000  0.4218640000000 1.0
C      1  0.5881030000000  0.4954160000000  0.5578420000000 1.0
C      1  0.5566640000000  0.5755640000000  0.4580060000000 1.0
C      1  0.4465970000000  0.4751010000000  0.5123080000000 1.0
C      1  0.4249570000000  0.4812210000000  0.4759950000000 1.0
C      1  0.5129430000000  0.4752040000000  0.5078780000000 1.0
C      1  0.4727980000000  0.4262560000000  0.4888610000000 1.0
C      1  0.5913410000000  0.4670710000000  0.5152870000000 1.0
C      1  0.4613790000000  0.5933510000000  0.5371530000000 1.0
C      1  0.4244090000000  0.4504650000000  0.5184520000000 1.0
C      1  0.5163170000000  0.4308410000000  0.4357010000000 1.0
C      1  0.4474790000000  0.4774750000000  0.4512370000000 1.0
C      1  0.5078680000000  0.5504100000000  0.5000930000000 1.0
C      1  0.5350930000000  0.5420230000000  0.4095130000000 1.0
C      1  0.5866390000000  0.4803870000000  0.4259600000000 1.0
C      1  0.4693900000000  0.4599750000000  0.5621950000000 1.0
C      1  0.5647300000000  0.5819170000000  0.5058550000000 1.0
C      1  0.4391700000000  0.4146140000000  0.4520380000000 1.0
C      1  0.5127970000000  0.4791980000000  0.6068850000000 1.0
C      1  0.5413080000000  0.4791190000000  0.4574350000000 1.0
C      1  0.5055840000000  0.3992190000000  0.4794570000000 1.0
C      1  0.4001500000000  0.4980190000000  0.4453540000000 1.0
C      1  0.4812190000000  0.5097510000000  0.4773420000000 1.0
C      1  0.5018170000000  0.5934490000000  0.4621900000000 1.0
C      1  0.4885610000000  0.6010340000000  0.5233740000000 1.0
C      1  0.4358950000000  0.4600480000000  0.4294950000000 1.0
C      1  0.4816540000000  0.5585220000000  0.5681520000000 1.0
C      1  0.5223170000000  0.5851120000000  0.5517760000000 1.0
C      1  0.4709450000000  0.5974370000000  0.4717060000000 1.0
C      1  0.5053400000000  0.4874520000000  0.4789020000000 1.0
C      1  0.5315100000000  0.6036720000000  0.5334390000000 1.0
C      1  0.5007720000000  0.4345530000000  0.4992830000000 1.0
C      1  0.3865940000000  0.5482930000000  0.5342170000000 1.0
C      1  0.5584280000000  0.4525220000000  0.5434420000000 1.0
C      1  0.4215400000000  0.5705640000000  0.5136140000000 1.0
C      1  0.5990880000000  0.4896590000000  0.5317800000000 1.0
C      1  0.4792620000000  0.4402250000000  0.4194980000000 1.0
C      1  0.5204920000000  0.4472070000000  0.5205310000000 1.0
C      1  0.4842360000000  0.5237340000000  0.6151780000000 1.0
C      1  0.5128920000000  0.4809160000000  0.5568330000000 1.0
C      1  0.4719240000000  0.5382530000000  0.5337130000000 1.0
END
