TITL C-2778425-5191-1101 -0.00330119218873388 125000 -1080.1461442591 0 0 183 (C1) n - 1
REM
REM in /home/nfs/bkarasulu/CARBON/AIRSS/Generating-Clusters/REBO/Only-C1/SD-CG/HFTN-CG
REM
REM
REM
REM
REM
REM ./C.cell (11c1c37f851c82e70ff6c80c92926a4b)
REM
REM compiler GCC version 9.2.1 20190827 (Red Hat 9.2.1-1)
REM options -cpp -mtune=generic -march=x86-64 -g -O0 -fpre-include=/usr/include/finclude/math-vector-fortran.h
REM seed -1366902858 1259406110 -1636159057 792267485 -640126984 -538038057 1497437295 -331463725 2096325132 1843692699 1127228662 1332525097 -1139585244 -615818987 57568113 2032185514 -1353542627 1427377817 1715979299 1727224674 -1000994585 1986647344 2121197230 -653423147 186199814 254154332 592815505 -151344271 66955274 1972202552 -2060969110 696644597 -1600389003
REM
CELL 1.54180   50.00000   50.00000   50.00000   90.00000   90.00000   90.00000
LATT -1
SFAC C  
C      1  0.6052890000000  0.5263880000000  0.5358110000000 1.0
C      1  0.4421690000000  0.5049460000000  0.4399120000000 1.0
C      1  0.4216420000000  0.5135210000000  0.5973490000000 1.0
C      1  0.5363320000000  0.5556130000000  0.5320130000000 1.0
C      1  0.5369500000000  0.5007730000000  0.4911640000000 1.0
C      1  0.4755400000000  0.4785430000000  0.5079430000000 1.0
C      1  0.4929230000000  0.3888900000000  0.4737290000000 1.0
C      1  0.4929510000000  0.6017860000000  0.4616710000000 1.0
C      1  0.5023610000000  0.4392440000000  0.4028270000000 1.0
C      1  0.4638470000000  0.5929200000000  0.4511460000000 1.0
C      1  0.3932590000000  0.4599350000000  0.4957590000000 1.0
C      1  0.5984290000000  0.4787630000000  0.5106930000000 1.0
C      1  0.5379120000000  0.5984210000000  0.4390960000000 1.0
C      1  0.5273240000000  0.4109440000000  0.4502930000000 1.0
C      1  0.5289990000000  0.4271690000000  0.5449500000000 1.0
C      1  0.5159060000000  0.4313110000000  0.5902860000000 1.0
C      1  0.5667380000000  0.5501610000000  0.4297460000000 1.0
C      1  0.5035320000000  0.4592220000000  0.6031960000000 1.0
C      1  0.5149780000000  0.3921900000000  0.4938710000000 1.0
C      1  0.4539040000000  0.3961500000000  0.5056920000000 1.0
C      1  0.4950840000000  0.5550310000000  0.5088380000000 1.0
C      1  0.5422660000000  0.4323000000000  0.5745050000000 1.0
C      1  0.3983380000000  0.4919050000000  0.4534210000000 1.0
C      1  0.5735980000000  0.4309990000000  0.4591220000000 1.0
C      1  0.4784820000000  0.5067160000000  0.6007960000000 1.0
C      1  0.4753630000000  0.4026420000000  0.5280130000000 1.0
C      1  0.4961190000000  0.4061790000000  0.4464190000000 1.0
C      1  0.5236880000000  0.4882990000000  0.4627720000000 1.0
C      1  0.4634700000000  0.4731280000000  0.4101550000000 1.0
C      1  0.5193410000000  0.4834350000000  0.5301990000000 1.0
C      1  0.5392830000000  0.5265440000000  0.5951040000000 1.0
C      1  0.4346320000000  0.4107120000000  0.4530570000000 1.0
C      1  0.4370750000000  0.4800050000000  0.4259460000000 1.0
C      1  0.5744680000000  0.5014570000000  0.4232910000000 1.0
C      1  0.5233780000000  0.5729500000000  0.4284230000000 1.0
C      1  0.4924510000000  0.5273410000000  0.3940080000000 1.0
C      1  0.4358300000000  0.5364070000000  0.5848640000000 1.0
C      1  0.4731690000000  0.4583400000000  0.5960760000000 1.0
C      1  0.5155700000000  0.5442910000000  0.5898100000000 1.0
C      1  0.5670230000000  0.4253590000000  0.4322940000000 1.0
C      1  0.5551330000000  0.5119920000000  0.4691950000000 1.0
C      1  0.5517410000000  0.4479600000000  0.4162020000000 1.0
C      1  0.4005010000000  0.5520260000000  0.4683240000000 1.0
C      1  0.5230430000000  0.5251860000000  0.5053810000000 1.0
C      1  0.5015940000000  0.5128140000000  0.4709970000000 1.0
C      1  0.5016620000000  0.4080710000000  0.5485650000000 1.0
C      1  0.4033720000000  0.5143140000000  0.4375610000000 1.0
C      1  0.4035730000000  0.5432510000000  0.5069680000000 1.0
C      1  0.5033820000000  0.3858860000000  0.5235610000000 1.0
C      1  0.5198620000000  0.5702060000000  0.5758520000000 1.0
C      1  0.4845160000000  0.5965360000000  0.5000930000000 1.0
C      1  0.5570650000000  0.4844560000000  0.5585060000000 1.0
C      1  0.5058020000000  0.4916380000000  0.6051180000000 1.0
C      1  0.5347830000000  0.5007330000000  0.6057250000000 1.0
C      1  0.4369200000000  0.4743360000000  0.4716000000000 1.0
C      1  0.5751410000000  0.3935290000000  0.4969430000000 1.0
C      1  0.5382790000000  0.5859470000000  0.5579780000000 1.0
C      1  0.5578720000000  0.5904000000000  0.4566900000000 1.0
C      1  0.5217920000000  0.4179350000000  0.4013350000000 1.0
C      1  0.5738420000000  0.5463470000000  0.5218710000000 1.0
C      1  0.4302390000000  0.4236530000000  0.5366370000000 1.0
C      1  0.5641230000000  0.4554480000000  0.5750830000000 1.0
C      1  0.5340880000000  0.6031990000000  0.5119530000000 1.0
C      1  0.5954340000000  0.5496740000000  0.4785220000000 1.0
C      1  0.4481240000000  0.5948270000000  0.5299690000000 1.0
C      1  0.5396450000000  0.4808380000000  0.4348090000000 1.0
C      1  0.5823460000000  0.4354410000000  0.5336570000000 1.0
C      1  0.4978800000000  0.4954360000000  0.4975210000000 1.0
C      1  0.5453760000000  0.4769600000000  0.4013550000000 1.0
C      1  0.3932270000000  0.4982460000000  0.4844990000000 1.0
C      1  0.4124520000000  0.4634520000000  0.4426520000000 1.0
C      1  0.4753360000000  0.6025640000000  0.5253090000000 1.0
C      1  0.4371390000000  0.4782640000000  0.5452200000000 1.0
C      1  0.5537570000000  0.4633560000000  0.5319220000000 1.0
C      1  0.5773900000000  0.5737880000000  0.4426690000000 1.0
C      1  0.5930400000000  0.5558410000000  0.5459510000000 1.0
C      1  0.4294980000000  0.5320250000000  0.4329370000000 1.0
C      1  0.5664010000000  0.4575790000000  0.4791270000000 1.0
C      1  0.4934330000000  0.4198920000000  0.5748360000000 1.0
C      1  0.4402510000000  0.5881760000000  0.4752370000000 1.0
C      1  0.4399080000000  0.4656570000000  0.5751700000000 1.0
C      1  0.5018230000000  0.5719790000000  0.4739420000000 1.0
C      1  0.5991500000000  0.4783000000000  0.5396100000000 1.0
C      1  0.5211990000000  0.4721340000000  0.5009230000000 1.0
C      1  0.4427740000000  0.4495930000000  0.4507640000000 1.0
C      1  0.4821900000000  0.5341870000000  0.4521360000000 1.0
C      1  0.5156860000000  0.4430000000000  0.4899110000000 1.0
C      1  0.4375890000000  0.5542990000000  0.4543100000000 1.0
C      1  0.4822580000000  0.5316830000000  0.5383950000000 1.0
C      1  0.4463190000000  0.4825480000000  0.5003950000000 1.0
C      1  0.4893230000000  0.4689710000000  0.4296110000000 1.0
C      1  0.4625720000000  0.5743420000000  0.5735510000000 1.0
C      1  0.5476200000000  0.5418660000000  0.4089660000000 1.0
C      1  0.4208100000000  0.4909880000000  0.5793650000000 1.0
C      1  0.4558730000000  0.4262520000000  0.4305860000000 1.0
C      1  0.4598840000000  0.4852940000000  0.5947860000000 1.0
C      1  0.4437300000000  0.4580380000000  0.5218140000000 1.0
C      1  0.4606450000000  0.5495840000000  0.5861520000000 1.0
C      1  0.4832840000000  0.4570840000000  0.5250950000000 1.0
C      1  0.4578010000000  0.4280060000000  0.4723840000000 1.0
C      1  0.5994740000000  0.5040940000000  0.5528960000000 1.0
C      1  0.5259880000000  0.4604540000000  0.5513890000000 1.0
C      1  0.4492480000000  0.5278100000000  0.5366810000000 1.0
C      1  0.5977580000000  0.5184260000000  0.5066450000000 1.0
C      1  0.5681440000000  0.4866930000000  0.4520360000000 1.0
C      1  0.5315480000000  0.5049190000000  0.5613290000000 1.0
C      1  0.5785150000000  0.5605660000000  0.4970420000000 1.0
C      1  0.4915050000000  0.5826290000000  0.5674390000000 1.0
C      1  0.5232290000000  0.6029480000000  0.5389690000000 1.0
C      1  0.4757240000000  0.5511030000000  0.4010690000000 1.0
C      1  0.4942370000000  0.5729800000000  0.4161420000000 1.0
C      1  0.5770930000000  0.5250440000000  0.4460360000000 1.0
C      1  0.5322160000000  0.4423520000000  0.4419410000000 1.0
C      1  0.3923610000000  0.4833820000000  0.5140570000000 1.0
C      1  0.4823190000000  0.4361380000000  0.4910850000000 1.0
C      1  0.5161760000000  0.5497700000000  0.4040800000000 1.0
C      1  0.4266440000000  0.5174080000000  0.5579300000000 1.0
C      1  0.4231880000000  0.5323300000000  0.4842450000000 1.0
C      1  0.5246820000000  0.5173070000000  0.4299540000000 1.0
C      1  0.4973620000000  0.5135560000000  0.4310670000000 1.0
C      1  0.4859780000000  0.4619560000000  0.5521620000000 1.0
C      1  0.5317710000000  0.4159170000000  0.4814060000000 1.0
C      1  0.4694800000000  0.5739310000000  0.4851030000000 1.0
C      1  0.6009740000000  0.5668670000000  0.4569840000000 1.0
C      1  0.4602770000000  0.4994220000000  0.5469730000000 1.0
C      1  0.4904570000000  0.5505330000000  0.5575870000000 1.0
C      1  0.5476470000000  0.5087140000000  0.4073120000000 1.0
C      1  0.4113540000000  0.4522010000000  0.4751790000000 1.0
C      1  0.4656440000000  0.4321000000000  0.5184490000000 1.0
C      1  0.5375150000000  0.5308400000000  0.4516750000000 1.0
C      1  0.4412050000000  0.4362180000000  0.5581320000000 1.0
C      1  0.4710270000000  0.4409570000000  0.5708010000000 1.0
C      1  0.4796140000000  0.4825930000000  0.4572510000000 1.0
C      1  0.5165530000000  0.4663740000000  0.4141290000000 1.0
C      1  0.4725920000000  0.5636640000000  0.4387040000000 1.0
C      1  0.4953450000000  0.6024930000000  0.5452760000000 1.0
C      1  0.5365990000000  0.4580520000000  0.4673180000000 1.0
C      1  0.4844440000000  0.5345250000000  0.5937340000000 1.0
C      1  0.5446410000000  0.5465920000000  0.5552850000000 1.0
C      1  0.5269830000000  0.4682560000000  0.5810130000000 1.0
C      1  0.4319000000000  0.5867510000000  0.5078150000000 1.0
C      1  0.5723880000000  0.5563580000000  0.5711790000000 1.0
C      1  0.4432060000000  0.5864430000000  0.5568110000000 1.0
C      1  0.5241230000000  0.5648430000000  0.5093740000000 1.0
C      1  0.4861500000000  0.4552830000000  0.4664910000000 1.0
C      1  0.3854770000000  0.5193520000000  0.5094920000000 1.0
C      1  0.5942420000000  0.5167610000000  0.4742470000000 1.0
C      1  0.4648610000000  0.3978640000000  0.4473050000000 1.0
C      1  0.5528490000000  0.4784240000000  0.5974770000000 1.0
C      1  0.5646430000000  0.4437240000000  0.5085950000000 1.0
C      1  0.5012600000000  0.5122770000000  0.5271540000000 1.0
C      1  0.4724970000000  0.4403580000000  0.4080760000000 1.0
C      1  0.4102420000000  0.5688210000000  0.5136850000000 1.0
C      1  0.4247450000000  0.4259270000000  0.4809430000000 1.0
C      1  0.5409510000000  0.5099670000000  0.5297760000000 1.0
C      1  0.4828590000000  0.5009540000000  0.4067340000000 1.0
C      1  0.5656660000000  0.5286840000000  0.5838020000000 1.0
C      1  0.5000210000000  0.4389680000000  0.4425690000000 1.0
C      1  0.4499780000000  0.5498680000000  0.4178020000000 1.0
C      1  0.4840550000000  0.4898920000000  0.5581900000000 1.0
C      1  0.5089910000000  0.5421490000000  0.4806560000000 1.0
C      1  0.5061990000000  0.5012120000000  0.5727520000000 1.0
C      1  0.5765670000000  0.5067030000000  0.5698030000000 1.0
C      1  0.5688860000000  0.5168690000000  0.5224600000000 1.0
C      1  0.3809670000000  0.5099520000000  0.5391680000000 1.0
C      1  0.4634470000000  0.3890150000000  0.4804530000000 1.0
C      1  0.5343510000000  0.5584050000000  0.4547380000000 1.0
C      1  0.4147820000000  0.5763490000000  0.4586560000000 1.0
C      1  0.4314810000000  0.4134080000000  0.5094460000000 1.0
C      1  0.5412870000000  0.4097220000000  0.4210200000000 1.0
C      1  0.4252410000000  0.5025690000000  0.4826700000000 1.0
C      1  0.5871170000000  0.4552250000000  0.5522060000000 1.0
C      1  0.4086990000000  0.4932140000000  0.5419750000000 1.0
C      1  0.5667960000000  0.5781110000000  0.5447930000000 1.0
C      1  0.4657590000000  0.5062880000000  0.4544690000000 1.0
C      1  0.4508060000000  0.5471240000000  0.4840090000000 1.0
C      1  0.5613050000000  0.4190370000000  0.4876480000000 1.0
C      1  0.4651020000000  0.5446060000000  0.5118960000000 1.0
C      1  0.5301210000000  0.4067360000000  0.5208800000000 1.0
C      1  0.5141860000000  0.6007760000000  0.4889330000000 1.0
C      1  0.5858350000000  0.4844470000000  0.4811210000000 1.0
C      1  0.5437180000000  0.5745010000000  0.4832480000000 1.0
C      1  0.5596260000000  0.5829880000000  0.5125170000000 1.0
END
