TITL C-2778428-5639-978 0.00154320466686153 125000 -543.247575293957 0 0 94 (C1) n - 1
REM
REM in /home/nfs/bkarasulu/CARBON/AIRSS/Generating-Clusters/REBO/Only-C1/SD-CG/HFTN-CG
REM
REM
REM
REM
REM
REM ./C.cell (11c1c37f851c82e70ff6c80c92926a4b)
REM
REM compiler GCC version 9.2.1 20190827 (Red Hat 9.2.1-1)
REM options -cpp -mtune=generic -march=x86-64 -g -O0 -fpre-include=/usr/include/finclude/math-vector-fortran.h
REM seed 1852026593 -150837508 -1635235549 -1511774871 -450208670 -1350846147 -543358394 -111832789 1056974567 -665474236 1481350575 842572249 -1761858175 -2028382495 -1392468954 809473925 -1394288720 -1698269069 -1087524153 -1850164407 23720445 1729100023 -1903668279 -1899257747 1556394814 -1009864712 454046510 1162061931 -1651974304 -176335928 451007090 -1316097226 529316982
REM
CELL 1.54180   50.00000   50.00000   50.00000   90.00000   90.00000   90.00000
LATT -1
SFAC C  
C      1  0.4253080000000  0.5614130000000  0.5282680000000 1.0
C      1  0.5039260000000  0.5247090000000  0.5018970000000 1.0
C      1  0.4274710000000  0.4846760000000  0.4630040000000 1.0
C      1  0.4655780000000  0.5441830000000  0.5885140000000 1.0
C      1  0.4217470000000  0.5103320000000  0.5232340000000 1.0
C      1  0.5664410000000  0.4497470000000  0.4868720000000 1.0
C      1  0.4667200000000  0.4913470000000  0.4637260000000 1.0
C      1  0.3862440000000  0.4548900000000  0.5200800000000 1.0
C      1  0.4122800000000  0.5146870000000  0.5483940000000 1.0
C      1  0.5404030000000  0.4916210000000  0.5193120000000 1.0
C      1  0.4539620000000  0.4857750000000  0.4928410000000 1.0
C      1  0.4459500000000  0.4766480000000  0.4411120000000 1.0
C      1  0.5157290000000  0.4023000000000  0.4704840000000 1.0
C      1  0.4427180000000  0.5497250000000  0.4726000000000 1.0
C      1  0.4942010000000  0.5658760000000  0.5527370000000 1.0
C      1  0.5138230000000  0.4578230000000  0.5575020000000 1.0
C      1  0.5468610000000  0.5559340000000  0.5649360000000 1.0
C      1  0.4731300000000  0.5616010000000  0.5344470000000 1.0
C      1  0.5596860000000  0.4339310000000  0.5092200000000 1.0
C      1  0.4781360000000  0.4447210000000  0.4982530000000 1.0
C      1  0.5344460000000  0.5111680000000  0.4361870000000 1.0
C      1  0.4489520000000  0.4404610000000  0.4809470000000 1.0
C      1  0.4739010000000  0.4173220000000  0.4794950000000 1.0
C      1  0.4940080000000  0.5441860000000  0.5776550000000 1.0
C      1  0.5546860000000  0.5245610000000  0.4829970000000 1.0
C      1  0.5717490000000  0.4972290000000  0.4728550000000 1.0
C      1  0.4810030000000  0.5508000000000  0.5046150000000 1.0
C      1  0.5632330000000  0.4642850000000  0.5535240000000 1.0
C      1  0.4571030000000  0.5639630000000  0.4147360000000 1.0
C      1  0.4064520000000  0.4591200000000  0.5050810000000 1.0
C      1  0.4895290000000  0.4921700000000  0.5846030000000 1.0
C      1  0.5278650000000  0.4635030000000  0.4237890000000 1.0
C      1  0.4471520000000  0.5576150000000  0.5441200000000 1.0
C      1  0.5405190000000  0.5865370000000  0.5173260000000 1.0
C      1  0.5584110000000  0.5249240000000  0.5316020000000 1.0
C      1  0.5589950000000  0.5540930000000  0.4793880000000 1.0
C      1  0.4832530000000  0.5119580000000  0.5364550000000 1.0
C      1  0.5178310000000  0.5742750000000  0.5396530000000 1.0
C      1  0.5128860000000  0.5173510000000  0.5453310000000 1.0
C      1  0.4923900000000  0.4203430000000  0.4537190000000 1.0
C      1  0.5022630000000  0.4914850000000  0.5078620000000 1.0
C      1  0.4873390000000  0.4735520000000  0.5626560000000 1.0
C      1  0.4697980000000  0.3897090000000  0.4905350000000 1.0
C      1  0.5219650000000  0.4346870000000  0.4624950000000 1.0
C      1  0.4663110000000  0.3662350000000  0.4999200000000 1.0
C      1  0.5073710000000  0.5137310000000  0.5843820000000 1.0
C      1  0.4302100000000  0.4640940000000  0.4874470000000 1.0
C      1  0.5443990000000  0.5627940000000  0.4512930000000 1.0
C      1  0.4647940000000  0.5239900000000  0.4662810000000 1.0
C      1  0.4845410000000  0.5669190000000  0.4554000000000 1.0
C      1  0.5359790000000  0.5199330000000  0.5077510000000 1.0
C      1  0.4806120000000  0.4556970000000  0.4201870000000 1.0
C      1  0.4955840000000  0.5327580000000  0.4721580000000 1.0
C      1  0.5217540000000  0.3968150000000  0.4968840000000 1.0
C      1  0.5166020000000  0.4842670000000  0.5375930000000 1.0
C      1  0.4686990000000  0.5618230000000  0.4785950000000 1.0
C      1  0.5172320000000  0.5584960000000  0.5131040000000 1.0
C      1  0.4214070000000  0.5278510000000  0.5707400000000 1.0
C      1  0.5388470000000  0.4737390000000  0.5690300000000 1.0
C      1  0.5080780000000  0.4342210000000  0.4932420000000 1.0
C      1  0.5352310000000  0.5047900000000  0.5681340000000 1.0
C      1  0.4901930000000  0.5293780000000  0.4250320000000 1.0
C      1  0.4726360000000  0.4348880000000  0.4359510000000 1.0
C      1  0.5535690000000  0.5537570000000  0.4274630000000 1.0
C      1  0.4327410000000  0.5116590000000  0.4694980000000 1.0
C      1  0.5143610000000  0.4909920000000  0.4774400000000 1.0
C      1  0.5638370000000  0.4984410000000  0.5505240000000 1.0
C      1  0.5025130000000  0.4760970000000  0.4279540000000 1.0
C      1  0.5261810000000  0.4331930000000  0.5450660000000 1.0
C      1  0.5138610000000  0.5599740000000  0.4625930000000 1.0
C      1  0.5557460000000  0.4407660000000  0.5384580000000 1.0
C      1  0.5246940000000  0.5426040000000  0.5630600000000 1.0
C      1  0.4453860000000  0.5107290000000  0.5079770000000 1.0
C      1  0.4483760000000  0.4356300000000  0.4489600000000 1.0
C      1  0.5558450000000  0.5256910000000  0.4238680000000 1.0
C      1  0.4615340000000  0.5404750000000  0.6156380000000 1.0
C      1  0.5316250000000  0.5716300000000  0.4876350000000 1.0
C      1  0.5291920000000  0.4225130000000  0.5148750000000 1.0
C      1  0.4954300000000  0.4844750000000  0.4578980000000 1.0
C      1  0.5506120000000  0.4453240000000  0.4633930000000 1.0
C      1  0.5816100000000  0.5137070000000  0.4261350000000 1.0
C      1  0.4154030000000  0.5365540000000  0.4753440000000 1.0
C      1  0.4768160000000  0.5540170000000  0.4305990000000 1.0
C      1  0.5695170000000  0.4840050000000  0.5196500000000 1.0
C      1  0.5760060000000  0.4758230000000  0.4934260000000 1.0
C      1  0.4442250000000  0.5449240000000  0.5697330000000 1.0
C      1  0.4767300000000  0.4843020000000  0.5388830000000 1.0
C      1  0.4674820000000  0.5254450000000  0.5183340000000 1.0
C      1  0.5718710000000  0.5484510000000  0.5282500000000 1.0
C      1  0.5648470000000  0.5670680000000  0.5090440000000 1.0
C      1  0.4758860000000  0.4723350000000  0.5093060000000 1.0
C      1  0.5903600000000  0.5008780000000  0.4487060000000 1.0
C      1  0.5074500000000  0.5074000000000  0.4274210000000 1.0
C      1  0.5397710000000  0.5014880000000  0.4646800000000 1.0
END
