TITL C-2778432-5617-928 -0.00032740721927739 125000 -641.79265913878 0 0 112 (C1) n - 1
REM
REM in /home/nfs/bkarasulu/CARBON/AIRSS/Generating-Clusters/REBO/Only-C1/SD-CG/HFTN-CG
REM
REM
REM
REM
REM
REM ./C.cell (11c1c37f851c82e70ff6c80c92926a4b)
REM
REM compiler GCC version 9.2.1 20190827 (Red Hat 9.2.1-1)
REM options -cpp -mtune=generic -march=x86-64 -g -O0 -fpre-include=/usr/include/finclude/math-vector-fortran.h
REM seed 2077530056 1955704768 -2078294541 1100036453 1552540767 303811644 862326673 -1448143771 -1766594596 -1568919766 -660275629 913621098 -1365358365 -1518340092 1611693349 -448915804 1902251937 -211426287 81362773 786668650 882398416 27793734 1896812656 1766417833 -1395894604 -139232854 -2139053927 1784920606 -1381258343 1954598044 305487902 230146223 -1387273475
REM
CELL 1.54180   50.00000   50.00000   50.00000   90.00000   90.00000   90.00000
LATT -1
SFAC C  
C      1  0.4188350000000  0.4771260000000  0.5341770000000 1.0
C      1  0.4113750000000  0.4720560000000  0.5024200000000 1.0
C      1  0.5497680000000  0.4814610000000  0.4345410000000 1.0
C      1  0.4773150000000  0.5622620000000  0.5220100000000 1.0
C      1  0.5018260000000  0.5518050000000  0.4285980000000 1.0
C      1  0.4390300000000  0.5382480000000  0.5441710000000 1.0
C      1  0.5001640000000  0.5348600000000  0.4563410000000 1.0
C      1  0.5515110000000  0.4954450000000  0.5156630000000 1.0
C      1  0.5233330000000  0.4921840000000  0.4158230000000 1.0
C      1  0.5049320000000  0.5894610000000  0.5307680000000 1.0
C      1  0.5478670000000  0.5172420000000  0.4517690000000 1.0
C      1  0.4142330000000  0.5182660000000  0.4705910000000 1.0
C      1  0.4465820000000  0.5564360000000  0.5190380000000 1.0
C      1  0.4345430000000  0.4473360000000  0.5413380000000 1.0
C      1  0.4848460000000  0.4216500000000  0.4649850000000 1.0
C      1  0.5122540000000  0.5599190000000  0.4846600000000 1.0
C      1  0.4644180000000  0.5890450000000  0.4847590000000 1.0
C      1  0.4973440000000  0.5294440000000  0.4871990000000 1.0
C      1  0.4391690000000  0.5412030000000  0.4917910000000 1.0
C      1  0.5057380000000  0.4798210000000  0.5909760000000 1.0
C      1  0.5793320000000  0.5538800000000  0.4587980000000 1.0
C      1  0.5706560000000  0.4944610000000  0.4586100000000 1.0
C      1  0.5790650000000  0.4674870000000  0.5109560000000 1.0
C      1  0.5042450000000  0.5292740000000  0.5852650000000 1.0
C      1  0.5971110000000  0.4503100000000  0.4692810000000 1.0
C      1  0.5784620000000  0.5419240000000  0.5318990000000 1.0
C      1  0.4581610000000  0.5053660000000  0.4094710000000 1.0
C      1  0.4787920000000  0.4427560000000  0.4418320000000 1.0
C      1  0.4886260000000  0.4649540000000  0.4656390000000 1.0
C      1  0.5334200000000  0.4942860000000  0.4729880000000 1.0
C      1  0.4737790000000  0.5088690000000  0.4989760000000 1.0
C      1  0.4217230000000  0.5384610000000  0.4516740000000 1.0
C      1  0.5032630000000  0.4516210000000  0.4882060000000 1.0
C      1  0.5527360000000  0.4763560000000  0.4893690000000 1.0
C      1  0.5113980000000  0.4763560000000  0.5076470000000 1.0
C      1  0.4470560000000  0.4516380000000  0.4642090000000 1.0
C      1  0.5641910000000  0.4513950000000  0.4700600000000 1.0
C      1  0.5183740000000  0.5131850000000  0.4415410000000 1.0
C      1  0.4720940000000  0.4651590000000  0.5577070000000 1.0
C      1  0.5512870000000  0.4534230000000  0.4432040000000 1.0
C      1  0.5183060000000  0.4197660000000  0.4695860000000 1.0
C      1  0.4450770000000  0.4897360000000  0.4324640000000 1.0
C      1  0.5583220000000  0.4487040000000  0.5393160000000 1.0
C      1  0.4244350000000  0.4890630000000  0.4792010000000 1.0
C      1  0.5281810000000  0.4372880000000  0.4420600000000 1.0
C      1  0.5571320000000  0.4415400000000  0.5081730000000 1.0
C      1  0.5427790000000  0.5478320000000  0.5370020000000 1.0
C      1  0.4874830000000  0.4738760000000  0.5315850000000 1.0
C      1  0.4585590000000  0.5037430000000  0.4584360000000 1.0
C      1  0.5032500000000  0.4197500000000  0.5003230000000 1.0
C      1  0.4602560000000  0.5146440000000  0.5530990000000 1.0
C      1  0.4605860000000  0.5012280000000  0.5842130000000 1.0
C      1  0.5276300000000  0.4654610000000  0.5797410000000 1.0
C      1  0.5147930000000  0.5659650000000  0.5733580000000 1.0
C      1  0.5783400000000  0.5144020000000  0.5137250000000 1.0
C      1  0.5558860000000  0.5468350000000  0.4992730000000 1.0
C      1  0.5397440000000  0.5247200000000  0.5145720000000 1.0
C      1  0.4200790000000  0.5194850000000  0.5041380000000 1.0
C      1  0.4412320000000  0.4200500000000  0.4949540000000 1.0
C      1  0.4499160000000  0.4842320000000  0.5398070000000 1.0
C      1  0.5181090000000  0.5077860000000  0.4976100000000 1.0
C      1  0.5548930000000  0.4729120000000  0.5708740000000 1.0
C      1  0.4984960000000  0.5381960000000  0.4074210000000 1.0
C      1  0.4673340000000  0.4831190000000  0.4782250000000 1.0
C      1  0.5440800000000  0.4318050000000  0.4851560000000 1.0
C      1  0.5261600000000  0.4546850000000  0.5296880000000 1.0
C      1  0.5913220000000  0.4785330000000  0.4809960000000 1.0
C      1  0.4825270000000  0.5042900000000  0.5288490000000 1.0
C      1  0.4562910000000  0.4569760000000  0.4946620000000 1.0
C      1  0.5745770000000  0.4781540000000  0.5432840000000 1.0
C      1  0.4571190000000  0.4294560000000  0.5481080000000 1.0
C      1  0.4791960000000  0.5204840000000  0.4388460000000 1.0
C      1  0.4473060000000  0.5301860000000  0.4307560000000 1.0
C      1  0.4206100000000  0.5110750000000  0.5357750000000 1.0
C      1  0.4750930000000  0.5781490000000  0.4600350000000 1.0
C      1  0.5328470000000  0.5847040000000  0.5229100000000 1.0
C      1  0.5108160000000  0.4821770000000  0.4514700000000 1.0
C      1  0.4436750000000  0.4950040000000  0.5078140000000 1.0
C      1  0.5031860000000  0.5750730000000  0.4624240000000 1.0
C      1  0.5458980000000  0.5197390000000  0.5650820000000 1.0
C      1  0.4376200000000  0.5746760000000  0.4915510000000 1.0
C      1  0.5629990000000  0.5721600000000  0.5292400000000 1.0
C      1  0.4613240000000  0.5553610000000  0.4493420000000 1.0
C      1  0.4674410000000  0.5552810000000  0.5529940000000 1.0
C      1  0.4639150000000  0.4150960000000  0.4808380000000 1.0
C      1  0.5355240000000  0.5481420000000  0.5671420000000 1.0
C      1  0.4886870000000  0.4364480000000  0.5584510000000 1.0
C      1  0.5360860000000  0.5677370000000  0.4980370000000 1.0
C      1  0.4948300000000  0.5756320000000  0.5552500000000 1.0
C      1  0.4779330000000  0.4204910000000  0.5235900000000 1.0
C      1  0.4227710000000  0.5638180000000  0.4632360000000 1.0
C      1  0.5718070000000  0.5119290000000  0.5473300000000 1.0
C      1  0.5035090000000  0.5459140000000  0.5300060000000 1.0
C      1  0.5870890000000  0.5109500000000  0.4837170000000 1.0
C      1  0.5194520000000  0.4399520000000  0.5693620000000 1.0
C      1  0.5089530000000  0.4313580000000  0.5318000000000 1.0
C      1  0.5247840000000  0.5046550000000  0.5528270000000 1.0
C      1  0.5356510000000  0.4834940000000  0.5379400000000 1.0
C      1  0.5785420000000  0.5413700000000  0.4842180000000 1.0
C      1  0.4845270000000  0.5331080000000  0.5691140000000 1.0
C      1  0.5068850000000  0.4543480000000  0.4323250000000 1.0
C      1  0.5059740000000  0.5202060000000  0.5379590000000 1.0
C      1  0.4832270000000  0.5892080000000  0.5069350000000 1.0
C      1  0.4782850000000  0.4799610000000  0.5836780000000 1.0
C      1  0.4808260000000  0.4508250000000  0.5110770000000 1.0
C      1  0.4299270000000  0.4472910000000  0.5100640000000 1.0
C      1  0.4330460000000  0.4733490000000  0.4546560000000 1.0
C      1  0.4571380000000  0.4401850000000  0.4252910000000 1.0
C      1  0.5612190000000  0.5428720000000  0.4413280000000 1.0
C      1  0.4924100000000  0.5060140000000  0.4109570000000 1.0
C      1  0.4568190000000  0.5327480000000  0.4695220000000 1.0
C      1  0.5404250000000  0.4281650000000  0.5562580000000 1.0
END
