TITL C-2778435-5768-682 -0.00452504152604599 125000 -1028.80510423266 0 0 177 (C1) n - 1
REM
REM in /home/nfs/bkarasulu/CARBON/AIRSS/Generating-Clusters/REBO/Only-C1/SD-CG/HFTN-CG
REM
REM
REM
REM
REM
REM ./C.cell (11c1c37f851c82e70ff6c80c92926a4b)
REM
REM compiler GCC version 9.2.1 20190827 (Red Hat 9.2.1-1)
REM options -cpp -mtune=generic -march=x86-64 -g -O0 -fpre-include=/usr/include/finclude/math-vector-fortran.h
REM seed 1931509252 2083553460 -1300664891 -1221842681 778723632 272426249 -552025904 166702625 -1263593013 1753144182 -1663817209 -2113296429 2036428219 -1189329561 154879034 1107395904 -1287580731 991044307 1276785513 1795224800 720314088 251252266 -458517492 -791813992 -1724185156 812188412 -259100688 -1751922743 96579581 -1421348852 1551203419 -2023586454 1782388291
REM
CELL 1.54180   50.00000   50.00000   50.00000   90.00000   90.00000   90.00000
LATT -1
SFAC C  
C      1  0.5545630000000  0.5394120000000  0.4887020000000 1.0
C      1  0.5449090000000  0.5542170000000  0.4271780000000 1.0
C      1  0.5444310000000  0.5885260000000  0.4651540000000 1.0
C      1  0.4502690000000  0.5182920000000  0.4908030000000 1.0
C      1  0.5875160000000  0.5581170000000  0.5214930000000 1.0
C      1  0.4352150000000  0.5442110000000  0.3997890000000 1.0
C      1  0.5646030000000  0.5419410000000  0.5698590000000 1.0
C      1  0.4429920000000  0.5489080000000  0.4792130000000 1.0
C      1  0.4870490000000  0.5750060000000  0.5529990000000 1.0
C      1  0.5352600000000  0.4424140000000  0.4258950000000 1.0
C      1  0.4019110000000  0.4970040000000  0.4939030000000 1.0
C      1  0.5975000000000  0.4965670000000  0.4831480000000 1.0
C      1  0.5467480000000  0.5930460000000  0.5183090000000 1.0
C      1  0.5165410000000  0.4627430000000  0.6077390000000 1.0
C      1  0.4959510000000  0.4826430000000  0.5107490000000 1.0
C      1  0.5836840000000  0.5317100000000  0.5044850000000 1.0
C      1  0.4909850000000  0.3891180000000  0.4941490000000 1.0
C      1  0.4072910000000  0.5363150000000  0.4405670000000 1.0
C      1  0.4385400000000  0.4880860000000  0.5331040000000 1.0
C      1  0.5892060000000  0.4306160000000  0.5458640000000 1.0
C      1  0.5323610000000  0.4961290000000  0.4330080000000 1.0
C      1  0.5568990000000  0.4801780000000  0.4185740000000 1.0
C      1  0.4130540000000  0.5317620000000  0.5227000000000 1.0
C      1  0.5470240000000  0.5726140000000  0.5433010000000 1.0
C      1  0.5287360000000  0.4721060000000  0.4013080000000 1.0
C      1  0.4863930000000  0.5222540000000  0.5489560000000 1.0
C      1  0.5098640000000  0.5570430000000  0.4812650000000 1.0
C      1  0.4984960000000  0.4920900000000  0.5719010000000 1.0
C      1  0.4704770000000  0.5984430000000  0.5020280000000 1.0
C      1  0.4489960000000  0.4457640000000  0.4983100000000 1.0
C      1  0.5465100000000  0.5290260000000  0.4153690000000 1.0
C      1  0.5236910000000  0.4074410000000  0.4560850000000 1.0
C      1  0.4960040000000  0.4890270000000  0.6035020000000 1.0
C      1  0.5218510000000  0.4657630000000  0.5247230000000 1.0
C      1  0.5770790000000  0.4915240000000  0.5022990000000 1.0
C      1  0.4671100000000  0.4687760000000  0.5342430000000 1.0
C      1  0.5171030000000  0.4985270000000  0.3827470000000 1.0
C      1  0.5526780000000  0.4227300000000  0.4557600000000 1.0
C      1  0.5154580000000  0.6074820000000  0.5007530000000 1.0
C      1  0.4378880000000  0.4950310000000  0.3839520000000 1.0
C      1  0.5512300000000  0.5070090000000  0.6010930000000 1.0
C      1  0.4548490000000  0.5114730000000  0.4319670000000 1.0
C      1  0.5315710000000  0.5465470000000  0.5691490000000 1.0
C      1  0.4405810000000  0.5353310000000  0.4487240000000 1.0
C      1  0.5128010000000  0.5763040000000  0.5061690000000 1.0
C      1  0.4845590000000  0.5431270000000  0.4542280000000 1.0
C      1  0.4908220000000  0.5493310000000  0.4156830000000 1.0
C      1  0.4879910000000  0.5667240000000  0.5235500000000 1.0
C      1  0.4588960000000  0.5641710000000  0.5184270000000 1.0
C      1  0.5937210000000  0.4542830000000  0.5385370000000 1.0
C      1  0.5629600000000  0.4439540000000  0.4361270000000 1.0
C      1  0.4483660000000  0.5736970000000  0.4560810000000 1.0
C      1  0.4512460000000  0.4850160000000  0.4459070000000 1.0
C      1  0.6005080000000  0.4976850000000  0.5448980000000 1.0
C      1  0.5481070000000  0.4112890000000  0.5148070000000 1.0
C      1  0.6088690000000  0.5148370000000  0.5167470000000 1.0
C      1  0.5468530000000  0.4811490000000  0.5387170000000 1.0
C      1  0.4795640000000  0.5701980000000  0.4847900000000 1.0
C      1  0.6072990000000  0.4626130000000  0.5018750000000 1.0
C      1  0.5164070000000  0.5191870000000  0.5628170000000 1.0
C      1  0.4895300000000  0.4945160000000  0.4509740000000 1.0
C      1  0.4935320000000  0.4113750000000  0.4722460000000 1.0
C      1  0.4434520000000  0.5349970000000  0.5799400000000 1.0
C      1  0.4557150000000  0.4685800000000  0.5811040000000 1.0
C      1  0.5672440000000  0.5123610000000  0.4223460000000 1.0
C      1  0.5153960000000  0.4772690000000  0.4534830000000 1.0
C      1  0.4546720000000  0.4334300000000  0.5478600000000 1.0
C      1  0.5346740000000  0.4028590000000  0.4876370000000 1.0
C      1  0.5271510000000  0.4360760000000  0.4834910000000 1.0
C      1  0.6127070000000  0.4827390000000  0.5181390000000 1.0
C      1  0.5871530000000  0.5454720000000  0.4668180000000 1.0
C      1  0.4834660000000  0.5176600000000  0.4695540000000 1.0
C      1  0.5010610000000  0.4393960000000  0.5012640000000 1.0
C      1  0.4680320000000  0.4724640000000  0.5015530000000 1.0
C      1  0.5207690000000  0.5931170000000  0.5414040000000 1.0
C      1  0.5597780000000  0.5870750000000  0.4923830000000 1.0
C      1  0.4113730000000  0.5076630000000  0.4283600000000 1.0
C      1  0.5946540000000  0.4386520000000  0.4871260000000 1.0
C      1  0.4155430000000  0.5657170000000  0.4556210000000 1.0
C      1  0.5190620000000  0.5762780000000  0.4478860000000 1.0
C      1  0.4134390000000  0.4544950000000  0.4826320000000 1.0
C      1  0.5192510000000  0.4385290000000  0.5974260000000 1.0
C      1  0.4290720000000  0.5573620000000  0.4250980000000 1.0
C      1  0.6105790000000  0.4282240000000  0.4666350000000 1.0
C      1  0.5445870000000  0.4684210000000  0.4992870000000 1.0
C      1  0.5898190000000  0.4935700000000  0.4565880000000 1.0
C      1  0.5839010000000  0.5191890000000  0.4449020000000 1.0
C      1  0.5170650000000  0.4465950000000  0.4542610000000 1.0
C      1  0.4283910000000  0.5062560000000  0.5095040000000 1.0
C      1  0.5185540000000  0.6074940000000  0.4720660000000 1.0
C      1  0.4446730000000  0.5378830000000  0.5303930000000 1.0
C      1  0.5823710000000  0.4947810000000  0.5663400000000 1.0
C      1  0.3947290000000  0.5428400000000  0.4997680000000 1.0
C      1  0.5344460000000  0.4668510000000  0.5652740000000 1.0
C      1  0.4278890000000  0.5643220000000  0.5055110000000 1.0
C      1  0.5219950000000  0.4942580000000  0.4970630000000 1.0
C      1  0.4728510000000  0.4480750000000  0.5678880000000 1.0
C      1  0.5039990000000  0.4613800000000  0.5643630000000 1.0
C      1  0.5173640000000  0.5248340000000  0.4889250000000 1.0
C      1  0.5361740000000  0.5527800000000  0.5103790000000 1.0
C      1  0.5793740000000  0.4193860000000  0.5088450000000 1.0
C      1  0.6095300000000  0.5267360000000  0.4846170000000 1.0
C      1  0.5700150000000  0.5163580000000  0.5813100000000 1.0
C      1  0.4650630000000  0.4888190000000  0.5986070000000 1.0
C      1  0.5602930000000  0.4236290000000  0.5507410000000 1.0
C      1  0.5521960000000  0.4414930000000  0.5750900000000 1.0
C      1  0.4739770000000  0.4124720000000  0.4450880000000 1.0
C      1  0.5047080000000  0.5388130000000  0.5162700000000 1.0
C      1  0.5176470000000  0.5423230000000  0.4533520000000 1.0
C      1  0.5048110000000  0.4179190000000  0.5467560000000 1.0
C      1  0.4352070000000  0.5123000000000  0.4053840000000 1.0
C      1  0.4329940000000  0.4730610000000  0.5632490000000 1.0
C      1  0.4686650000000  0.5609290000000  0.4363160000000 1.0
C      1  0.4876660000000  0.5165130000000  0.4246350000000 1.0
C      1  0.3992510000000  0.4703880000000  0.4642590000000 1.0
C      1  0.5077510000000  0.5024530000000  0.5335060000000 1.0
C      1  0.4908150000000  0.5696730000000  0.5922150000000 1.0
C      1  0.5023490000000  0.4221370000000  0.4351470000000 1.0
C      1  0.5212420000000  0.3777440000000  0.5026310000000 1.0
C      1  0.4960610000000  0.4794600000000  0.3963410000000 1.0
C      1  0.4615780000000  0.6000070000000  0.4691230000000 1.0
C      1  0.4014210000000  0.5215880000000  0.5503310000000 1.0
C      1  0.5153200000000  0.5730280000000  0.5688030000000 1.0
C      1  0.4837670000000  0.4151010000000  0.5131130000000 1.0
C      1  0.4943290000000  0.4478530000000  0.5342110000000 1.0
C      1  0.5159920000000  0.5628970000000  0.4191910000000 1.0
C      1  0.4676070000000  0.5570060000000  0.5829590000000 1.0
C      1  0.4358400000000  0.4401860000000  0.4689900000000 1.0
C      1  0.4777320000000  0.4608300000000  0.4095240000000 1.0
C      1  0.4189890000000  0.5454950000000  0.5597180000000 1.0
C      1  0.5321140000000  0.5125800000000  0.4615590000000 1.0
C      1  0.5518730000000  0.5083880000000  0.5002470000000 1.0
C      1  0.4698280000000  0.5456590000000  0.5519870000000 1.0
C      1  0.4348140000000  0.3997600000000  0.4812850000000 1.0
C      1  0.4497090000000  0.4340960000000  0.4421080000000 1.0
C      1  0.4306090000000  0.4495620000000  0.5453370000000 1.0
C      1  0.5814610000000  0.5688730000000  0.4914960000000 1.0
C      1  0.5454810000000  0.4815700000000  0.4678610000000 1.0
C      1  0.4930940000000  0.5906480000000  0.4606490000000 1.0
C      1  0.3889500000000  0.4753520000000  0.5063960000000 1.0
C      1  0.4255440000000  0.5717290000000  0.5390300000000 1.0
C      1  0.4746590000000  0.4661500000000  0.4627130000000 1.0
C      1  0.5267270000000  0.4198360000000  0.5720900000000 1.0
C      1  0.5063580000000  0.4448370000000  0.4123860000000 1.0
C      1  0.5557790000000  0.5569350000000  0.4593680000000 1.0
C      1  0.4048790000000  0.5660840000000  0.4834920000000 1.0
C      1  0.4717130000000  0.4933420000000  0.5541440000000 1.0
C      1  0.5743410000000  0.4744670000000  0.5257170000000 1.0
C      1  0.4572040000000  0.4170610000000  0.5249180000000 1.0
C      1  0.3986180000000  0.4708280000000  0.5344550000000 1.0
C      1  0.4439480000000  0.4034140000000  0.4562550000000 1.0
C      1  0.4500240000000  0.5115430000000  0.6004900000000 1.0
C      1  0.4442520000000  0.5948910000000  0.5215080000000 1.0
C      1  0.5681270000000  0.4708480000000  0.5708930000000 1.0
C      1  0.4943640000000  0.6063660000000  0.5245560000000 1.0
C      1  0.4769110000000  0.4404740000000  0.4794090000000 1.0
C      1  0.5176880000000  0.5141940000000  0.4109510000000 1.0
C      1  0.3972570000000  0.4935130000000  0.5515260000000 1.0
C      1  0.5356020000000  0.4040470000000  0.5430280000000 1.0
C      1  0.3866780000000  0.5194630000000  0.4853410000000 1.0
C      1  0.5406500000000  0.5393050000000  0.5382580000000 1.0
C      1  0.4023810000000  0.4869630000000  0.4429690000000 1.0
C      1  0.4456730000000  0.5140980000000  0.5539070000000 1.0
C      1  0.4374000000000  0.4064870000000  0.5076690000000 1.0
C      1  0.5017850000000  0.3906870000000  0.5268880000000 1.0
C      1  0.5612150000000  0.4324360000000  0.4835240000000 1.0
C      1  0.4568410000000  0.4591220000000  0.4277050000000 1.0
C      1  0.4407560000000  0.5916590000000  0.5609040000000 1.0
C      1  0.5748440000000  0.5582260000000  0.5466890000000 1.0
C      1  0.5384060000000  0.5106930000000  0.5304010000000 1.0
C      1  0.4561560000000  0.4905670000000  0.4787650000000 1.0
C      1  0.4778890000000  0.5378160000000  0.4952280000000 1.0
C      1  0.5547720000000  0.4438900000000  0.5209130000000 1.0
C      1  0.4655580000000  0.5947050000000  0.5633520000000 1.0
C      1  0.4204460000000  0.4526680000000  0.5155020000000 1.0
C      1  0.5293580000000  0.4923230000000  0.6093640000000 1.0
C      1  0.5689230000000  0.4728810000000  0.4487700000000 1.0
END
