TITL C-2778427-5640-1475 -0.133059348374666 125000 -706.590969051722 0 0 124 (C1) n - 1
REM
REM in /home/nfs/bkarasulu/CARBON/AIRSS/Generating-Clusters/REBO/Only-C1/SD-CG/HFTN-CG
REM
REM
REM
REM
REM
REM ./C.cell (11c1c37f851c82e70ff6c80c92926a4b)
REM
REM compiler GCC version 9.2.1 20190827 (Red Hat 9.2.1-1)
REM options -cpp -mtune=generic -march=x86-64 -g -O0 -fpre-include=/usr/include/finclude/math-vector-fortran.h
REM seed -1408080947 -500353851 -1979829225 -1616012165 -2017632990 1013323914 1694974985 219056039 -1276414428 821238783 -819331767 -2081406638 2051945337 -112862063 -42830268 -1688665682 485314239 808294005 -2137322699 -1914570200 777177039 -1344629493 -1957275678 -291474411 215571449 2035118363 -389326564 -1209074169 -1795352319 -137202031 1727746183 513731574 -1764722140
REM
CELL 1.54180   50.00000   50.00000   50.00000   90.00000   90.00000   90.00000
LATT -1
SFAC C  
C      1  0.5168470000000  0.4810600000000  0.4337780000000 1.0
C      1  0.4600790000000  0.4280680000000  0.5222410000000 1.0
C      1  0.4140330000000  0.4513570000000  0.5038490000000 1.0
C      1  0.5377370000000  0.4805070000000  0.4671740000000 1.0
C      1  0.5094790000000  0.5072310000000  0.4522240000000 1.0
C      1  0.5356210000000  0.5323160000000  0.4300850000000 1.0
C      1  0.4250260000000  0.5523580000000  0.4934010000000 1.0
C      1  0.5335780000000  0.5259420000000  0.6082950000000 1.0
C      1  0.4453650000000  0.5281200000000  0.5020060000000 1.0
C      1  0.4398120000000  0.5004970000000  0.4888070000000 1.0
C      1  0.5146850000000  0.5791280000000  0.5149340000000 1.0
C      1  0.5852740000000  0.4738850000000  0.4745570000000 1.0
C      1  0.4409130000000  0.4536680000000  0.4474480000000 1.0
C      1  0.4592450000000  0.5218880000000  0.5324740000000 1.0
C      1  0.5053560000000  0.4757820000000  0.4765000000000 1.0
C      1  0.3909450000000  0.4703780000000  0.4916790000000 1.0
C      1  0.5128290000000  0.4315540000000  0.5319710000000 1.0
C      1  0.5030050000000  0.5333380000000  0.5551880000000 1.0
C      1  0.4654290000000  0.5525190000000  0.5079890000000 1.0
C      1  0.4896750000000  0.5030380000000  0.4135820000000 1.0
C      1  0.5993350000000  0.5067360000000  0.5076040000000 1.0
C      1  0.5746630000000  0.5043150000000  0.5516430000000 1.0
C      1  0.5038860000000  0.4487540000000  0.4893700000000 1.0
C      1  0.4452940000000  0.5526880000000  0.4536790000000 1.0
C      1  0.4071640000000  0.5235140000000  0.4911400000000 1.0
C      1  0.5268040000000  0.4504270000000  0.4434920000000 1.0
C      1  0.5874630000000  0.5215710000000  0.5324950000000 1.0
C      1  0.5789150000000  0.5176670000000  0.4583840000000 1.0
C      1  0.4877010000000  0.5984860000000  0.5108800000000 1.0
C      1  0.5490930000000  0.5739700000000  0.4953090000000 1.0
C      1  0.4267750000000  0.4652510000000  0.4754070000000 1.0
C      1  0.5171730000000  0.4662240000000  0.6277110000000 1.0
C      1  0.4975990000000  0.5725940000000  0.5601820000000 1.0
C      1  0.4503860000000  0.5437390000000  0.6028610000000 1.0
C      1  0.5268320000000  0.4788150000000  0.5549130000000 1.0
C      1  0.4468280000000  0.5731780000000  0.4792530000000 1.0
C      1  0.4725760000000  0.4427530000000  0.5979580000000 1.0
C      1  0.5085820000000  0.5385050000000  0.5882410000000 1.0
C      1  0.5600470000000  0.5435950000000  0.4487180000000 1.0
C      1  0.4574950000000  0.5111750000000  0.4211050000000 1.0
C      1  0.4682150000000  0.5395720000000  0.5818470000000 1.0
C      1  0.4885760000000  0.5221110000000  0.4968120000000 1.0
C      1  0.4108380000000  0.5284390000000  0.5219820000000 1.0
C      1  0.4243600000000  0.5574410000000  0.5272430000000 1.0
C      1  0.5524260000000  0.5700140000000  0.5245130000000 1.0
C      1  0.4880510000000  0.4198160000000  0.5219500000000 1.0
C      1  0.4655580000000  0.4843530000000  0.4404540000000 1.0
C      1  0.4512560000000  0.5401970000000  0.4301560000000 1.0
C      1  0.5478670000000  0.5416600000000  0.5849530000000 1.0
C      1  0.4592840000000  0.4507220000000  0.5403050000000 1.0
C      1  0.4812470000000  0.4673020000000  0.5923230000000 1.0
C      1  0.4903370000000  0.5478860000000  0.4275970000000 1.0
C      1  0.5095490000000  0.4304550000000  0.4281330000000 1.0
C      1  0.5571910000000  0.5505190000000  0.4799040000000 1.0
C      1  0.5201510000000  0.5580220000000  0.4626710000000 1.0
C      1  0.5427650000000  0.4952980000000  0.4171930000000 1.0
C      1  0.4706620000000  0.5148310000000  0.4715770000000 1.0
C      1  0.5888820000000  0.4817070000000  0.5220960000000 1.0
C      1  0.4671390000000  0.5578230000000  0.4110660000000 1.0
C      1  0.4472190000000  0.5789440000000  0.5129960000000 1.0
C      1  0.4779820000000  0.4386600000000  0.4881700000000 1.0
C      1  0.5663430000000  0.5070250000000  0.4338110000000 1.0
C      1  0.4915760000000  0.4707380000000  0.4134460000000 1.0
C      1  0.4595530000000  0.4880300000000  0.5762100000000 1.0
C      1  0.4855600000000  0.5393960000000  0.5327530000000 1.0
C      1  0.5465630000000  0.5034880000000  0.5533800000000 1.0
C      1  0.4319650000000  0.4978260000000  0.4033370000000 1.0
C      1  0.4522190000000  0.4574020000000  0.5668030000000 1.0
C      1  0.5161530000000  0.5157690000000  0.4139860000000 1.0
C      1  0.5412990000000  0.4635740000000  0.4074220000000 1.0
C      1  0.4526890000000  0.5658470000000  0.5439680000000 1.0
C      1  0.4190350000000  0.5045520000000  0.5353090000000 1.0
C      1  0.5059970000000  0.5786730000000  0.4818710000000 1.0
C      1  0.5239140000000  0.4109330000000  0.4750360000000 1.0
C      1  0.5476020000000  0.4368310000000  0.4562320000000 1.0
C      1  0.4849070000000  0.5256560000000  0.4461560000000 1.0
C      1  0.5703300000000  0.5467170000000  0.5266970000000 1.0
C      1  0.5156600000000  0.4603580000000  0.5334200000000 1.0
C      1  0.5327600000000  0.4638540000000  0.5803410000000 1.0
C      1  0.5311130000000  0.5046610000000  0.4856080000000 1.0
C      1  0.5112070000000  0.4749960000000  0.6014390000000 1.0
C      1  0.5245690000000  0.5306510000000  0.4683580000000 1.0
C      1  0.5621830000000  0.4625700000000  0.4293400000000 1.0
C      1  0.5722430000000  0.4441780000000  0.5264470000000 1.0
C      1  0.4720180000000  0.5615930000000  0.5630540000000 1.0
C      1  0.5535920000000  0.4461910000000  0.5755710000000 1.0
C      1  0.5262370000000  0.5644000000000  0.5743310000000 1.0
C      1  0.5001820000000  0.4107300000000  0.4512250000000 1.0
C      1  0.4744440000000  0.4834510000000  0.4692410000000 1.0
C      1  0.5743370000000  0.5637950000000  0.4348380000000 1.0
C      1  0.4580200000000  0.4616080000000  0.4827130000000 1.0
C      1  0.4737010000000  0.5901590000000  0.4851970000000 1.0
C      1  0.5119970000000  0.5638290000000  0.4359530000000 1.0
C      1  0.5609030000000  0.4803770000000  0.5139330000000 1.0
C      1  0.5060610000000  0.5010520000000  0.5603300000000 1.0
C      1  0.4804610000000  0.5115810000000  0.5799670000000 1.0
C      1  0.5271750000000  0.5775680000000  0.5436610000000 1.0
C      1  0.5827440000000  0.4529740000000  0.4951740000000 1.0
C      1  0.4089850000000  0.4944070000000  0.4774920000000 1.0
C      1  0.5542740000000  0.5056710000000  0.5028810000000 1.0
C      1  0.4367250000000  0.4771900000000  0.4238920000000 1.0
C      1  0.5353390000000  0.5281440000000  0.5603760000000 1.0
C      1  0.5660120000000  0.5313220000000  0.5002850000000 1.0
C      1  0.4971440000000  0.4749960000000  0.5187960000000 1.0
C      1  0.4713880000000  0.4724650000000  0.5264830000000 1.0
C      1  0.4228990000000  0.4815690000000  0.5126940000000 1.0
C      1  0.5919250000000  0.5024960000000  0.4789880000000 1.0
C      1  0.5049970000000  0.4983060000000  0.5008330000000 1.0
C      1  0.5497410000000  0.4501000000000  0.5022540000000 1.0
C      1  0.5075090000000  0.5060190000000  0.5995530000000 1.0
C      1  0.4747550000000  0.4100390000000  0.4728830000000 1.0
C      1  0.4850700000000  0.5522650000000  0.4809840000000 1.0
C      1  0.4534850000000  0.4930400000000  0.5187640000000 1.0
C      1  0.5049470000000  0.5494850000000  0.5087740000000 1.0
C      1  0.4460060000000  0.4268160000000  0.4674100000000 1.0
C      1  0.4711030000000  0.4277590000000  0.4438950000000 1.0
C      1  0.4402560000000  0.4335700000000  0.4984200000000 1.0
C      1  0.5625820000000  0.4737230000000  0.4555790000000 1.0
C      1  0.5157590000000  0.4513550000000  0.4053280000000 1.0
C      1  0.5587900000000  0.4332760000000  0.5498110000000 1.0
C      1  0.5273280000000  0.4340690000000  0.4905130000000 1.0
C      1  0.4687230000000  0.4539020000000  0.4272010000000 1.0
C      1  0.5357350000000  0.4175520000000  0.5417160000000 1.0
C      1  0.4421130000000  0.5050750000000  0.5551680000000 1.0
END
