TITL C-2778424-3986-972 -0.00167920819061165 125000 -324.599531838896 0 0 59 (C1) n - 1
REM
REM in /home/nfs/bkarasulu/CARBON/AIRSS/Generating-Clusters/REBO/Only-C1/SD-CG/HFTN-CG
REM
REM
REM
REM
REM
REM ./C.cell (11c1c37f851c82e70ff6c80c92926a4b)
REM
REM compiler GCC version 9.2.1 20190827 (Red Hat 9.2.1-1)
REM options -cpp -mtune=generic -march=x86-64 -g -O0 -fpre-include=/usr/include/finclude/math-vector-fortran.h
REM seed 1300930518 -135604061 -1638261007 1884623539 -845793110 1762935841 565624642 -1103912006 -1869545561 1246827165 1992735448 -921459718 1893287255 1185462162 1834118698 446247720 1908985914 -804308375 523019337 965179686 908319158 1931413657 773644298 -1685170987 1126677306 887207650 1851451554 -1164202963 -1597638747 -669826128 451058552 -729968267 -425771586
REM
CELL 1.54180   50.00000   50.00000   50.00000   90.00000   90.00000   90.00000
LATT -1
SFAC C  
C      1  0.5612020000000  0.5175510000000  0.5053800000000 1.0
C      1  0.4883880000000  0.5580640000000  0.4348180000000 1.0
C      1  0.4846050000000  0.4848170000000  0.4873620000000 1.0
C      1  0.5106530000000  0.4672180000000  0.4804340000000 1.0
C      1  0.4726790000000  0.4750340000000  0.5638240000000 1.0
C      1  0.5712700000000  0.4669920000000  0.5174270000000 1.0
C      1  0.5129430000000  0.5410720000000  0.4184110000000 1.0
C      1  0.5086530000000  0.5600870000000  0.5102300000000 1.0
C      1  0.4862490000000  0.5660500000000  0.5343990000000 1.0
C      1  0.5385710000000  0.4770160000000  0.5578450000000 1.0
C      1  0.4851480000000  0.5050990000000  0.4634720000000 1.0
C      1  0.5116050000000  0.5218120000000  0.5516780000000 1.0
C      1  0.4648170000000  0.5394460000000  0.4478190000000 1.0
C      1  0.5097560000000  0.5467610000000  0.5418850000000 1.0
C      1  0.4939840000000  0.5631390000000  0.4840840000000 1.0
C      1  0.5569380000000  0.5115850000000  0.5446880000000 1.0
C      1  0.5345670000000  0.5380540000000  0.5117840000000 1.0
C      1  0.4450690000000  0.5065840000000  0.5366530000000 1.0
C      1  0.4860100000000  0.4602680000000  0.4497190000000 1.0
C      1  0.5729240000000  0.4909300000000  0.4996860000000 1.0
C      1  0.4458020000000  0.4926400000000  0.4827200000000 1.0
C      1  0.5654480000000  0.4823410000000  0.4730580000000 1.0
C      1  0.5119560000000  0.4383400000000  0.5262960000000 1.0
C      1  0.4443980000000  0.5369960000000  0.5341180000000 1.0
C      1  0.4740330000000  0.4526090000000  0.4868350000000 1.0
C      1  0.5054720000000  0.5202920000000  0.5122390000000 1.0
C      1  0.4422420000000  0.5229100000000  0.4738320000000 1.0
C      1  0.5046150000000  0.4745310000000  0.4360610000000 1.0
C      1  0.4674140000000  0.4634580000000  0.5337080000000 1.0
C      1  0.4618350000000  0.4894110000000  0.5124180000000 1.0
C      1  0.5684430000000  0.4702820000000  0.5461180000000 1.0
C      1  0.5398810000000  0.4297760000000  0.5292070000000 1.0
C      1  0.4594670000000  0.5591700000000  0.5355880000000 1.0
C      1  0.5382950000000  0.4806830000000  0.4723780000000 1.0
C      1  0.5163390000000  0.5134420000000  0.4694730000000 1.0
C      1  0.4587840000000  0.4741980000000  0.4570400000000 1.0
C      1  0.4201610000000  0.4892710000000  0.5247440000000 1.0
C      1  0.5265210000000  0.4995160000000  0.4975590000000 1.0
C      1  0.5513720000000  0.5359490000000  0.5393300000000 1.0
C      1  0.5198490000000  0.4956510000000  0.4406620000000 1.0
C      1  0.4554590000000  0.5065310000000  0.4467970000000 1.0
C      1  0.4983420000000  0.4372470000000  0.4716790000000 1.0
C      1  0.5273660000000  0.5600730000000  0.4428740000000 1.0
C      1  0.4985680000000  0.4627180000000  0.5364440000000 1.0
C      1  0.5060570000000  0.4724770000000  0.5675590000000 1.0
C      1  0.4900520000000  0.5213790000000  0.4339330000000 1.0
C      1  0.5206130000000  0.5016380000000  0.5713730000000 1.0
C      1  0.5313730000000  0.5268450000000  0.4430800000000 1.0
C      1  0.4510400000000  0.4509870000000  0.5103930000000 1.0
C      1  0.5043760000000  0.5712260000000  0.4593420000000 1.0
C      1  0.5551090000000  0.4447770000000  0.5074560000000 1.0
C      1  0.4814260000000  0.5313730000000  0.5047800000000 1.0
C      1  0.4554270000000  0.4972750000000  0.5648710000000 1.0
C      1  0.5404330000000  0.4906120000000  0.5264140000000 1.0
C      1  0.4657510000000  0.5455360000000  0.4807930000000 1.0
C      1  0.5086480000000  0.4933310000000  0.5327850000000 1.0
C      1  0.4411640000000  0.4536000000000  0.4776930000000 1.0
C      1  0.5235270000000  0.4403910000000  0.4945460000000 1.0
C      1  0.4269120000000  0.4729410000000  0.5022060000000 1.0
END
