TITL C-2778424-3986-403 0.12577982377886 125000 -696.956257392984 0 0 120 (C1) n - 1
REM
REM in /home/nfs/bkarasulu/CARBON/AIRSS/Generating-Clusters/REBO/Only-C1/SD-CG/HFTN-CG
REM
REM
REM
REM
REM
REM ./C.cell (11c1c37f851c82e70ff6c80c92926a4b)
REM
REM compiler GCC version 9.2.1 20190827 (Red Hat 9.2.1-1)
REM options -cpp -mtune=generic -march=x86-64 -g -O0 -fpre-include=/usr/include/finclude/math-vector-fortran.h
REM seed -1977674345 -1574413814 1127658357 755567244 941989864 1532542649 1681911095 1993132506 -1944678562 142351971 1949706235 1813469995 808244949 307579060 775287405 319397370 -1537832897 -2022842739 354276692 1997044961 1055044629 785123261 2120256884 1630362280 -2070750977 1920018508 1680932532 -334849780 -501197369 886712433 -1241962217 -682053401 -1757663915
REM
CELL 1.54180   50.00000   50.00000   50.00000   90.00000   90.00000   90.00000
LATT -1
SFAC C  
C      1  0.5174240000000  0.5076510000000  0.4348030000000 1.0
C      1  0.5576880000000  0.5371490000000  0.4552140000000 1.0
C      1  0.5469490000000  0.4914640000000  0.4309120000000 1.0
C      1  0.5135510000000  0.4494960000000  0.5329790000000 1.0
C      1  0.4526280000000  0.4201180000000  0.5145540000000 1.0
C      1  0.4249830000000  0.5250880000000  0.5158320000000 1.0
C      1  0.5923720000000  0.4876210000000  0.4603920000000 1.0
C      1  0.4800700000000  0.4491700000000  0.5787090000000 1.0
C      1  0.5616990000000  0.4932440000000  0.4576900000000 1.0
C      1  0.4437330000000  0.5449880000000  0.4320560000000 1.0
C      1  0.4946960000000  0.5246630000000  0.5020500000000 1.0
C      1  0.4884210000000  0.4589740000000  0.4689430000000 1.0
C      1  0.6020730000000  0.5367440000000  0.4897390000000 1.0
C      1  0.4722640000000  0.4391290000000  0.5553010000000 1.0
C      1  0.4764120000000  0.4519930000000  0.4956030000000 1.0
C      1  0.4869270000000  0.5772350000000  0.4399990000000 1.0
C      1  0.4687430000000  0.5099970000000  0.5803400000000 1.0
C      1  0.4521850000000  0.4963470000000  0.4295060000000 1.0
C      1  0.5519880000000  0.5245450000000  0.4267960000000 1.0
C      1  0.5173710000000  0.4219770000000  0.4643300000000 1.0
C      1  0.4057890000000  0.5414500000000  0.4764410000000 1.0
C      1  0.5766810000000  0.5127400000000  0.5018530000000 1.0
C      1  0.4948920000000  0.5215040000000  0.4484700000000 1.0
C      1  0.4910370000000  0.4800140000000  0.5202920000000 1.0
C      1  0.5361130000000  0.5576270000000  0.4636300000000 1.0
C      1  0.4391030000000  0.4584960000000  0.4472460000000 1.0
C      1  0.5774710000000  0.4847930000000  0.5131370000000 1.0
C      1  0.4526370000000  0.4232810000000  0.4816210000000 1.0
C      1  0.5263620000000  0.4512160000000  0.5040280000000 1.0
C      1  0.4557570000000  0.5091540000000  0.4786780000000 1.0
C      1  0.4796340000000  0.5464330000000  0.5319300000000 1.0
C      1  0.5321830000000  0.4307170000000  0.5521450000000 1.0
C      1  0.5809590000000  0.4595620000000  0.4664510000000 1.0
C      1  0.4736430000000  0.5182600000000  0.5403120000000 1.0
C      1  0.4374430000000  0.5698580000000  0.5052840000000 1.0
C      1  0.5236140000000  0.4054280000000  0.5355650000000 1.0
C      1  0.5003150000000  0.5079800000000  0.5559560000000 1.0
C      1  0.5014730000000  0.4820810000000  0.4482610000000 1.0
C      1  0.5155190000000  0.5923270000000  0.5123040000000 1.0
C      1  0.4842710000000  0.4135740000000  0.5028530000000 1.0
C      1  0.4978280000000  0.5263550000000  0.5843020000000 1.0
C      1  0.4468270000000  0.4362080000000  0.5380040000000 1.0
C      1  0.4695160000000  0.5023680000000  0.4528460000000 1.0
C      1  0.5745460000000  0.4563630000000  0.4944790000000 1.0
C      1  0.4689730000000  0.4428180000000  0.4492070000000 1.0
C      1  0.4476620000000  0.5058390000000  0.5219560000000 1.0
C      1  0.4860310000000  0.4388300000000  0.5256250000000 1.0
C      1  0.5619090000000  0.4904800000000  0.5615680000000 1.0
C      1  0.5026040000000  0.5381200000000  0.4729970000000 1.0
C      1  0.5270540000000  0.4579680000000  0.5700250000000 1.0
C      1  0.5229260000000  0.4829550000000  0.5133530000000 1.0
C      1  0.4845040000000  0.5931840000000  0.5032280000000 1.0
C      1  0.4810190000000  0.5119420000000  0.4066700000000 1.0
C      1  0.3894760000000  0.4592960000000  0.4864810000000 1.0
C      1  0.5437340000000  0.5795490000000  0.5169860000000 1.0
C      1  0.4551720000000  0.5714960000000  0.4509330000000 1.0
C      1  0.4885780000000  0.5689860000000  0.4723650000000 1.0
C      1  0.4882780000000  0.4824900000000  0.4172090000000 1.0
C      1  0.5556630000000  0.5148560000000  0.4799720000000 1.0
C      1  0.4747300000000  0.5021830000000  0.5038080000000 1.0
C      1  0.5288720000000  0.5062490000000  0.4931590000000 1.0
C      1  0.4251020000000  0.4935530000000  0.5664020000000 1.0
C      1  0.5345010000000  0.5067220000000  0.5547740000000 1.0
C      1  0.5175420000000  0.5724710000000  0.5729790000000 1.0
C      1  0.4709200000000  0.5418870000000  0.4490760000000 1.0
C      1  0.5184020000000  0.4600400000000  0.4764900000000 1.0
C      1  0.5608570000000  0.4508370000000  0.4479810000000 1.0
C      1  0.4424580000000  0.4525750000000  0.4937850000000 1.0
C      1  0.4841100000000  0.4194970000000  0.4691820000000 1.0
C      1  0.4401580000000  0.5179810000000  0.5700090000000 1.0
C      1  0.5803700000000  0.5433950000000  0.5128190000000 1.0
C      1  0.4280820000000  0.4793010000000  0.5195230000000 1.0
C      1  0.4271420000000  0.4981910000000  0.4777890000000 1.0
C      1  0.5299800000000  0.4873930000000  0.4668070000000 1.0
C      1  0.4591790000000  0.5833280000000  0.4827920000000 1.0
C      1  0.5395830000000  0.4611910000000  0.4231550000000 1.0
C      1  0.4563330000000  0.5422270000000  0.4781550000000 1.0
C      1  0.5426420000000  0.5365950000000  0.5414940000000 1.0
C      1  0.5184920000000  0.5657880000000  0.4442330000000 1.0
C      1  0.5395760000000  0.5224990000000  0.5911070000000 1.0
C      1  0.5534930000000  0.4703730000000  0.5789700000000 1.0
C      1  0.4772780000000  0.5524720000000  0.4999800000000 1.0
C      1  0.4832020000000  0.5799280000000  0.5313520000000 1.0
C      1  0.5191850000000  0.4813870000000  0.4051910000000 1.0
C      1  0.4286980000000  0.5582820000000  0.4774200000000 1.0
C      1  0.5019810000000  0.4665250000000  0.5876630000000 1.0
C      1  0.4370860000000  0.5427910000000  0.5551090000000 1.0
C      1  0.5321060000000  0.4148860000000  0.4888220000000 1.0
C      1  0.5459680000000  0.5398400000000  0.5738630000000 1.0
C      1  0.5238600000000  0.5554280000000  0.4923940000000 1.0
C      1  0.5145740000000  0.5800160000000  0.5442710000000 1.0
C      1  0.4090080000000  0.4842080000000  0.5433380000000 1.0
C      1  0.5290660000000  0.5140900000000  0.4036860000000 1.0
C      1  0.5840920000000  0.4813880000000  0.5452360000000 1.0
C      1  0.5143680000000  0.4055860000000  0.5097860000000 1.0
C      1  0.4373970000000  0.5199290000000  0.4215800000000 1.0
C      1  0.4316750000000  0.5512370000000  0.5270610000000 1.0
C      1  0.5237960000000  0.4960390000000  0.5856680000000 1.0
C      1  0.5539420000000  0.4370880000000  0.4991770000000 1.0
C      1  0.5015860000000  0.5541050000000  0.4198420000000 1.0
C      1  0.4624210000000  0.4644110000000  0.4235500000000 1.0
C      1  0.4600080000000  0.4683340000000  0.5186620000000 1.0
C      1  0.4129630000000  0.4625330000000  0.4966260000000 1.0
C      1  0.4244050000000  0.4760280000000  0.4608300000000 1.0
C      1  0.5864070000000  0.4510770000000  0.5513610000000 1.0
C      1  0.5566460000000  0.4506440000000  0.5441740000000 1.0
C      1  0.6052270000000  0.5119410000000  0.4663950000000 1.0
C      1  0.5887220000000  0.5393400000000  0.4597800000000 1.0
C      1  0.5212930000000  0.5222720000000  0.5204790000000 1.0
C      1  0.4930040000000  0.4955310000000  0.5978740000000 1.0
C      1  0.5585630000000  0.5560600000000  0.5248090000000 1.0
C      1  0.5315310000000  0.4374990000000  0.4463030000000 1.0
C      1  0.5102840000000  0.5530110000000  0.5862250000000 1.0
C      1  0.5078220000000  0.4774210000000  0.5497190000000 1.0
C      1  0.5119530000000  0.5540420000000  0.5227960000000 1.0
C      1  0.4426760000000  0.4658580000000  0.5542510000000 1.0
C      1  0.5015960000000  0.5304740000000  0.4060480000000 1.0
C      1  0.4629490000000  0.4890500000000  0.5546310000000 1.0
C      1  0.5497250000000  0.4730060000000  0.5273860000000 1.0
C      1  0.4110390000000  0.5177810000000  0.4917620000000 1.0
END
