TITL C-2778433-5640-82 0.00176796542619129 125000 -1068.06626159572 0 0 183 (C1) n - 1
REM
REM in /home/nfs/bkarasulu/CARBON/AIRSS/Generating-Clusters/REBO/Only-C1/SD-CG/HFTN-CG
REM
REM
REM
REM
REM
REM ./C.cell (11c1c37f851c82e70ff6c80c92926a4b)
REM
REM compiler GCC version 9.2.1 20190827 (Red Hat 9.2.1-1)
REM options -cpp -mtune=generic -march=x86-64 -g -O0 -fpre-include=/usr/include/finclude/math-vector-fortran.h
REM seed -1137334115 -894838303 -1860670946 -1164442049 -1489123299 -2121125635 1450719554 -2100061419 1836979316 -1909633405 -1394939173 -75466636 -1934674129 1294724670 -601560444 211337995 -1058504487 1370750567 1054185527 1250780730 -1507213652 784669725 -1274221162 -1048256589 869974355 -1281731939 2147280865 -1249508331 447847264 -2057473189 33743949 1168704639 594278006
REM
CELL 1.54180   50.00000   50.00000   50.00000   90.00000   90.00000   90.00000
LATT -1
SFAC C  
C      1  0.4962810000000  0.5731270000000  0.5309460000000 1.0
C      1  0.5171480000000  0.5108640000000  0.5956600000000 1.0
C      1  0.6061210000000  0.4658760000000  0.5203150000000 1.0
C      1  0.5808660000000  0.4923970000000  0.5749080000000 1.0
C      1  0.4365860000000  0.4188860000000  0.5310990000000 1.0
C      1  0.4475980000000  0.5387030000000  0.5912240000000 1.0
C      1  0.4870870000000  0.5782060000000  0.4179750000000 1.0
C      1  0.4411910000000  0.4472520000000  0.4272410000000 1.0
C      1  0.5373940000000  0.5210840000000  0.5561980000000 1.0
C      1  0.4432090000000  0.4596320000000  0.5792970000000 1.0
C      1  0.4430140000000  0.4725240000000  0.4592170000000 1.0
C      1  0.4378640000000  0.4493190000000  0.4912820000000 1.0
C      1  0.4560970000000  0.5838430000000  0.4588410000000 1.0
C      1  0.4659610000000  0.5655940000000  0.5364460000000 1.0
C      1  0.5030930000000  0.5025080000000  0.5095880000000 1.0
C      1  0.3906220000000  0.4800470000000  0.5758140000000 1.0
C      1  0.4323560000000  0.5749430000000  0.5054210000000 1.0
C      1  0.5546770000000  0.5319780000000  0.5779610000000 1.0
C      1  0.4027370000000  0.5692720000000  0.5315950000000 1.0
C      1  0.4896510000000  0.4349060000000  0.5971520000000 1.0
C      1  0.4828700000000  0.4447940000000  0.5591450000000 1.0
C      1  0.4651040000000  0.4738920000000  0.5575350000000 1.0
C      1  0.4156270000000  0.4269190000000  0.4815540000000 1.0
C      1  0.5069560000000  0.4206800000000  0.5513950000000 1.0
C      1  0.4180460000000  0.5539430000000  0.4746410000000 1.0
C      1  0.4345760000000  0.4515800000000  0.5412440000000 1.0
C      1  0.4303410000000  0.4793050000000  0.4895460000000 1.0
C      1  0.5028850000000  0.4127290000000  0.5826710000000 1.0
C      1  0.5510700000000  0.5615760000000  0.3951690000000 1.0
C      1  0.4778090000000  0.4309850000000  0.4849520000000 1.0
C      1  0.5537100000000  0.4705810000000  0.5086000000000 1.0
C      1  0.5904270000000  0.5765590000000  0.4581860000000 1.0
C      1  0.5797670000000  0.5195210000000  0.5700010000000 1.0
C      1  0.4547680000000  0.5226490000000  0.4555290000000 1.0
C      1  0.4898970000000  0.3943780000000  0.4341230000000 1.0
C      1  0.5474830000000  0.5845470000000  0.5658170000000 1.0
C      1  0.4555080000000  0.4693060000000  0.4162280000000 1.0
C      1  0.3860600000000  0.5033460000000  0.4743210000000 1.0
C      1  0.4600270000000  0.5635690000000  0.5828740000000 1.0
C      1  0.5388280000000  0.4784820000000  0.4303400000000 1.0
C      1  0.5676330000000  0.5832220000000  0.4826130000000 1.0
C      1  0.4181990000000  0.5516960000000  0.4277080000000 1.0
C      1  0.5724660000000  0.4172060000000  0.4847630000000 1.0
C      1  0.5368360000000  0.4365060000000  0.5097320000000 1.0
C      1  0.4873700000000  0.5868780000000  0.4477350000000 1.0
C      1  0.5158640000000  0.6021350000000  0.4911990000000 1.0
C      1  0.4500830000000  0.4029770000000  0.5530290000000 1.0
C      1  0.5709380000000  0.5171340000000  0.4215180000000 1.0
C      1  0.5499120000000  0.5425380000000  0.4645510000000 1.0
C      1  0.3923620000000  0.5125610000000  0.4437300000000 1.0
C      1  0.5595210000000  0.4282920000000  0.5343700000000 1.0
C      1  0.4708690000000  0.5757290000000  0.4855120000000 1.0
C      1  0.4861380000000  0.4492050000000  0.4333990000000 1.0
C      1  0.4851860000000  0.4470400000000  0.5140180000000 1.0
C      1  0.5364720000000  0.4360420000000  0.5581980000000 1.0
C      1  0.4881390000000  0.4176700000000  0.4216580000000 1.0
C      1  0.4995460000000  0.5002610000000  0.4037880000000 1.0
C      1  0.4249530000000  0.5851480000000  0.5433370000000 1.0
C      1  0.6007710000000  0.5485890000000  0.4646670000000 1.0
C      1  0.4252600000000  0.5070700000000  0.5570770000000 1.0
C      1  0.4671890000000  0.4031400000000  0.4908970000000 1.0
C      1  0.5408810000000  0.5552480000000  0.5919550000000 1.0
C      1  0.4368430000000  0.4082450000000  0.5006310000000 1.0
C      1  0.5571940000000  0.4699580000000  0.5977450000000 1.0
C      1  0.5386170000000  0.5935600000000  0.4466120000000 1.0
C      1  0.5621770000000  0.5335590000000  0.4951490000000 1.0
C      1  0.4871350000000  0.4718810000000  0.4077470000000 1.0
C      1  0.4016790000000  0.5058120000000  0.5782060000000 1.0
C      1  0.5716880000000  0.4776480000000  0.5366580000000 1.0
C      1  0.5658960000000  0.4878580000000  0.4578800000000 1.0
C      1  0.4363190000000  0.4057340000000  0.4662440000000 1.0
C      1  0.5354530000000  0.4863040000000  0.6041130000000 1.0
C      1  0.4679300000000  0.4922210000000  0.4939310000000 1.0
C      1  0.4942130000000  0.5394840000000  0.5263540000000 1.0
C      1  0.6079470000000  0.5072060000000  0.4888870000000 1.0
C      1  0.6093740000000  0.5259240000000  0.5158920000000 1.0
C      1  0.5817780000000  0.4017230000000  0.4138560000000 1.0
C      1  0.5491550000000  0.5017650000000  0.5331450000000 1.0
C      1  0.5166500000000  0.5043360000000  0.4309060000000 1.0
C      1  0.5669080000000  0.5932940000000  0.5128840000000 1.0
C      1  0.5172100000000  0.5759740000000  0.5787120000000 1.0
C      1  0.4740200000000  0.5007760000000  0.5765720000000 1.0
C      1  0.4787200000000  0.5430050000000  0.4434610000000 1.0
C      1  0.4542120000000  0.5177980000000  0.4120710000000 1.0
C      1  0.4840450000000  0.4693210000000  0.4919380000000 1.0
C      1  0.4416090000000  0.4940820000000  0.4200080000000 1.0
C      1  0.5992620000000  0.4967610000000  0.5303720000000 1.0
C      1  0.4796680000000  0.5450890000000  0.4773020000000 1.0
C      1  0.5605420000000  0.4045560000000  0.5119300000000 1.0
C      1  0.5741040000000  0.4714440000000  0.4833010000000 1.0
C      1  0.4340070000000  0.5277760000000  0.4779260000000 1.0
C      1  0.4532060000000  0.4427080000000  0.5159920000000 1.0
C      1  0.4005740000000  0.4424550000000  0.4593570000000 1.0
C      1  0.5688920000000  0.4045760000000  0.4375950000000 1.0
C      1  0.5750710000000  0.4567870000000  0.6138920000000 1.0
C      1  0.5301270000000  0.5111410000000  0.3940350000000 1.0
C      1  0.4828370000000  0.3834710000000  0.4808330000000 1.0
C      1  0.5309450000000  0.4669540000000  0.5453850000000 1.0
C      1  0.5364070000000  0.5725390000000  0.4738990000000 1.0
C      1  0.4786390000000  0.5224430000000  0.3997530000000 1.0
C      1  0.4171300000000  0.4574300000000  0.4433700000000 1.0
C      1  0.4903300000000  0.4854240000000  0.4561380000000 1.0
C      1  0.5276400000000  0.4226130000000  0.4178920000000 1.0
C      1  0.3867700000000  0.4689540000000  0.5462200000000 1.0
C      1  0.5730290000000  0.5869240000000  0.5646130000000 1.0
C      1  0.4191860000000  0.4963940000000  0.4377360000000 1.0
C      1  0.4672060000000  0.4985730000000  0.6500850000000 1.0
C      1  0.5988360000000  0.5581750000000  0.5173310000000 1.0
C      1  0.5448530000000  0.5088290000000  0.4843060000000 1.0
C      1  0.5860930000000  0.5256350000000  0.5406930000000 1.0
C      1  0.5582490000000  0.4686040000000  0.5659860000000 1.0
C      1  0.5049440000000  0.4428970000000  0.4061180000000 1.0
C      1  0.5835060000000  0.5549040000000  0.4906040000000 1.0
C      1  0.5623410000000  0.5440880000000  0.4202220000000 1.0
C      1  0.5114460000000  0.4512130000000  0.5764190000000 1.0
C      1  0.4132320000000  0.4580060000000  0.5649230000000 1.0
C      1  0.5357960000000  0.5945180000000  0.5176920000000 1.0
C      1  0.5205000000000  0.5845230000000  0.5459350000000 1.0
C      1  0.5438590000000  0.4627750000000  0.4589040000000 1.0
C      1  0.5424280000000  0.5118350000000  0.4517920000000 1.0
C      1  0.4816440000000  0.5180340000000  0.4880060000000 1.0
C      1  0.4540150000000  0.4414310000000  0.4645300000000 1.0
C      1  0.4035600000000  0.5635800000000  0.5006010000000 1.0
C      1  0.5181770000000  0.4827760000000  0.4642830000000 1.0
C      1  0.5288670000000  0.5639360000000  0.5062490000000 1.0
C      1  0.3945330000000  0.5392350000000  0.4336200000000 1.0
C      1  0.4617160000000  0.6020150000000  0.5053670000000 1.0
C      1  0.4632030000000  0.5151860000000  0.5988080000000 1.0
C      1  0.5848790000000  0.4463820000000  0.5328770000000 1.0
C      1  0.5150990000000  0.5331350000000  0.5031170000000 1.0
C      1  0.5010550000000  0.3887950000000  0.4596140000000 1.0
C      1  0.5439900000000  0.5792880000000  0.4233310000000 1.0
C      1  0.6007650000000  0.4800330000000  0.4940930000000 1.0
C      1  0.6028530000000  0.5202550000000  0.4632030000000 1.0
C      1  0.5097210000000  0.5329250000000  0.4426690000000 1.0
C      1  0.5318370000000  0.4935170000000  0.5070670000000 1.0
C      1  0.3786650000000  0.4785320000000  0.5216160000000 1.0
C      1  0.4918070000000  0.4530130000000  0.4630740000000 1.0
C      1  0.5748580000000  0.3537270000000  0.5293290000000 1.0
C      1  0.4378140000000  0.4855320000000  0.5407600000000 1.0
C      1  0.4637510000000  0.4940450000000  0.4533020000000 1.0
C      1  0.5682870000000  0.3770570000000  0.5213430000000 1.0
C      1  0.5871230000000  0.5812680000000  0.5282750000000 1.0
C      1  0.5849760000000  0.5077610000000  0.4447070000000 1.0
C      1  0.4469010000000  0.5264890000000  0.5058930000000 1.0
C      1  0.4597110000000  0.4391200000000  0.5915650000000 1.0
C      1  0.4513260000000  0.5560780000000  0.5143460000000 1.0
C      1  0.4185340000000  0.5015750000000  0.4713760000000 1.0
C      1  0.4713290000000  0.5194220000000  0.5264270000000 1.0
C      1  0.4652650000000  0.5066280000000  0.6252220000000 1.0
C      1  0.5036940000000  0.5652140000000  0.4653460000000 1.0
C      1  0.5161390000000  0.5370560000000  0.5872240000000 1.0
C      1  0.4835020000000  0.4896090000000  0.5333900000000 1.0
C      1  0.4307470000000  0.5740300000000  0.4583130000000 1.0
C      1  0.4230820000000  0.5307200000000  0.5787770000000 1.0
C      1  0.4655830000000  0.4173760000000  0.5696400000000 1.0
C      1  0.4427240000000  0.4947460000000  0.5134570000000 1.0
C      1  0.5406280000000  0.4093710000000  0.4393570000000 1.0
C      1  0.5135250000000  0.4923320000000  0.5482800000000 1.0
C      1  0.4949280000000  0.5140900000000  0.5626140000000 1.0
C      1  0.5265780000000  0.4014580000000  0.4641080000000 1.0
C      1  0.4357170000000  0.6032040000000  0.5194660000000 1.0
C      1  0.5821620000000  0.4057560000000  0.4624670000000 1.0
C      1  0.3763390000000  0.4913270000000  0.4976750000000 1.0
C      1  0.4877700000000  0.5702150000000  0.5872000000000 1.0
C      1  0.4489720000000  0.5741230000000  0.5579940000000 1.0
C      1  0.5124670000000  0.5646560000000  0.4046830000000 1.0
C      1  0.4480600000000  0.4198090000000  0.4409040000000 1.0
C      1  0.5593340000000  0.5319310000000  0.5249780000000 1.0
C      1  0.5185620000000  0.5368140000000  0.4731460000000 1.0
C      1  0.4473160000000  0.5426870000000  0.4298900000000 1.0
C      1  0.5320270000000  0.5476980000000  0.5359560000000 1.0
C      1  0.5506360000000  0.4989100000000  0.4107070000000 1.0
C      1  0.5342290000000  0.4084490000000  0.4904620000000 1.0
C      1  0.5291340000000  0.5490450000000  0.4258400000000 1.0
C      1  0.4852900000000  0.5499690000000  0.3989660000000 1.0
C      1  0.5141010000000  0.4813440000000  0.5794800000000 1.0
C      1  0.4918260000000  0.5896560000000  0.5057570000000 1.0
C      1  0.5056800000000  0.5441890000000  0.5573470000000 1.0
C      1  0.5552340000000  0.4431670000000  0.4820110000000 1.0
C      1  0.5357510000000  0.5376930000000  0.3842870000000 1.0
C      1  0.5118150000000  0.4442050000000  0.5280470000000 1.0
C      1  0.5138570000000  0.6033100000000  0.4619120000000 1.0
END
