TITL C-2778429-3646-995 -9.19999484318815e-05 125000 -1104.21233547297 0 0 190 (C1) n - 1
REM
REM in /home/nfs/bkarasulu/CARBON/AIRSS/Generating-Clusters/REBO/Only-C1/SD-CG/HFTN-CG
REM
REM
REM
REM
REM
REM ./C.cell (11c1c37f851c82e70ff6c80c92926a4b)
REM
REM compiler GCC version 9.2.1 20190827 (Red Hat 9.2.1-1)
REM options -cpp -mtune=generic -march=x86-64 -g -O0 -fpre-include=/usr/include/finclude/math-vector-fortran.h
REM seed -1621003143 -1424929417 1848341840 1599681997 1839556057 -223302296 902018431 -2132709718 1146811406 1171692626 -475991728 925129527 1387241551 -806488043 -739087835 -241772829 -1677258360 -1998098101 -204298307 151045593 254562031 957150045 1552228975 546504748 21283531 -616673968 1491569896 669316559 1360958163 -354482767 -1268916440 -295103658 -666268977
REM
CELL 1.54180   50.00000   50.00000   50.00000   90.00000   90.00000   90.00000
LATT -1
SFAC C  
C      1  0.4325210000000  0.4897700000000  0.5967040000000 1.0
C      1  0.5083480000000  0.5606070000000  0.4173550000000 1.0
C      1  0.4412730000000  0.5219470000000  0.3931750000000 1.0
C      1  0.4211480000000  0.4899050000000  0.4242780000000 1.0
C      1  0.4083040000000  0.4768750000000  0.4468170000000 1.0
C      1  0.4809750000000  0.5027050000000  0.4341390000000 1.0
C      1  0.5159400000000  0.5606450000000  0.5459120000000 1.0
C      1  0.4213560000000  0.4856460000000  0.5670400000000 1.0
C      1  0.5511170000000  0.5241220000000  0.4803770000000 1.0
C      1  0.4663070000000  0.5424820000000  0.3911050000000 1.0
C      1  0.5812800000000  0.5104410000000  0.4445880000000 1.0
C      1  0.3990860000000  0.5153170000000  0.4884610000000 1.0
C      1  0.5492900000000  0.5231200000000  0.3927310000000 1.0
C      1  0.4562170000000  0.4552780000000  0.4116930000000 1.0
C      1  0.4456280000000  0.5045370000000  0.4521130000000 1.0
C      1  0.4642350000000  0.5035170000000  0.5660140000000 1.0
C      1  0.5416440000000  0.5077200000000  0.5505680000000 1.0
C      1  0.5631580000000  0.5732330000000  0.4519660000000 1.0
C      1  0.5338330000000  0.5054520000000  0.4579750000000 1.0
C      1  0.4717150000000  0.5132070000000  0.4079320000000 1.0
C      1  0.5021300000000  0.6051330000000  0.4839430000000 1.0
C      1  0.4737850000000  0.5179610000000  0.4638860000000 1.0
C      1  0.5985990000000  0.4307960000000  0.4884320000000 1.0
C      1  0.4552180000000  0.4929490000000  0.4889170000000 1.0
C      1  0.5774590000000  0.4569480000000  0.4373290000000 1.0
C      1  0.4880460000000  0.4967440000000  0.5216810000000 1.0
C      1  0.5440410000000  0.5544410000000  0.5873660000000 1.0
C      1  0.5152760000000  0.4806830000000  0.4015530000000 1.0
C      1  0.5399140000000  0.5234270000000  0.6008040000000 1.0
C      1  0.5110560000000  0.4376430000000  0.4752520000000 1.0
C      1  0.5750640000000  0.4636590000000  0.4688250000000 1.0
C      1  0.4872250000000  0.5733980000000  0.5844150000000 1.0
C      1  0.4553870000000  0.4465190000000  0.4721590000000 1.0
C      1  0.4857900000000  0.4501420000000  0.4465780000000 1.0
C      1  0.4833020000000  0.4207000000000  0.4516870000000 1.0
C      1  0.4438720000000  0.4664610000000  0.4938840000000 1.0
C      1  0.5340840000000  0.4123060000000  0.4784980000000 1.0
C      1  0.5308130000000  0.4628570000000  0.4338020000000 1.0
C      1  0.4418730000000  0.5377500000000  0.5103340000000 1.0
C      1  0.4836230000000  0.5649200000000  0.5053360000000 1.0
C      1  0.5820250000000  0.5280980000000  0.4679640000000 1.0
C      1  0.4034000000000  0.4630040000000  0.5233100000000 1.0
C      1  0.5267350000000  0.5739120000000  0.4680150000000 1.0
C      1  0.4117000000000  0.4663790000000  0.4933150000000 1.0
C      1  0.5580010000000  0.4374630000000  0.5295120000000 1.0
C      1  0.4885270000000  0.5851340000000  0.4304460000000 1.0
C      1  0.4192510000000  0.5124000000000  0.5151660000000 1.0
C      1  0.5470690000000  0.6016990000000  0.4477620000000 1.0
C      1  0.4889410000000  0.4100360000000  0.5587930000000 1.0
C      1  0.4822250000000  0.4588510000000  0.3980750000000 1.0
C      1  0.4751970000000  0.5988190000000  0.4792940000000 1.0
C      1  0.4817190000000  0.4650700000000  0.5149460000000 1.0
C      1  0.4119600000000  0.4319430000000  0.5339540000000 1.0
C      1  0.4631450000000  0.4759570000000  0.4456620000000 1.0
C      1  0.5559350000000  0.5270560000000  0.5723950000000 1.0
C      1  0.4255790000000  0.5603880000000  0.4673240000000 1.0
C      1  0.5881050000000  0.4992300000000  0.5122680000000 1.0
C      1  0.4874220000000  0.4977140000000  0.4819790000000 1.0
C      1  0.4467660000000  0.4463930000000  0.4403980000000 1.0
C      1  0.5219370000000  0.4166530000000  0.5549640000000 1.0
C      1  0.5181230000000  0.5760930000000  0.5825390000000 1.0
C      1  0.3985840000000  0.5279860000000  0.4374470000000 1.0
C      1  0.5784090000000  0.4115190000000  0.4807070000000 1.0
C      1  0.5160740000000  0.3808650000000  0.5137990000000 1.0
C      1  0.4801570000000  0.4765740000000  0.5556770000000 1.0
C      1  0.5134680000000  0.4257200000000  0.5231100000000 1.0
C      1  0.5328020000000  0.4383790000000  0.5723230000000 1.0
C      1  0.5546170000000  0.5842820000000  0.4829580000000 1.0
C      1  0.6109490000000  0.4586470000000  0.4857550000000 1.0
C      1  0.6166060000000  0.5407100000000  0.5422370000000 1.0
C      1  0.4992740000000  0.4804490000000  0.5905340000000 1.0
C      1  0.4902130000000  0.3910430000000  0.4692850000000 1.0
C      1  0.4169870000000  0.5776920000000  0.4862360000000 1.0
C      1  0.4597290000000  0.4203620000000  0.5484030000000 1.0
C      1  0.4252300000000  0.5540880000000  0.5896660000000 1.0
C      1  0.4632460000000  0.5808030000000  0.5679880000000 1.0
C      1  0.4110350000000  0.5330990000000  0.4643250000000 1.0
C      1  0.5467620000000  0.4550780000000  0.5506300000000 1.0
C      1  0.5680460000000  0.5409710000000  0.5250000000000 1.0
C      1  0.5214950000000  0.6056520000000  0.4616980000000 1.0
C      1  0.4548620000000  0.5678000000000  0.4048250000000 1.0
C      1  0.4591250000000  0.5889410000000  0.5070840000000 1.0
C      1  0.5182940000000  0.5301360000000  0.4410940000000 1.0
C      1  0.5387380000000  0.4335030000000  0.5035510000000 1.0
C      1  0.4806940000000  0.4219030000000  0.5215930000000 1.0
C      1  0.5528610000000  0.4706290000000  0.4091270000000 1.0
C      1  0.4555330000000  0.4073990000000  0.4662220000000 1.0
C      1  0.4006060000000  0.4920780000000  0.5333410000000 1.0
C      1  0.4016890000000  0.5423270000000  0.5376200000000 1.0
C      1  0.4279400000000  0.4259710000000  0.4691220000000 1.0
C      1  0.5554460000000  0.4698240000000  0.6140630000000 1.0
C      1  0.5684110000000  0.3974350000000  0.5045050000000 1.0
C      1  0.4642630000000  0.5147180000000  0.5097420000000 1.0
C      1  0.5642140000000  0.4821120000000  0.5531380000000 1.0
C      1  0.5768710000000  0.4107120000000  0.5295250000000 1.0
C      1  0.5797150000000  0.5083250000000  0.5625970000000 1.0
C      1  0.5441330000000  0.6088320000000  0.5373300000000 1.0
C      1  0.5614170000000  0.5791080000000  0.5349680000000 1.0
C      1  0.4845980000000  0.4980460000000  0.6080950000000 1.0
C      1  0.4899490000000  0.5469080000000  0.4420260000000 1.0
C      1  0.3873590000000  0.5358890000000  0.5129840000000 1.0
C      1  0.5431070000000  0.4382960000000  0.4050970000000 1.0
C      1  0.5241730000000  0.4739140000000  0.5388920000000 1.0
C      1  0.5919990000000  0.5195200000000  0.5364820000000 1.0
C      1  0.5222210000000  0.5344210000000  0.4954340000000 1.0
C      1  0.5903190000000  0.4285430000000  0.5511070000000 1.0
C      1  0.5725520000000  0.5664620000000  0.5049900000000 1.0
C      1  0.4360900000000  0.5201730000000  0.4260260000000 1.0
C      1  0.4960060000000  0.4738270000000  0.4687680000000 1.0
C      1  0.4578740000000  0.5455280000000  0.4300770000000 1.0
C      1  0.5081720000000  0.3897400000000  0.5393380000000 1.0
C      1  0.5406220000000  0.4497230000000  0.6031090000000 1.0
C      1  0.4875750000000  0.5485510000000  0.5314370000000 1.0
C      1  0.4700640000000  0.5901170000000  0.4086500000000 1.0
C      1  0.4543620000000  0.5601020000000  0.4578940000000 1.0
C      1  0.5518320000000  0.5020590000000  0.6172230000000 1.0
C      1  0.4290760000000  0.4661310000000  0.5437230000000 1.0
C      1  0.5314490000000  0.4856690000000  0.5108780000000 1.0
C      1  0.5044080000000  0.5420700000000  0.5668600000000 1.0
C      1  0.4456940000000  0.5086410000000  0.5374740000000 1.0
C      1  0.5914350000000  0.4837270000000  0.4482780000000 1.0
C      1  0.4208300000000  0.4347350000000  0.5011970000000 1.0
C      1  0.4738440000000  0.5464940000000  0.4784400000000 1.0
C      1  0.5589680000000  0.5013090000000  0.5043400000000 1.0
C      1  0.4554470000000  0.4762730000000  0.5321920000000 1.0
C      1  0.4972070000000  0.5409430000000  0.3918320000000 1.0
C      1  0.5573890000000  0.4164450000000  0.4544090000000 1.0
C      1  0.5089910000000  0.4498770000000  0.5938060000000 1.0
C      1  0.6037980000000  0.4817380000000  0.4989590000000 1.0
C      1  0.5293410000000  0.4350890000000  0.4464900000000 1.0
C      1  0.5241770000000  0.5072000000000  0.4192370000000 1.0
C      1  0.5864820000000  0.4583170000000  0.5479110000000 1.0
C      1  0.5004720000000  0.5867930000000  0.5361180000000 1.0
C      1  0.4493210000000  0.5605490000000  0.5332290000000 1.0
C      1  0.4427730000000  0.4612810000000  0.5806740000000 1.0
C      1  0.5256730000000  0.4778650000000  0.4606850000000 1.0
C      1  0.5424870000000  0.5709250000000  0.5584850000000 1.0
C      1  0.4891900000000  0.4437870000000  0.5597790000000 1.0
C      1  0.5135130000000  0.4055500000000  0.4519520000000 1.0
C      1  0.5026380000000  0.4531670000000  0.5331630000000 1.0
C      1  0.4362320000000  0.4371020000000  0.5572030000000 1.0
C      1  0.4098910000000  0.5141360000000  0.5553590000000 1.0
C      1  0.5808640000000  0.4900350000000  0.6099790000000 1.0
C      1  0.4970740000000  0.3796990000000  0.4926480000000 1.0
C      1  0.5410980000000  0.5904910000000  0.5097000000000 1.0
C      1  0.5655610000000  0.4525370000000  0.4919750000000 1.0
C      1  0.6430470000000  0.5400910000000  0.5478520000000 1.0
C      1  0.5274040000000  0.4633650000000  0.4907600000000 1.0
C      1  0.5181230000000  0.6102320000000  0.5485500000000 1.0
C      1  0.4334830000000  0.5234970000000  0.6021220000000 1.0
C      1  0.4826090000000  0.4507200000000  0.4864310000000 1.0
C      1  0.4676510000000  0.4141620000000  0.4927390000000 1.0
C      1  0.4724050000000  0.5850160000000  0.4552480000000 1.0
C      1  0.4607930000000  0.5056660000000  0.5957940000000 1.0
C      1  0.4287570000000  0.5849700000000  0.5095170000000 1.0
C      1  0.5100750000000  0.5067330000000  0.5023200000000 1.0
C      1  0.5415790000000  0.5240800000000  0.5216820000000 1.0
C      1  0.5550460000000  0.4960070000000  0.3964070000000 1.0
C      1  0.4351340000000  0.5736710000000  0.5684630000000 1.0
C      1  0.4525980000000  0.4380600000000  0.5109320000000 1.0
C      1  0.4334540000000  0.5371210000000  0.5493450000000 1.0
C      1  0.5416030000000  0.5470140000000  0.4558780000000 1.0
C      1  0.4567680000000  0.5445260000000  0.5884650000000 1.0
C      1  0.5140550000000  0.4486720000000  0.3993420000000 1.0
C      1  0.5436700000000  0.3833410000000  0.5064310000000 1.0
C      1  0.5069770000000  0.5104640000000  0.3898970000000 1.0
C      1  0.4756590000000  0.4556150000000  0.5872490000000 1.0
C      1  0.4715600000000  0.5846320000000  0.5378710000000 1.0
C      1  0.4884040000000  0.5415250000000  0.5969550000000 1.0
C      1  0.5644930000000  0.4338690000000  0.4279460000000 1.0
C      1  0.4156600000000  0.4487800000000  0.4472920000000 1.0
C      1  0.4803780000000  0.4894620000000  0.3849040000000 1.0
C      1  0.5303740000000  0.5414410000000  0.3995230000000 1.0
C      1  0.4363460000000  0.4750300000000  0.4031490000000 1.0
C      1  0.5107050000000  0.5861250000000  0.5060430000000 1.0
C      1  0.4996530000000  0.4762420000000  0.4295030000000 1.0
C      1  0.5937230000000  0.5591740000000  0.5379000000000 1.0
C      1  0.4377130000000  0.5209790000000  0.4808300000000 1.0
C      1  0.4478320000000  0.4928030000000  0.3835670000000 1.0
C      1  0.5055420000000  0.5508560000000  0.4727050000000 1.0
C      1  0.5548630000000  0.5104650000000  0.4335560000000 1.0
C      1  0.4016410000000  0.4865410000000  0.4735330000000 1.0
C      1  0.5119220000000  0.5184900000000  0.5875680000000 1.0
C      1  0.5818520000000  0.5570140000000  0.4742260000000 1.0
C      1  0.4843090000000  0.5168120000000  0.5438240000000 1.0
C      1  0.5876980000000  0.4475610000000  0.5161800000000 1.0
C      1  0.5957410000000  0.5000020000000  0.5881100000000 1.0
C      1  0.5130860000000  0.4941860000000  0.5636430000000 1.0
C      1  0.4179860000000  0.5722400000000  0.5391530000000 1.0
C      1  0.4712450000000  0.5424270000000  0.5610610000000 1.0
END
