TITL C-2778437-8639-828 0.0068633015326975 125000 -836.86004029828 0 0 144 (C1) n - 1
REM
REM in /home/nfs/bkarasulu/CARBON/AIRSS/Generating-Clusters/REBO/Only-C1/SD-CG/HFTN-CG
REM
REM
REM
REM
REM
REM ./C.cell (11c1c37f851c82e70ff6c80c92926a4b)
REM
REM compiler GCC version 9.2.1 20190827 (Red Hat 9.2.1-1)
REM options -cpp -mtune=generic -march=x86-64 -g -O0 -fpre-include=/usr/include/finclude/math-vector-fortran.h
REM seed -327701983 1868419952 1460004548 817852042 -1951186371 1780281244 -407621612 1240172054 729322741 -1771406534 1674623907 1100801336 1724246894 -1552794660 516914464 -372472696 406241831 -1632951441 -519743683 -1796954093 660829011 695831865 858485416 1851007084 -1407934219 -1676557740 -271880468 518659062 139287532 569545718 -427775054 -621606214 -1590992794
REM
CELL 1.54180   50.00000   50.00000   50.00000   90.00000   90.00000   90.00000
LATT -1
SFAC C  
C      1  0.6098370000000  0.5203780000000  0.5333090000000 1.0
C      1  0.4461540000000  0.4812120000000  0.4210170000000 1.0
C      1  0.5326750000000  0.4785820000000  0.5394540000000 1.0
C      1  0.5832390000000  0.5269150000000  0.4577990000000 1.0
C      1  0.4564050000000  0.4569080000000  0.5964310000000 1.0
C      1  0.4559080000000  0.4979160000000  0.3928080000000 1.0
C      1  0.4812480000000  0.5881700000000  0.5084360000000 1.0
C      1  0.4966000000000  0.4119930000000  0.5401380000000 1.0
C      1  0.5113510000000  0.5221330000000  0.4714020000000 1.0
C      1  0.5484870000000  0.5815900000000  0.4669050000000 1.0
C      1  0.5610240000000  0.5574680000000  0.4245570000000 1.0
C      1  0.5599310000000  0.4468670000000  0.5668420000000 1.0
C      1  0.5124100000000  0.4380390000000  0.4943110000000 1.0
C      1  0.5683760000000  0.4920100000000  0.5513560000000 1.0
C      1  0.5781250000000  0.5577260000000  0.5301870000000 1.0
C      1  0.5876650000000  0.4810640000000  0.5051110000000 1.0
C      1  0.4636810000000  0.5108970000000  0.4218670000000 1.0
C      1  0.5501130000000  0.5574650000000  0.5342930000000 1.0
C      1  0.4249500000000  0.4661150000000  0.4367090000000 1.0
C      1  0.5593200000000  0.4733320000000  0.4513360000000 1.0
C      1  0.5343800000000  0.4980610000000  0.4786980000000 1.0
C      1  0.5452540000000  0.4423520000000  0.4504040000000 1.0
C      1  0.5889440000000  0.5355240000000  0.5454450000000 1.0
C      1  0.4106920000000  0.5412000000000  0.5160320000000 1.0
C      1  0.4255570000000  0.5218680000000  0.4423690000000 1.0
C      1  0.4865280000000  0.4821950000000  0.5507490000000 1.0
C      1  0.4729690000000  0.4343430000000  0.5823020000000 1.0
C      1  0.4718140000000  0.4726240000000  0.6204680000000 1.0
C      1  0.4344260000000  0.5783440000000  0.4955800000000 1.0
C      1  0.5330410000000  0.5624500000000  0.5083770000000 1.0
C      1  0.5006150000000  0.4172440000000  0.5710130000000 1.0
C      1  0.5313510000000  0.5856560000000  0.4893110000000 1.0
C      1  0.5018840000000  0.4374660000000  0.5221230000000 1.0
C      1  0.4691770000000  0.5838660000000  0.4494370000000 1.0
C      1  0.5511430000000  0.5058380000000  0.4109940000000 1.0
C      1  0.5806710000000  0.4738220000000  0.4738310000000 1.0
C      1  0.4902140000000  0.4426580000000  0.4129540000000 1.0
C      1  0.5868630000000  0.5294620000000  0.4900340000000 1.0
C      1  0.4363470000000  0.4993330000000  0.4551840000000 1.0
C      1  0.5518760000000  0.5249180000000  0.4714730000000 1.0
C      1  0.4918480000000  0.5686000000000  0.4207110000000 1.0
C      1  0.4960830000000  0.5899350000000  0.5602510000000 1.0
C      1  0.4197390000000  0.4746580000000  0.4954330000000 1.0
C      1  0.5790590000000  0.4637660000000  0.5530880000000 1.0
C      1  0.4079920000000  0.5192590000000  0.5493590000000 1.0
C      1  0.5023450000000  0.4489580000000  0.5827210000000 1.0
C      1  0.4579930000000  0.5649800000000  0.6205470000000 1.0
C      1  0.5861970000000  0.4541820000000  0.5243970000000 1.0
C      1  0.5039830000000  0.5493480000000  0.4059400000000 1.0
C      1  0.4716160000000  0.5228830000000  0.4912810000000 1.0
C      1  0.4576830000000  0.4745000000000  0.5355030000000 1.0
C      1  0.4653920000000  0.4223330000000  0.5180010000000 1.0
C      1  0.5453960000000  0.4198920000000  0.5439090000000 1.0
C      1  0.5753030000000  0.5727780000000  0.4687650000000 1.0
C      1  0.4506850000000  0.5819430000000  0.5194270000000 1.0
C      1  0.5138500000000  0.5217750000000  0.4220520000000 1.0
C      1  0.5026820000000  0.5931490000000  0.4818760000000 1.0
C      1  0.5333080000000  0.5667060000000  0.4425170000000 1.0
C      1  0.4599100000000  0.5255670000000  0.5493550000000 1.0
C      1  0.4771100000000  0.4197010000000  0.4858220000000 1.0
C      1  0.4571150000000  0.5428900000000  0.5224820000000 1.0
C      1  0.4979920000000  0.5824230000000  0.5349580000000 1.0
C      1  0.5495390000000  0.5009170000000  0.4418620000000 1.0
C      1  0.4908460000000  0.4773540000000  0.5030290000000 1.0
C      1  0.4817030000000  0.4230910000000  0.4316620000000 1.0
C      1  0.4323770000000  0.4743010000000  0.5559330000000 1.0
C      1  0.4127000000000  0.5494700000000  0.5455190000000 1.0
C      1  0.4538490000000  0.4907020000000  0.5902950000000 1.0
C      1  0.5148030000000  0.4457920000000  0.4485100000000 1.0
C      1  0.4467340000000  0.4288420000000  0.4847620000000 1.0
C      1  0.4920060000000  0.4904930000000  0.6022690000000 1.0
C      1  0.5396570000000  0.4765490000000  0.4117540000000 1.0
C      1  0.5853590000000  0.5616720000000  0.4985300000000 1.0
C      1  0.5277780000000  0.5329560000000  0.3934630000000 1.0
C      1  0.5613780000000  0.4350680000000  0.5179700000000 1.0
C      1  0.4622920000000  0.5668470000000  0.4245980000000 1.0
C      1  0.4660930000000  0.4229120000000  0.5519940000000 1.0
C      1  0.5561990000000  0.5362420000000  0.4048610000000 1.0
C      1  0.5320700000000  0.4600730000000  0.5586050000000 1.0
C      1  0.4316610000000  0.4393160000000  0.4385210000000 1.0
C      1  0.5122890000000  0.4662240000000  0.4215580000000 1.0
C      1  0.4139290000000  0.5577450000000  0.4936820000000 1.0
C      1  0.5361740000000  0.5326580000000  0.4428800000000 1.0
C      1  0.4188540000000  0.4643490000000  0.5278940000000 1.0
C      1  0.5403330000000  0.5335630000000  0.5488800000000 1.0
C      1  0.4043450000000  0.4954950000000  0.5286340000000 1.0
C      1  0.4933850000000  0.4231210000000  0.4625540000000 1.0
C      1  0.4794120000000  0.4746240000000  0.4176890000000 1.0
C      1  0.4488270000000  0.4762770000000  0.4680320000000 1.0
C      1  0.5064140000000  0.4908960000000  0.4606500000000 1.0
C      1  0.5808100000000  0.5552820000000  0.4462460000000 1.0
C      1  0.5431150000000  0.4479210000000  0.4966000000000 1.0
C      1  0.4402430000000  0.4387080000000  0.5360600000000 1.0
C      1  0.4849260000000  0.5667390000000  0.4816770000000 1.0
C      1  0.4740880000000  0.5006020000000  0.5101810000000 1.0
C      1  0.4427170000000  0.5538150000000  0.4569490000000 1.0
C      1  0.4489810000000  0.5804360000000  0.4708460000000 1.0
C      1  0.5558440000000  0.4214680000000  0.4697500000000 1.0
C      1  0.4525160000000  0.5149740000000  0.5869320000000 1.0
C      1  0.4884980000000  0.4964060000000  0.6340040000000 1.0
C      1  0.4946020000000  0.5013190000000  0.4323630000000 1.0
C      1  0.5660360000000  0.5197120000000  0.5559950000000 1.0
C      1  0.3963340000000  0.5060720000000  0.5033980000000 1.0
C      1  0.5305220000000  0.4316960000000  0.5769500000000 1.0
C      1  0.4822720000000  0.5482830000000  0.5064970000000 1.0
C      1  0.5593950000000  0.4555810000000  0.4230150000000 1.0
C      1  0.4294260000000  0.4609340000000  0.5801540000000 1.0
C      1  0.4661080000000  0.5659520000000  0.5941750000000 1.0
C      1  0.5811960000000  0.4234230000000  0.4797200000000 1.0
C      1  0.4025870000000  0.5100370000000  0.4770920000000 1.0
C      1  0.5584450000000  0.4838690000000  0.5210200000000 1.0
C      1  0.5967430000000  0.4338500000000  0.4995960000000 1.0
C      1  0.5334980000000  0.4138490000000  0.4908540000000 1.0
C      1  0.5582140000000  0.4010860000000  0.5185880000000 1.0
C      1  0.4952110000000  0.4634790000000  0.5275110000000 1.0
C      1  0.4949060000000  0.5105350000000  0.6553650000000 1.0
C      1  0.4687590000000  0.4548650000000  0.4639160000000 1.0
C      1  0.4977390000000  0.4776060000000  0.5781360000000 1.0
C      1  0.5562130000000  0.5437110000000  0.4972870000000 1.0
C      1  0.4843600000000  0.5844320000000  0.5838970000000 1.0
C      1  0.4583830000000  0.4341940000000  0.4469680000000 1.0
C      1  0.4434250000000  0.5618390000000  0.5461910000000 1.0
C      1  0.6070550000000  0.4851840000000  0.4631400000000 1.0
C      1  0.5065200000000  0.5540610000000  0.5233450000000 1.0
C      1  0.5034410000000  0.5817570000000  0.4496010000000 1.0
C      1  0.4362350000000  0.5045070000000  0.5509410000000 1.0
C      1  0.4977830000000  0.4611670000000  0.4740180000000 1.0
C      1  0.4490000000000  0.5384340000000  0.4268220000000 1.0
C      1  0.5240720000000  0.4042600000000  0.5222610000000 1.0
C      1  0.4553930000000  0.5464960000000  0.5743160000000 1.0
C      1  0.4128040000000  0.5408020000000  0.4668250000000 1.0
C      1  0.4341350000000  0.5204150000000  0.5192880000000 1.0
C      1  0.4863670000000  0.5117100000000  0.5401200000000 1.0
C      1  0.4645960000000  0.5313560000000  0.4628010000000 1.0
C      1  0.4426440000000  0.4915050000000  0.5109540000000 1.0
C      1  0.4310900000000  0.4512440000000  0.4766320000000 1.0
C      1  0.6222030000000  0.4928120000000  0.4852730000000 1.0
C      1  0.4932740000000  0.5421460000000  0.4642330000000 1.0
C      1  0.4542460000000  0.4533110000000  0.5090900000000 1.0
C      1  0.6033960000000  0.5090790000000  0.5055800000000 1.0
C      1  0.5121000000000  0.5298160000000  0.5418330000000 1.0
C      1  0.4096500000000  0.4812610000000  0.4631600000000 1.0
C      1  0.5510300000000  0.4765490000000  0.4902920000000 1.0
C      1  0.6013180000000  0.5056680000000  0.4455130000000 1.0
END
