TITL C-2778435-5768-1314 0.000290275764457161 125000 -769.74521238472 0 0 133 (C1) n - 1
REM
REM in /home/nfs/bkarasulu/CARBON/AIRSS/Generating-Clusters/REBO/Only-C1/SD-CG/HFTN-CG
REM
REM
REM
REM
REM
REM ./C.cell (11c1c37f851c82e70ff6c80c92926a4b)
REM
REM compiler GCC version 9.2.1 20190827 (Red Hat 9.2.1-1)
REM options -cpp -mtune=generic -march=x86-64 -g -O0 -fpre-include=/usr/include/finclude/math-vector-fortran.h
REM seed -838595933 -394172797 -1585465940 -1334755873 1245468944 -2069680403 219362557 -492332425 774268206 1241277390 -317972974 1913469051 -1396328265 938493265 -1376208462 872187950 1111472572 -1320890470 1077461120 -1403868507 -169353876 -904099489 -1079002437 -1239901617 1684761948 -1687409781 881090368 1954272028 1377499999 1255657714 -1413238139 1660036762 -1832809610
REM
CELL 1.54180   50.00000   50.00000   50.00000   90.00000   90.00000   90.00000
LATT -1
SFAC C  
C      1  0.5840430000000  0.5419720000000  0.4982980000000 1.0
C      1  0.5178730000000  0.5052230000000  0.5246330000000 1.0
C      1  0.5233890000000  0.5996800000000  0.5163980000000 1.0
C      1  0.4360420000000  0.5109010000000  0.5876080000000 1.0
C      1  0.4377550000000  0.5265040000000  0.4594660000000 1.0
C      1  0.4640000000000  0.5522540000000  0.5804560000000 1.0
C      1  0.4761930000000  0.5592740000000  0.4512260000000 1.0
C      1  0.4955430000000  0.4086000000000  0.5126360000000 1.0
C      1  0.5052110000000  0.4213830000000  0.4762180000000 1.0
C      1  0.4180370000000  0.4662150000000  0.4601150000000 1.0
C      1  0.3971220000000  0.4941190000000  0.5003570000000 1.0
C      1  0.5549260000000  0.5367390000000  0.5863360000000 1.0
C      1  0.4741780000000  0.4908650000000  0.4118380000000 1.0
C      1  0.4369310000000  0.4987450000000  0.5622890000000 1.0
C      1  0.5150960000000  0.4282060000000  0.4382130000000 1.0
C      1  0.5196450000000  0.5313050000000  0.5443650000000 1.0
C      1  0.4581300000000  0.5365000000000  0.4394030000000 1.0
C      1  0.4721760000000  0.5093120000000  0.5400220000000 1.0
C      1  0.5495420000000  0.4736800000000  0.4182000000000 1.0
C      1  0.4925430000000  0.5936030000000  0.4808090000000 1.0
C      1  0.4811530000000  0.4538090000000  0.4777790000000 1.0
C      1  0.4305170000000  0.4424150000000  0.5029520000000 1.0
C      1  0.4488090000000  0.5343180000000  0.5939260000000 1.0
C      1  0.4814800000000  0.4139300000000  0.4756290000000 1.0
C      1  0.4615220000000  0.4818450000000  0.4420640000000 1.0
C      1  0.4006590000000  0.5526100000000  0.5202400000000 1.0
C      1  0.4110290000000  0.5103950000000  0.4528240000000 1.0
C      1  0.4145680000000  0.4677520000000  0.4873450000000 1.0
C      1  0.4314680000000  0.4384080000000  0.5864260000000 1.0
C      1  0.5857400000000  0.5252870000000  0.5220630000000 1.0
C      1  0.5118720000000  0.4444560000000  0.5264550000000 1.0
C      1  0.5621800000000  0.5565710000000  0.5290110000000 1.0
C      1  0.4299090000000  0.5150620000000  0.5113640000000 1.0
C      1  0.5059020000000  0.5146720000000  0.4135300000000 1.0
C      1  0.5240700000000  0.5372480000000  0.4407600000000 1.0
C      1  0.5318760000000  0.5682320000000  0.5227410000000 1.0
C      1  0.6039410000000  0.4794010000000  0.5122420000000 1.0
C      1  0.4630810000000  0.4938170000000  0.5046740000000 1.0
C      1  0.4510420000000  0.4205810000000  0.4893820000000 1.0
C      1  0.5740500000000  0.4842710000000  0.4387900000000 1.0
C      1  0.4853860000000  0.4406490000000  0.5051180000000 1.0
C      1  0.4835290000000  0.5180710000000  0.5100750000000 1.0
C      1  0.4700880000000  0.6042320000000  0.5203680000000 1.0
C      1  0.5246150000000  0.5873070000000  0.5480890000000 1.0
C      1  0.4434450000000  0.4467070000000  0.5629890000000 1.0
C      1  0.5496300000000  0.4577220000000  0.4676960000000 1.0
C      1  0.5617400000000  0.5668420000000  0.4917700000000 1.0
C      1  0.5041920000000  0.5583890000000  0.4797380000000 1.0
C      1  0.5489430000000  0.4875940000000  0.4619200000000 1.0
C      1  0.4734480000000  0.5249660000000  0.4131380000000 1.0
C      1  0.4453710000000  0.5929880000000  0.5188150000000 1.0
C      1  0.4807030000000  0.4897940000000  0.5582570000000 1.0
C      1  0.5570340000000  0.5108360000000  0.4305260000000 1.0
C      1  0.5203480000000  0.5846100000000  0.4664600000000 1.0
C      1  0.4422250000000  0.5187520000000  0.5390300000000 1.0
C      1  0.4934890000000  0.5523450000000  0.4160000000000 1.0
C      1  0.4775640000000  0.5488830000000  0.5176700000000 1.0
C      1  0.4911870000000  0.4682070000000  0.3992830000000 1.0
C      1  0.5720740000000  0.3994910000000  0.5213160000000 1.0
C      1  0.5672030000000  0.5109060000000  0.5715890000000 1.0
C      1  0.5378810000000  0.4961130000000  0.5482300000000 1.0
C      1  0.5867970000000  0.5227860000000  0.4724930000000 1.0
C      1  0.5339890000000  0.4938630000000  0.4984630000000 1.0
C      1  0.5037650000000  0.4750410000000  0.5506990000000 1.0
C      1  0.5462150000000  0.5340310000000  0.5083690000000 1.0
C      1  0.5773920000000  0.4883070000000  0.5580330000000 1.0
C      1  0.5250490000000  0.4074910000000  0.5191730000000 1.0
C      1  0.5445890000000  0.4295170000000  0.4510930000000 1.0
C      1  0.4884770000000  0.5112980000000  0.5986090000000 1.0
C      1  0.5945300000000  0.4960060000000  0.5337840000000 1.0
C      1  0.4864870000000  0.4159650000000  0.5577520000000 1.0
C      1  0.5576320000000  0.5088490000000  0.5265200000000 1.0
C      1  0.4041750000000  0.4478620000000  0.5203880000000 1.0
C      1  0.5508830000000  0.4086860000000  0.5064170000000 1.0
C      1  0.5196520000000  0.4660810000000  0.4033710000000 1.0
C      1  0.4584280000000  0.4255670000000  0.5444870000000 1.0
C      1  0.5101630000000  0.4806830000000  0.4535680000000 1.0
C      1  0.5636550000000  0.5042280000000  0.4857960000000 1.0
C      1  0.4783770000000  0.4429670000000  0.4035950000000 1.0
C      1  0.4893110000000  0.5009020000000  0.4405540000000 1.0
C      1  0.5270470000000  0.4952110000000  0.4295390000000 1.0
C      1  0.4966110000000  0.4517660000000  0.4518800000000 1.0
C      1  0.5641830000000  0.4808590000000  0.5086900000000 1.0
C      1  0.3958310000000  0.4983650000000  0.4684690000000 1.0
C      1  0.4445220000000  0.4734810000000  0.5533340000000 1.0
C      1  0.5383020000000  0.4645700000000  0.5338890000000 1.0
C      1  0.5454400000000  0.5402840000000  0.5478530000000 1.0
C      1  0.5576150000000  0.4214180000000  0.4814470000000 1.0
C      1  0.5382080000000  0.4429250000000  0.4203740000000 1.0
C      1  0.5356740000000  0.5295970000000  0.4112940000000 1.0
C      1  0.5489480000000  0.4509420000000  0.5067550000000 1.0
C      1  0.5040410000000  0.4752030000000  0.5164460000000 1.0
C      1  0.4521700000000  0.4339440000000  0.4586650000000 1.0
C      1  0.4580660000000  0.5614300000000  0.4978740000000 1.0
C      1  0.4843420000000  0.4315060000000  0.4275640000000 1.0
C      1  0.4344010000000  0.5407170000000  0.4894800000000 1.0
C      1  0.4414240000000  0.5479010000000  0.5478930000000 1.0
C      1  0.4262130000000  0.5690820000000  0.5066650000000 1.0
C      1  0.5958300000000  0.4720790000000  0.4858830000000 1.0
C      1  0.4654270000000  0.4078410000000  0.5161860000000 1.0
C      1  0.4943660000000  0.6044460000000  0.5074710000000 1.0
C      1  0.5512940000000  0.5405270000000  0.4754860000000 1.0
C      1  0.5056540000000  0.5194730000000  0.4877100000000 1.0
C      1  0.4582530000000  0.4466340000000  0.5187870000000 1.0
C      1  0.4562560000000  0.4748900000000  0.5274990000000 1.0
C      1  0.5113420000000  0.4203990000000  0.5470830000000 1.0
C      1  0.3912990000000  0.4693750000000  0.5197960000000 1.0
C      1  0.4734410000000  0.5548930000000  0.5483460000000 1.0
C      1  0.5313190000000  0.5161080000000  0.4655910000000 1.0
C      1  0.5577380000000  0.5498170000000  0.4232830000000 1.0
C      1  0.5940650000000  0.4907920000000  0.4640120000000 1.0
C      1  0.5079680000000  0.5666300000000  0.4408730000000 1.0
C      1  0.5423780000000  0.5622010000000  0.5863250000000 1.0
C      1  0.5141680000000  0.5464510000000  0.5077650000000 1.0
C      1  0.4692250000000  0.5762570000000  0.4745310000000 1.0
C      1  0.5578280000000  0.4648470000000  0.5612170000000 1.0
C      1  0.5251610000000  0.4660040000000  0.5709180000000 1.0
C      1  0.4633000000000  0.4785490000000  0.4754170000000 1.0
C      1  0.4735900000000  0.4922280000000  0.5855930000000 1.0
C      1  0.5421580000000  0.5886230000000  0.4901290000000 1.0
C      1  0.4960170000000  0.5334750000000  0.4593070000000 1.0
C      1  0.5244700000000  0.4432800000000  0.4851880000000 1.0
C      1  0.5196370000000  0.5713070000000  0.5709230000000 1.0
C      1  0.5774040000000  0.4490880000000  0.4839520000000 1.0
C      1  0.5147660000000  0.4744040000000  0.4839040000000 1.0
C      1  0.4173160000000  0.5599250000000  0.5445140000000 1.0
C      1  0.5692150000000  0.5360020000000  0.4483850000000 1.0
C      1  0.5000210000000  0.5477050000000  0.5637390000000 1.0
C      1  0.4423910000000  0.4576270000000  0.4486150000000 1.0
C      1  0.3991410000000  0.5250970000000  0.5115930000000 1.0
C      1  0.5070120000000  0.5237400000000  0.5831300000000 1.0
C      1  0.4405320000000  0.5022020000000  0.4820540000000 1.0
C      1  0.5340750000000  0.5121860000000  0.5763570000000 1.0
END
