TITL C-2778433-5640-302 -0.00325604552085293 125000 -617.145053266807 0 0 105 (C1) n - 1
REM
REM in /home/nfs/bkarasulu/CARBON/AIRSS/Generating-Clusters/REBO/Only-C1/SD-CG/HFTN-CG
REM
REM
REM
REM
REM
REM ./C.cell (11c1c37f851c82e70ff6c80c92926a4b)
REM
REM compiler GCC version 9.2.1 20190827 (Red Hat 9.2.1-1)
REM options -cpp -mtune=generic -march=x86-64 -g -O0 -fpre-include=/usr/include/finclude/math-vector-fortran.h
REM seed 1149093351 -269956845 -1647456312 -1810360004 584829523 1745183515 86547027 1848436672 -835198561 149795448 1860462916 -2141148969 -1731740607 286328388 -466826604 95240400 1072239258 -154856565 825250399 721034643 -783827282 -1756690719 1719736263 -209689279 818780132 1455747504 -1535844650 917133743 437251960 -1064636772 922023692 -684685074 1683001448
REM
CELL 1.54180   50.00000   50.00000   50.00000   90.00000   90.00000   90.00000
LATT -1
SFAC C  
C      1  0.5458770000000  0.4802110000000  0.5669890000000 1.0
C      1  0.5775450000000  0.4905870000000  0.4454070000000 1.0
C      1  0.4209010000000  0.4881290000000  0.5363080000000 1.0
C      1  0.5439310000000  0.4303380000000  0.5340570000000 1.0
C      1  0.4724440000000  0.4827380000000  0.5177600000000 1.0
C      1  0.4922560000000  0.4935550000000  0.4795600000000 1.0
C      1  0.5321450000000  0.5254160000000  0.4180900000000 1.0
C      1  0.4682590000000  0.5631070000000  0.4410900000000 1.0
C      1  0.5326210000000  0.5779520000000  0.5000070000000 1.0
C      1  0.5789470000000  0.5167200000000  0.5476060000000 1.0
C      1  0.5821600000000  0.4573780000000  0.5241950000000 1.0
C      1  0.4864600000000  0.4138170000000  0.5082540000000 1.0
C      1  0.4256160000000  0.4848830000000  0.4533050000000 1.0
C      1  0.5198900000000  0.4940080000000  0.5647140000000 1.0
C      1  0.5686590000000  0.4981140000000  0.5653970000000 1.0
C      1  0.5705260000000  0.4611670000000  0.4453790000000 1.0
C      1  0.5612960000000  0.4349320000000  0.4888850000000 1.0
C      1  0.5670300000000  0.4333290000000  0.5173260000000 1.0
C      1  0.4425690000000  0.4517250000000  0.4893090000000 1.0
C      1  0.4441940000000  0.4857250000000  0.5580420000000 1.0
C      1  0.4787000000000  0.4493630000000  0.5604560000000 1.0
C      1  0.4606560000000  0.4289420000000  0.5164800000000 1.0
C      1  0.4829240000000  0.5851240000000  0.4863130000000 1.0
C      1  0.5896470000000  0.5062540000000  0.4732020000000 1.0
C      1  0.4237650000000  0.5379880000000  0.5410430000000 1.0
C      1  0.4336000000000  0.5639770000000  0.5224710000000 1.0
C      1  0.4773000000000  0.5686510000000  0.5615170000000 1.0
C      1  0.4055540000000  0.5192420000000  0.4991060000000 1.0
C      1  0.4530330000000  0.5198070000000  0.4746210000000 1.0
C      1  0.4805250000000  0.4531540000000  0.5058610000000 1.0
C      1  0.4489840000000  0.4527060000000  0.5562520000000 1.0
C      1  0.4791590000000  0.4647560000000  0.4766840000000 1.0
C      1  0.5096960000000  0.5067340000000  0.5126380000000 1.0
C      1  0.5305060000000  0.4695390000000  0.4167020000000 1.0
C      1  0.5181390000000  0.4602670000000  0.5285220000000 1.0
C      1  0.4533530000000  0.4670610000000  0.4540980000000 1.0
C      1  0.5649980000000  0.4796450000000  0.5302100000000 1.0
C      1  0.4844370000000  0.5204790000000  0.4990650000000 1.0
C      1  0.5323140000000  0.4490900000000  0.4881070000000 1.0
C      1  0.4137310000000  0.5144680000000  0.5276110000000 1.0
C      1  0.5773900000000  0.4422840000000  0.4663970000000 1.0
C      1  0.4943590000000  0.4995840000000  0.5827520000000 1.0
C      1  0.4407570000000  0.5487610000000  0.4663280000000 1.0
C      1  0.5367830000000  0.5129050000000  0.4985140000000 1.0
C      1  0.4743840000000  0.5076040000000  0.4567710000000 1.0
C      1  0.5167990000000  0.4209030000000  0.5224320000000 1.0
C      1  0.4904240000000  0.5761170000000  0.5160920000000 1.0
C      1  0.4631830000000  0.5446320000000  0.5409490000000 1.0
C      1  0.4192190000000  0.4620560000000  0.5227450000000 1.0
C      1  0.5363930000000  0.5294050000000  0.5756880000000 1.0
C      1  0.5490300000000  0.5007270000000  0.5264640000000 1.0
C      1  0.4516610000000  0.5341420000000  0.4374660000000 1.0
C      1  0.4730490000000  0.4759530000000  0.4303560000000 1.0
C      1  0.5559190000000  0.5123370000000  0.4527720000000 1.0
C      1  0.4491410000000  0.4771560000000  0.5000140000000 1.0
C      1  0.5800220000000  0.5314650000000  0.4926430000000 1.0
C      1  0.4648650000000  0.5413160000000  0.5751850000000 1.0
C      1  0.4338450000000  0.5364010000000  0.5666530000000 1.0
C      1  0.5477090000000  0.5411900000000  0.4981910000000 1.0
C      1  0.4898650000000  0.4518920000000  0.4484300000000 1.0
C      1  0.5985420000000  0.4649310000000  0.5021730000000 1.0
C      1  0.4390310000000  0.4417690000000  0.5312930000000 1.0
C      1  0.4279650000000  0.5411680000000  0.4971050000000 1.0
C      1  0.4871720000000  0.5147270000000  0.5539470000000 1.0
C      1  0.5743490000000  0.5332880000000  0.5262610000000 1.0
C      1  0.5398860000000  0.5597590000000  0.4721800000000 1.0
C      1  0.4773750000000  0.5071840000000  0.4187240000000 1.0
C      1  0.4722780000000  0.4176760000000  0.4588270000000 1.0
C      1  0.5321100000000  0.4294070000000  0.4419700000000 1.0
C      1  0.5398350000000  0.5243110000000  0.5443730000000 1.0
C      1  0.5286640000000  0.4993780000000  0.4083120000000 1.0
C      1  0.5463770000000  0.4526030000000  0.4320460000000 1.0
C      1  0.4597250000000  0.5369540000000  0.5099940000000 1.0
C      1  0.4899100000000  0.5301970000000  0.5901960000000 1.0
C      1  0.4983190000000  0.5447290000000  0.5162750000000 1.0
C      1  0.5414630000000  0.4977220000000  0.4735630000000 1.0
C      1  0.4729620000000  0.4778870000000  0.5747460000000 1.0
C      1  0.5075930000000  0.5657500000000  0.5596260000000 1.0
C      1  0.4938520000000  0.5736500000000  0.4589410000000 1.0
C      1  0.4995010000000  0.4596920000000  0.4170940000000 1.0
C      1  0.4552740000000  0.5789640000000  0.4664800000000 1.0
C      1  0.5148360000000  0.4758750000000  0.4983350000000 1.0
C      1  0.5416700000000  0.4553080000000  0.5515790000000 1.0
C      1  0.5083990000000  0.5352720000000  0.5439840000000 1.0
C      1  0.5216770000000  0.5738270000000  0.5299450000000 1.0
C      1  0.4453360000000  0.5032090000000  0.4392420000000 1.0
C      1  0.4685170000000  0.4980760000000  0.5405190000000 1.0
C      1  0.5826280000000  0.4782460000000  0.4829690000000 1.0
C      1  0.4535490000000  0.4359720000000  0.4660580000000 1.0
C      1  0.5143370000000  0.5445660000000  0.5824270000000 1.0
C      1  0.5646980000000  0.5383510000000  0.4628330000000 1.0
C      1  0.4088280000000  0.4971810000000  0.4770200000000 1.0
C      1  0.5540970000000  0.4730700000000  0.4798140000000 1.0
C      1  0.4994070000000  0.4908060000000  0.4046300000000 1.0
C      1  0.5176910000000  0.5603490000000  0.4522250000000 1.0
C      1  0.5048630000000  0.4248750000000  0.4586500000000 1.0
C      1  0.5458170000000  0.5523110000000  0.5276270000000 1.0
C      1  0.4620600000000  0.5786790000000  0.5347770000000 1.0
C      1  0.4838680000000  0.5374440000000  0.4261610000000 1.0
C      1  0.4562120000000  0.5685230000000  0.4972620000000 1.0
C      1  0.5139150000000  0.5423510000000  0.4311590000000 1.0
C      1  0.5120500000000  0.4249670000000  0.4887740000000 1.0
C      1  0.4934100000000  0.4418550000000  0.5354180000000 1.0
C      1  0.4384150000000  0.5000190000000  0.4879030000000 1.0
C      1  0.5123980000000  0.4892160000000  0.5370840000000 1.0
END
