TITL C-2778435-5768-996 -0.00836299610232837 125000 -990.000160842945 0 0 170 (C1) n - 1
REM
REM in /home/nfs/bkarasulu/CARBON/AIRSS/Generating-Clusters/REBO/Only-C1/SD-CG/HFTN-CG
REM
REM
REM
REM
REM
REM ./C.cell (11c1c37f851c82e70ff6c80c92926a4b)
REM
REM compiler GCC version 9.2.1 20190827 (Red Hat 9.2.1-1)
REM options -cpp -mtune=generic -march=x86-64 -g -O0 -fpre-include=/usr/include/finclude/math-vector-fortran.h
REM seed 1788622773 -1076327547 1207710626 258677394 413413794 -1034064486 384745850 433143842 944659393 -474807626 1193383720 -1515541724 -521644086 -808968432 1810178817 2021831463 -1640402030 -2076523912 -1967769548 -304007972 -543510794 -1606807674 457048813 -517384696 1204695796 1027177901 -1032699078 -1522347358 -2143412704 2059414626 -1724873786 882011661 759330388
REM
CELL 1.54180   50.00000   50.00000   50.00000   90.00000   90.00000   90.00000
LATT -1
SFAC C  
C      1  0.4053540000000  0.4669190000000  0.4183220000000 1.0
C      1  0.5209700000000  0.4822100000000  0.3968320000000 1.0
C      1  0.5129010000000  0.5668410000000  0.4147090000000 1.0
C      1  0.5306150000000  0.4925770000000  0.5246790000000 1.0
C      1  0.6160530000000  0.5163880000000  0.4676000000000 1.0
C      1  0.5121750000000  0.5198110000000  0.5473800000000 1.0
C      1  0.5465550000000  0.5743500000000  0.5318360000000 1.0
C      1  0.5859770000000  0.5499640000000  0.5330690000000 1.0
C      1  0.5712550000000  0.4381310000000  0.5489100000000 1.0
C      1  0.5345070000000  0.5443700000000  0.5399420000000 1.0
C      1  0.4784120000000  0.4211990000000  0.5096940000000 1.0
C      1  0.4921650000000  0.5116160000000  0.4514800000000 1.0
C      1  0.4558010000000  0.5374020000000  0.4782830000000 1.0
C      1  0.5122400000000  0.4559460000000  0.5422120000000 1.0
C      1  0.4041580000000  0.4353820000000  0.5179500000000 1.0
C      1  0.4744030000000  0.6007030000000  0.4968430000000 1.0
C      1  0.3983440000000  0.4487170000000  0.4894710000000 1.0
C      1  0.4807120000000  0.4500210000000  0.5810980000000 1.0
C      1  0.5245460000000  0.6093440000000  0.4517530000000 1.0
C      1  0.4424040000000  0.4577260000000  0.5023400000000 1.0
C      1  0.4848140000000  0.4884900000000  0.6089420000000 1.0
C      1  0.5725260000000  0.4887910000000  0.4759320000000 1.0
C      1  0.5022250000000  0.3895370000000  0.5151140000000 1.0
C      1  0.4284350000000  0.4864320000000  0.4975500000000 1.0
C      1  0.5779900000000  0.4528090000000  0.4922680000000 1.0
C      1  0.5156490000000  0.5796890000000  0.5237380000000 1.0
C      1  0.4846080000000  0.5489360000000  0.4536230000000 1.0
C      1  0.5270520000000  0.5753480000000  0.4858800000000 1.0
C      1  0.5686830000000  0.5008460000000  0.5336050000000 1.0
C      1  0.5672210000000  0.4437670000000  0.4082240000000 1.0
C      1  0.4491900000000  0.4461980000000  0.5329340000000 1.0
C      1  0.5010960000000  0.3961120000000  0.4886190000000 1.0
C      1  0.4962100000000  0.5551080000000  0.5377850000000 1.0
C      1  0.4796330000000  0.5054150000000  0.4012700000000 1.0
C      1  0.4352380000000  0.4906350000000  0.5366040000000 1.0
C      1  0.5992060000000  0.4726200000000  0.4510420000000 1.0
C      1  0.5790170000000  0.5182890000000  0.4874790000000 1.0
C      1  0.5587450000000  0.5995810000000  0.5788770000000 1.0
C      1  0.4963110000000  0.4258610000000  0.5623050000000 1.0
C      1  0.4431380000000  0.5925290000000  0.5036670000000 1.0
C      1  0.4697830000000  0.5653770000000  0.4100280000000 1.0
C      1  0.5815760000000  0.4834250000000  0.5068530000000 1.0
C      1  0.4587740000000  0.5126140000000  0.4569190000000 1.0
C      1  0.5512570000000  0.4573960000000  0.5074390000000 1.0
C      1  0.4405430000000  0.4853880000000  0.4659730000000 1.0
C      1  0.5320510000000  0.5092620000000  0.4395680000000 1.0
C      1  0.5926860000000  0.5039280000000  0.4528750000000 1.0
C      1  0.5869740000000  0.5618410000000  0.4831010000000 1.0
C      1  0.5575090000000  0.5354890000000  0.4776640000000 1.0
C      1  0.5013640000000  0.5619640000000  0.4800940000000 1.0
C      1  0.4289980000000  0.4221790000000  0.5208220000000 1.0
C      1  0.5539650000000  0.4322600000000  0.5692050000000 1.0
C      1  0.6079680000000  0.4601360000000  0.4778970000000 1.0
C      1  0.3945790000000  0.4674960000000  0.3933340000000 1.0
C      1  0.6108810000000  0.4902880000000  0.5140900000000 1.0
C      1  0.4823180000000  0.4764220000000  0.5589290000000 1.0
C      1  0.5212300000000  0.4492030000000  0.4677560000000 1.0
C      1  0.4313890000000  0.5714660000000  0.5595440000000 1.0
C      1  0.5419020000000  0.4642030000000  0.4019500000000 1.0
C      1  0.5187060000000  0.5323740000000  0.4573320000000 1.0
C      1  0.4568220000000  0.4867830000000  0.6038830000000 1.0
C      1  0.4009920000000  0.4541520000000  0.5395380000000 1.0
C      1  0.4582170000000  0.4094200000000  0.5549090000000 1.0
C      1  0.5266480000000  0.5860070000000  0.4392580000000 1.0
C      1  0.3491870000000  0.5115450000000  0.4855360000000 1.0
C      1  0.4983630000000  0.4679460000000  0.5138390000000 1.0
C      1  0.4465240000000  0.5375290000000  0.5308360000000 1.0
C      1  0.4650040000000  0.4721260000000  0.4514030000000 1.0
C      1  0.4939670000000  0.5470770000000  0.5047390000000 1.0
C      1  0.4110090000000  0.4700900000000  0.4657640000000 1.0
C      1  0.5637370000000  0.5462720000000  0.5545120000000 1.0
C      1  0.6001760000000  0.5217120000000  0.5467110000000 1.0
C      1  0.4483700000000  0.4347760000000  0.5643680000000 1.0
C      1  0.4440320000000  0.4107790000000  0.4731450000000 1.0
C      1  0.4971960000000  0.4636240000000  0.6024350000000 1.0
C      1  0.5276790000000  0.5094620000000  0.5978700000000 1.0
C      1  0.4843270000000  0.5560860000000  0.3889520000000 1.0
C      1  0.4858510000000  0.4680100000000  0.4757610000000 1.0
C      1  0.4856000000000  0.5357300000000  0.5897120000000 1.0
C      1  0.4333340000000  0.5369440000000  0.4382410000000 1.0
C      1  0.5102520000000  0.4175880000000  0.4642720000000 1.0
C      1  0.4341700000000  0.5140300000000  0.5157190000000 1.0
C      1  0.5233390000000  0.4524680000000  0.4984790000000 1.0
C      1  0.5062060000000  0.4632830000000  0.4416470000000 1.0
C      1  0.4287670000000  0.5245540000000  0.4858560000000 1.0
C      1  0.4737070000000  0.4520900000000  0.5020210000000 1.0
C      1  0.3721980000000  0.5010140000000  0.4806740000000 1.0
C      1  0.4831510000000  0.4382520000000  0.4624150000000 1.0
C      1  0.5420610000000  0.5277590000000  0.5825460000000 1.0
C      1  0.5216560000000  0.6205260000000  0.4769420000000 1.0
C      1  0.5844200000000  0.4673740000000  0.5509500000000 1.0
C      1  0.5311570000000  0.5537610000000  0.5784860000000 1.0
C      1  0.5864050000000  0.5218490000000  0.5160830000000 1.0
C      1  0.3947300000000  0.4821780000000  0.4938380000000 1.0
C      1  0.4073970000000  0.5838370000000  0.5452910000000 1.0
C      1  0.4156450000000  0.5988330000000  0.5212240000000 1.0
C      1  0.5115830000000  0.4883740000000  0.5516690000000 1.0
C      1  0.6133780000000  0.4764750000000  0.5381610000000 1.0
C      1  0.4126490000000  0.4910890000000  0.4319260000000 1.0
C      1  0.4783910000000  0.4908190000000  0.4300660000000 1.0
C      1  0.4561150000000  0.5561990000000  0.5135850000000 1.0
C      1  0.4736230000000  0.4128150000000  0.4791230000000 1.0
C      1  0.4820360000000  0.5214300000000  0.5212890000000 1.0
C      1  0.4598870000000  0.4425640000000  0.4397400000000 1.0
C      1  0.4872030000000  0.4413620000000  0.4228790000000 1.0
C      1  0.5253310000000  0.5251070000000  0.5163000000000 1.0
C      1  0.4788970000000  0.4472180000000  0.5417950000000 1.0
C      1  0.6081920000000  0.5404170000000  0.4881730000000 1.0
C      1  0.4813370000000  0.5201230000000  0.4889280000000 1.0
C      1  0.4959820000000  0.4704500000000  0.4110220000000 1.0
C      1  0.4036630000000  0.4824240000000  0.5308530000000 1.0
C      1  0.5236160000000  0.4607670000000  0.5951420000000 1.0
C      1  0.5644910000000  0.4247850000000  0.5259890000000 1.0
C      1  0.4320590000000  0.4958340000000  0.5742570000000 1.0
C      1  0.5373980000000  0.4364460000000  0.4219260000000 1.0
C      1  0.5578250000000  0.4140080000000  0.4965180000000 1.0
C      1  0.5124000000000  0.4249940000000  0.4324290000000 1.0
C      1  0.5287230000000  0.4831170000000  0.4484680000000 1.0
C      1  0.4991400000000  0.5130090000000  0.6018390000000 1.0
C      1  0.5654770000000  0.4303350000000  0.4395410000000 1.0
C      1  0.4444820000000  0.5459140000000  0.5590320000000 1.0
C      1  0.5619360000000  0.4166750000000  0.4703170000000 1.0
C      1  0.5348540000000  0.4113280000000  0.5218370000000 1.0
C      1  0.4793810000000  0.5279030000000  0.5513290000000 1.0
C      1  0.5920440000000  0.4964200000000  0.5652790000000 1.0
C      1  0.4573540000000  0.5351310000000  0.5842880000000 1.0
C      1  0.5487670000000  0.4696940000000  0.4676270000000 1.0
C      1  0.4807030000000  0.5856760000000  0.4676530000000 1.0
C      1  0.4433800000000  0.5128060000000  0.5962230000000 1.0
C      1  0.5235590000000  0.4920600000000  0.4943090000000 1.0
C      1  0.4579290000000  0.5513250000000  0.4350390000000 1.0
C      1  0.5395480000000  0.5460620000000  0.4095430000000 1.0
C      1  0.4561530000000  0.4076720000000  0.5258720000000 1.0
C      1  0.5550240000000  0.4715630000000  0.5341370000000 1.0
C      1  0.4879700000000  0.5774580000000  0.4354320000000 1.0
C      1  0.5088140000000  0.4295090000000  0.5148450000000 1.0
C      1  0.4363070000000  0.5059860000000  0.4320040000000 1.0
C      1  0.5741030000000  0.5713840000000  0.5133990000000 1.0
C      1  0.4486070000000  0.4609750000000  0.5844550000000 1.0
C      1  0.5535420000000  0.5656270000000  0.4882440000000 1.0
C      1  0.5014770000000  0.5547840000000  0.5716090000000 1.0
C      1  0.4613890000000  0.4994600000000  0.5566270000000 1.0
C      1  0.4912680000000  0.4943330000000  0.5177890000000 1.0
C      1  0.5705870000000  0.5544110000000  0.4539860000000 1.0
C      1  0.4998040000000  0.4945980000000  0.4788040000000 1.0
C      1  0.5219960000000  0.6021530000000  0.4983770000000 1.0
C      1  0.6213650000000  0.5108980000000  0.4989200000000 1.0
C      1  0.5087110000000  0.4020790000000  0.5421770000000 1.0
C      1  0.5277240000000  0.5312600000000  0.4878310000000 1.0
C      1  0.5501090000000  0.5747960000000  0.5648290000000 1.0
C      1  0.4150350000000  0.5237390000000  0.4607760000000 1.0
C      1  0.5252030000000  0.4424240000000  0.5706620000000 1.0
C      1  0.5389890000000  0.4834320000000  0.6008510000000 1.0
C      1  0.5768680000000  0.5259440000000  0.4380900000000 1.0
C      1  0.5120120000000  0.5393410000000  0.3935120000000 1.0
C      1  0.3949870000000  0.4991830000000  0.4577780000000 1.0
C      1  0.4859170000000  0.5824860000000  0.5650400000000 1.0
C      1  0.5645980000000  0.5159250000000  0.5637380000000 1.0
C      1  0.5063280000000  0.5090290000000  0.3925280000000 1.0
C      1  0.4454940000000  0.5927230000000  0.5377960000000 1.0
C      1  0.4332790000000  0.4322900000000  0.4495290000000 1.0
C      1  0.4253320000000  0.4665610000000  0.5600390000000 1.0
C      1  0.4110080000000  0.4425810000000  0.4316420000000 1.0
C      1  0.4743450000000  0.5957570000000  0.5444090000000 1.0
C      1  0.4897040000000  0.5981170000000  0.5210720000000 1.0
C      1  0.5390980000000  0.5551980000000  0.4423130000000 1.0
C      1  0.4277590000000  0.4379730000000  0.4826170000000 1.0
C      1  0.5523170000000  0.5209670000000  0.4235480000000 1.0
C      1  0.4559990000000  0.5686090000000  0.4829700000000 1.0
C      1  0.5741600000000  0.4528320000000  0.4585730000000 1.0
END
