TITL C-2778430-5657-780 -0.00589561755720551 125000 -1147.20129832293 0 0 198 (C1) n - 1
REM
REM in /home/nfs/bkarasulu/CARBON/AIRSS/Generating-Clusters/REBO/Only-C1/SD-CG/HFTN-CG
REM
REM
REM
REM
REM
REM ./C.cell (11c1c37f851c82e70ff6c80c92926a4b)
REM
REM compiler GCC version 9.2.1 20190827 (Red Hat 9.2.1-1)
REM options -cpp -mtune=generic -march=x86-64 -g -O0 -fpre-include=/usr/include/finclude/math-vector-fortran.h
REM seed -1460213849 487167758 -1244029137 1268673178 1823910550 1695869960 -124887330 -2101634852 1395623978 -1801739224 -1659496300 1832619078 -1548868679 -328774122 953891980 2134615617 -700400668 1735415397 -379254505 -1767733283 632931031 1754101393 -802472841 951642599 -631419320 -1233994070 1415524737 -1212590068 1826219648 1437305105 -755877530 172576596 1620772381
REM
CELL 1.54180   50.00000   50.00000   50.00000   90.00000   90.00000   90.00000
LATT -1
SFAC C  
C      1  0.4367080000000  0.4887460000000  0.5868190000000 1.0
C      1  0.5691480000000  0.4261450000000  0.4330970000000 1.0
C      1  0.4958560000000  0.5951900000000  0.4357020000000 1.0
C      1  0.5559030000000  0.4871920000000  0.6040490000000 1.0
C      1  0.5500560000000  0.3931890000000  0.4719050000000 1.0
C      1  0.6042080000000  0.5462810000000  0.5403530000000 1.0
C      1  0.4931030000000  0.5590310000000  0.4518140000000 1.0
C      1  0.4173760000000  0.4153210000000  0.4860870000000 1.0
C      1  0.4748070000000  0.4266370000000  0.5085990000000 1.0
C      1  0.4337260000000  0.5148370000000  0.4406450000000 1.0
C      1  0.4168340000000  0.4468990000000  0.4617550000000 1.0
C      1  0.4266130000000  0.5366490000000  0.5512790000000 1.0
C      1  0.5604490000000  0.5599220000000  0.4272740000000 1.0
C      1  0.4376760000000  0.5793610000000  0.4591980000000 1.0
C      1  0.4970510000000  0.4436790000000  0.4465530000000 1.0
C      1  0.5820320000000  0.4781940000000  0.4125440000000 1.0
C      1  0.5986680000000  0.4968660000000  0.5298970000000 1.0
C      1  0.4969050000000  0.4406890000000  0.5461920000000 1.0
C      1  0.5483530000000  0.5905370000000  0.4352240000000 1.0
C      1  0.5871310000000  0.5195500000000  0.4493300000000 1.0
C      1  0.4818440000000  0.4839560000000  0.5576860000000 1.0
C      1  0.4316790000000  0.4771080000000  0.5452350000000 1.0
C      1  0.5885730000000  0.5398360000000  0.5656630000000 1.0
C      1  0.4809020000000  0.5981030000000  0.4612270000000 1.0
C      1  0.5704180000000  0.4893700000000  0.4902960000000 1.0
C      1  0.5543240000000  0.5877640000000  0.5550340000000 1.0
C      1  0.5870640000000  0.4597330000000  0.5653810000000 1.0
C      1  0.5121800000000  0.5464310000000  0.4070900000000 1.0
C      1  0.4458360000000  0.4295400000000  0.4994690000000 1.0
C      1  0.5649180000000  0.5708930000000  0.4575310000000 1.0
C      1  0.4225940000000  0.5044950000000  0.5616010000000 1.0
C      1  0.4281290000000  0.4994420000000  0.4042340000000 1.0
C      1  0.4335480000000  0.5468750000000  0.5062710000000 1.0
C      1  0.4212800000000  0.5065080000000  0.5066610000000 1.0
C      1  0.5417320000000  0.5183150000000  0.6009330000000 1.0
C      1  0.4727790000000  0.5174300000000  0.4341370000000 1.0
C      1  0.5500610000000  0.6063830000000  0.5025030000000 1.0
C      1  0.4776090000000  0.5555710000000  0.5981350000000 1.0
C      1  0.5337330000000  0.5421430000000  0.4288170000000 1.0
C      1  0.4991150000000  0.3971470000000  0.4592760000000 1.0
C      1  0.4861660000000  0.3852510000000  0.4884000000000 1.0
C      1  0.4692120000000  0.4821990000000  0.5955630000000 1.0
C      1  0.4727640000000  0.5222820000000  0.4010410000000 1.0
C      1  0.5298600000000  0.4537350000000  0.5886300000000 1.0
C      1  0.5297540000000  0.5927650000000  0.4849560000000 1.0
C      1  0.5343870000000  0.5339380000000  0.4924920000000 1.0
C      1  0.4307790000000  0.4591350000000  0.4971600000000 1.0
C      1  0.4499340000000  0.4132090000000  0.4307710000000 1.0
C      1  0.5087890000000  0.5176430000000  0.4762870000000 1.0
C      1  0.5735810000000  0.4373340000000  0.4848120000000 1.0
C      1  0.4580640000000  0.5564520000000  0.4153670000000 1.0
C      1  0.4284980000000  0.4578890000000  0.5830610000000 1.0
C      1  0.4275630000000  0.5678680000000  0.5647600000000 1.0
C      1  0.4965930000000  0.4284250000000  0.4172170000000 1.0
C      1  0.5010020000000  0.5242160000000  0.3913000000000 1.0
C      1  0.4421400000000  0.4675520000000  0.4675070000000 1.0
C      1  0.4046430000000  0.5334300000000  0.5180120000000 1.0
C      1  0.5887960000000  0.4935210000000  0.4619850000000 1.0
C      1  0.4495950000000  0.4409030000000  0.5903780000000 1.0
C      1  0.5767000000000  0.4380350000000  0.5409670000000 1.0
C      1  0.5715950000000  0.4063270000000  0.4947770000000 1.0
C      1  0.5135930000000  0.5749420000000  0.5906520000000 1.0
C      1  0.4615490000000  0.5308590000000  0.4632880000000 1.0
C      1  0.4997050000000  0.5233250000000  0.5086520000000 1.0
C      1  0.4291040000000  0.4822120000000  0.5153190000000 1.0
C      1  0.5282220000000  0.4464030000000  0.4488020000000 1.0
C      1  0.5564730000000  0.5862220000000  0.5238190000000 1.0
C      1  0.5469390000000  0.5078680000000  0.5716050000000 1.0
C      1  0.5728120000000  0.5382600000000  0.5125820000000 1.0
C      1  0.5056460000000  0.5223720000000  0.5738810000000 1.0
C      1  0.5206920000000  0.4048750000000  0.4848080000000 1.0
C      1  0.4843590000000  0.4619750000000  0.5245550000000 1.0
C      1  0.3872450000000  0.4821930000000  0.4533310000000 1.0
C      1  0.5291360000000  0.5737820000000  0.5121380000000 1.0
C      1  0.4793020000000  0.4091660000000  0.4370550000000 1.0
C      1  0.4613330000000  0.4645090000000  0.5471480000000 1.0
C      1  0.4415060000000  0.5299330000000  0.4127940000000 1.0
C      1  0.5238430000000  0.5912910000000  0.5622100000000 1.0
C      1  0.4020140000000  0.5180870000000  0.4463110000000 1.0
C      1  0.4887440000000  0.4013160000000  0.5112570000000 1.0
C      1  0.5720000000000  0.5211070000000  0.4900280000000 1.0
C      1  0.5188310000000  0.5432860000000  0.5972620000000 1.0
C      1  0.5630810000000  0.5583340000000  0.5670300000000 1.0
C      1  0.5444740000000  0.4477730000000  0.4786960000000 1.0
C      1  0.5190450000000  0.5437290000000  0.4570110000000 1.0
C      1  0.5730710000000  0.4144690000000  0.4608690000000 1.0
C      1  0.5337360000000  0.4337190000000  0.6118240000000 1.0
C      1  0.4746410000000  0.4855550000000  0.4382640000000 1.0
C      1  0.5120820000000  0.4945720000000  0.3886450000000 1.0
C      1  0.4683110000000  0.5045920000000  0.4926180000000 1.0
C      1  0.6088830000000  0.5242670000000  0.5221800000000 1.0
C      1  0.4814170000000  0.4129600000000  0.5485740000000 1.0
C      1  0.5549120000000  0.4985500000000  0.4149050000000 1.0
C      1  0.5033230000000  0.4771400000000  0.4231050000000 1.0
C      1  0.5808060000000  0.5676240000000  0.5160790000000 1.0
C      1  0.4429930000000  0.4392780000000  0.5510090000000 1.0
C      1  0.5359920000000  0.4696710000000  0.4153730000000 1.0
C      1  0.5914970000000  0.5648820000000  0.4693760000000 1.0
C      1  0.5513590000000  0.4447400000000  0.5637620000000 1.0
C      1  0.5620420000000  0.5255930000000  0.5394110000000 1.0
C      1  0.5218840000000  0.4840630000000  0.6021960000000 1.0
C      1  0.5643750000000  0.5263710000000  0.4283360000000 1.0
C      1  0.5404090000000  0.3890160000000  0.5306090000000 1.0
C      1  0.4414080000000  0.4828040000000  0.4307680000000 1.0
C      1  0.4571570000000  0.5104480000000  0.6044770000000 1.0
C      1  0.5395650000000  0.5628760000000  0.4751490000000 1.0
C      1  0.5108190000000  0.4045020000000  0.5339680000000 1.0
C      1  0.4816510000000  0.5510720000000  0.5003090000000 1.0
C      1  0.5679560000000  0.4085420000000  0.5256150000000 1.0
C      1  0.4746870000000  0.5801190000000  0.5468370000000 1.0
C      1  0.5233140000000  0.5079080000000  0.5490820000000 1.0
C      1  0.4615670000000  0.5604670000000  0.4464840000000 1.0
C      1  0.5287890000000  0.3844390000000  0.4517040000000 1.0
C      1  0.4997080000000  0.5753700000000  0.5267860000000 1.0
C      1  0.5453940000000  0.4765650000000  0.5597020000000 1.0
C      1  0.4827620000000  0.4563120000000  0.4114380000000 1.0
C      1  0.5136880000000  0.4761240000000  0.5537350000000 1.0
C      1  0.6041680000000  0.4773820000000  0.5080640000000 1.0
C      1  0.3811580000000  0.5106550000000  0.4691620000000 1.0
C      1  0.5422660000000  0.4788520000000  0.4842950000000 1.0
C      1  0.6119090000000  0.5230740000000  0.4916050000000 1.0
C      1  0.4534590000000  0.4191080000000  0.4699550000000 1.0
C      1  0.6097140000000  0.4933490000000  0.4846300000000 1.0
C      1  0.4999210000000  0.4526470000000  0.5747210000000 1.0
C      1  0.4258210000000  0.4165070000000  0.4531620000000 1.0
C      1  0.4273600000000  0.5887890000000  0.5379150000000 1.0
C      1  0.3963600000000  0.4403310000000  0.5297150000000 1.0
C      1  0.5784210000000  0.5116090000000  0.5659490000000 1.0
C      1  0.3987560000000  0.5638470000000  0.4927240000000 1.0
C      1  0.4604560000000  0.5293960000000  0.5055900000000 1.0
C      1  0.4436640000000  0.5895940000000  0.5013570000000 1.0
C      1  0.5143970000000  0.5465120000000  0.5244310000000 1.0
C      1  0.5242070000000  0.4873480000000  0.5086880000000 1.0
C      1  0.5227170000000  0.4329890000000  0.4955530000000 1.0
C      1  0.4567050000000  0.6022870000000  0.5279110000000 1.0
C      1  0.4897710000000  0.4619720000000  0.4727460000000 1.0
C      1  0.3963720000000  0.5124760000000  0.5437570000000 1.0
C      1  0.5268100000000  0.3827480000000  0.5045320000000 1.0
C      1  0.4986710000000  0.5686440000000  0.4807360000000 1.0
C      1  0.4550380000000  0.4151780000000  0.5520800000000 1.0
C      1  0.4126690000000  0.4506510000000  0.5538520000000 1.0
C      1  0.4892100000000  0.6066000000000  0.5207960000000 1.0
C      1  0.5214330000000  0.5058060000000  0.4196880000000 1.0
C      1  0.4817010000000  0.5300190000000  0.6110790000000 1.0
C      1  0.5238630000000  0.6015270000000  0.4343460000000 1.0
C      1  0.5361770000000  0.4566450000000  0.5167090000000 1.0
C      1  0.4366750000000  0.5495110000000  0.4755370000000 1.0
C      1  0.5113580000000  0.5597250000000  0.5615970000000 1.0
C      1  0.4888370000000  0.4928050000000  0.4684430000000 1.0
C      1  0.5879030000000  0.4480020000000  0.4242000000000 1.0
C      1  0.4492850000000  0.5633090000000  0.5316430000000 1.0
C      1  0.4967860000000  0.4941700000000  0.5849630000000 1.0
C      1  0.4443990000000  0.4295330000000  0.4078240000000 1.0
C      1  0.5769030000000  0.4840230000000  0.5830810000000 1.0
C      1  0.4623390000000  0.3895890000000  0.4726440000000 1.0
C      1  0.4826060000000  0.5816830000000  0.5777960000000 1.0
C      1  0.5652600000000  0.4692930000000  0.5153860000000 1.0
C      1  0.5513150000000  0.5226490000000  0.4666080000000 1.0
C      1  0.4072580000000  0.4377740000000  0.5047220000000 1.0
C      1  0.4669330000000  0.5786830000000  0.4859640000000 1.0
C      1  0.4538360000000  0.5300430000000  0.5362650000000 1.0
C      1  0.5086240000000  0.6094970000000  0.5454050000000 1.0
C      1  0.4070270000000  0.4887870000000  0.4283530000000 1.0
C      1  0.5377350000000  0.4782950000000  0.4542040000000 1.0
C      1  0.5610290000000  0.4652020000000  0.4359700000000 1.0
C      1  0.4121550000000  0.5453140000000  0.4548270000000 1.0
C      1  0.4653450000000  0.4462040000000  0.4588190000000 1.0
C      1  0.4991480000000  0.6017280000000  0.4897550000000 1.0
C      1  0.4833070000000  0.5435870000000  0.5605410000000 1.0
C      1  0.4072140000000  0.5611700000000  0.5378960000000 1.0
C      1  0.5371940000000  0.5451140000000  0.5497230000000 1.0
C      1  0.5115690000000  0.5146620000000  0.6152750000000 1.0
C      1  0.5886120000000  0.4482050000000  0.5105870000000 1.0
C      1  0.4731170000000  0.5119240000000  0.5531720000000 1.0
C      1  0.5420460000000  0.4316050000000  0.4257990000000 1.0
C      1  0.5455500000000  0.4154410000000  0.5503550000000 1.0
C      1  0.5215590000000  0.4643170000000  0.3864480000000 1.0
C      1  0.3832010000000  0.5351950000000  0.4929310000000 1.0
C      1  0.5249710000000  0.4354150000000  0.5353180000000 1.0
C      1  0.3534560000000  0.5202750000000  0.4863600000000 1.0
C      1  0.5355960000000  0.5075300000000  0.4484560000000 1.0
C      1  0.4955850000000  0.4480910000000  0.4980510000000 1.0
C      1  0.3919580000000  0.4575330000000  0.4634810000000 1.0
C      1  0.4574580000000  0.4532390000000  0.4023100000000 1.0
C      1  0.6004080000000  0.5381360000000  0.4676690000000 1.0
C      1  0.5859650000000  0.5747390000000  0.5477440000000 1.0
C      1  0.4527530000000  0.5231540000000  0.5758270000000 1.0
C      1  0.4509880000000  0.5039670000000  0.3843160000000 1.0
C      1  0.4494130000000  0.4985970000000  0.4662900000000 1.0
C      1  0.4898290000000  0.5663610000000  0.4190080000000 1.0
C      1  0.5970460000000  0.5776460000000  0.4927550000000 1.0
C      1  0.5237150000000  0.4343100000000  0.4021770000000 1.0
C      1  0.4928190000000  0.4898200000000  0.5109660000000 1.0
C      1  0.4743790000000  0.4530370000000  0.5908650000000 1.0
C      1  0.4181800000000  0.5822790000000  0.4960290000000 1.0
C      1  0.4539620000000  0.5550300000000  0.5739050000000 1.0
C      1  0.5738980000000  0.4803690000000  0.5424110000000 1.0
C      1  0.5371510000000  0.5143970000000  0.5192240000000 1.0
END
