TITL C-2778426-5645-1282 0.00588742674232319 125000 -1124.83388590595 0 0 194 (C1) n - 1
REM
REM in /home/nfs/bkarasulu/CARBON/AIRSS/Generating-Clusters/REBO/Only-C1/SD-CG/HFTN-CG
REM
REM
REM
REM
REM
REM ./C.cell (11c1c37f851c82e70ff6c80c92926a4b)
REM
REM compiler GCC version 9.2.1 20190827 (Red Hat 9.2.1-1)
REM options -cpp -mtune=generic -march=x86-64 -g -O0 -fpre-include=/usr/include/finclude/math-vector-fortran.h
REM seed -274029425 694945786 -1075480258 -859397412 -1904800005 -1868788439 -1577763154 -2109982161 1141631983 -2037545329 1188779573 -1415218340 705219733 1411886257 513941573 -1815899768 478633728 -183793424 305911800 973916840 1654436494 900433108 746924533 1297111225 698891812 -1042162770 1899752447 77098603 -1544225512 977359059 1809921620 1418001102 135518097
REM
CELL 1.54180   50.00000   50.00000   50.00000   90.00000   90.00000   90.00000
LATT -1
SFAC C  
C      1  0.5491720000000  0.4673130000000  0.5640370000000 1.0
C      1  0.4489590000000  0.5148460000000  0.4419930000000 1.0
C      1  0.4522940000000  0.5620450000000  0.5672050000000 1.0
C      1  0.5285660000000  0.5710710000000  0.4999650000000 1.0
C      1  0.5145710000000  0.5861240000000  0.4267750000000 1.0
C      1  0.5346850000000  0.6018470000000  0.4477430000000 1.0
C      1  0.5313980000000  0.4292140000000  0.4294650000000 1.0
C      1  0.5437740000000  0.5181410000000  0.5025290000000 1.0
C      1  0.5101170000000  0.4747030000000  0.5613500000000 1.0
C      1  0.4112940000000  0.5502890000000  0.4684620000000 1.0
C      1  0.4789970000000  0.4995750000000  0.5601210000000 1.0
C      1  0.4309720000000  0.4873590000000  0.4770410000000 1.0
C      1  0.5074960000000  0.5050580000000  0.5501750000000 1.0
C      1  0.4919100000000  0.5678300000000  0.4371180000000 1.0
C      1  0.5292860000000  0.4733750000000  0.4497260000000 1.0
C      1  0.4446470000000  0.5739270000000  0.5361970000000 1.0
C      1  0.5217290000000  0.4968350000000  0.4391660000000 1.0
C      1  0.5593220000000  0.3983710000000  0.4679080000000 1.0
C      1  0.5097040000000  0.4178930000000  0.5712420000000 1.0
C      1  0.5378710000000  0.5510340000000  0.6032860000000 1.0
C      1  0.4193190000000  0.5138830000000  0.4958270000000 1.0
C      1  0.5067870000000  0.4633560000000  0.4017210000000 1.0
C      1  0.5132280000000  0.4505750000000  0.6063680000000 1.0
C      1  0.3961580000000  0.5146830000000  0.5386850000000 1.0
C      1  0.3842500000000  0.5143510000000  0.4509880000000 1.0
C      1  0.5071980000000  0.4558960000000  0.4666500000000 1.0
C      1  0.5618240000000  0.4369960000000  0.5098220000000 1.0
C      1  0.5275560000000  0.4711190000000  0.4894070000000 1.0
C      1  0.5146360000000  0.5398690000000  0.4080730000000 1.0
C      1  0.4315430000000  0.5956070000000  0.4657020000000 1.0
C      1  0.4774760000000  0.3899630000000  0.4723430000000 1.0
C      1  0.3898570000000  0.4733980000000  0.4920680000000 1.0
C      1  0.3808980000000  0.5728570000000  0.4996940000000 1.0
C      1  0.4267260000000  0.5352520000000  0.4257750000000 1.0
C      1  0.5198980000000  0.5709980000000  0.5307880000000 1.0
C      1  0.6200220000000  0.5060740000000  0.5159920000000 1.0
C      1  0.4962720000000  0.4330100000000  0.5448910000000 1.0
C      1  0.5598420000000  0.5386210000000  0.5844550000000 1.0
C      1  0.4212980000000  0.5537720000000  0.5438350000000 1.0
C      1  0.5156210000000  0.6143730000000  0.4974820000000 1.0
C      1  0.5726970000000  0.5553760000000  0.4834850000000 1.0
C      1  0.5087760000000  0.5164820000000  0.5215470000000 1.0
C      1  0.5414580000000  0.5209990000000  0.4401360000000 1.0
C      1  0.5124290000000  0.5414830000000  0.6096400000000 1.0
C      1  0.5404220000000  0.4339350000000  0.5337510000000 1.0
C      1  0.5994010000000  0.4830530000000  0.5241590000000 1.0
C      1  0.4638220000000  0.4600630000000  0.4637070000000 1.0
C      1  0.4011960000000  0.5535810000000  0.4987290000000 1.0
C      1  0.5961790000000  0.4863920000000  0.5528900000000 1.0
C      1  0.5500240000000  0.5824050000000  0.5388090000000 1.0
C      1  0.4676920000000  0.4375860000000  0.5926210000000 1.0
C      1  0.4394110000000  0.4338500000000  0.5481040000000 1.0
C      1  0.5007050000000  0.4753620000000  0.6106410000000 1.0
C      1  0.4973390000000  0.5235960000000  0.5872530000000 1.0
C      1  0.4532020000000  0.5665500000000  0.4851170000000 1.0
C      1  0.5043880000000  0.5118880000000  0.4718180000000 1.0
C      1  0.4917100000000  0.5841250000000  0.5332440000000 1.0
C      1  0.4957920000000  0.4313770000000  0.5954370000000 1.0
C      1  0.5944570000000  0.5203690000000  0.4139360000000 1.0
C      1  0.5714740000000  0.5138480000000  0.4865440000000 1.0
C      1  0.4890820000000  0.4302440000000  0.4713490000000 1.0
C      1  0.4296510000000  0.5253320000000  0.4654670000000 1.0
C      1  0.4556520000000  0.5894500000000  0.5100590000000 1.0
C      1  0.5643260000000  0.5247240000000  0.5557840000000 1.0
C      1  0.5314820000000  0.5006250000000  0.4792170000000 1.0
C      1  0.5370690000000  0.4191550000000  0.4969550000000 1.0
C      1  0.4345010000000  0.5446400000000  0.5000190000000 1.0
C      1  0.4764540000000  0.5132610000000  0.3890390000000 1.0
C      1  0.4949070000000  0.5392510000000  0.4803320000000 1.0
C      1  0.5670010000000  0.5639720000000  0.5621270000000 1.0
C      1  0.4848730000000  0.5714920000000  0.5635200000000 1.0
C      1  0.3942960000000  0.4873960000000  0.4613890000000 1.0
C      1  0.4851040000000  0.4585330000000  0.5560220000000 1.0
C      1  0.5053190000000  0.5692050000000  0.4776960000000 1.0
C      1  0.5666110000000  0.5649680000000  0.5151160000000 1.0
C      1  0.3954970000000  0.5315920000000  0.4368860000000 1.0
C      1  0.4661550000000  0.5427830000000  0.5886810000000 1.0
C      1  0.5819410000000  0.4642360000000  0.5662720000000 1.0
C      1  0.4566020000000  0.5138160000000  0.5795750000000 1.0
C      1  0.5496670000000  0.5430310000000  0.5329360000000 1.0
C      1  0.4379380000000  0.4656500000000  0.4997360000000 1.0
C      1  0.4556760000000  0.5084840000000  0.4808300000000 1.0
C      1  0.4146660000000  0.5070140000000  0.5663340000000 1.0
C      1  0.5498590000000  0.4490020000000  0.4222430000000 1.0
C      1  0.5189230000000  0.3879360000000  0.5176630000000 1.0
C      1  0.5177890000000  0.5421240000000  0.5401590000000 1.0
C      1  0.4931130000000  0.4854320000000  0.3833190000000 1.0
C      1  0.4898910000000  0.5599070000000  0.6013460000000 1.0
C      1  0.4769390000000  0.4622470000000  0.4918830000000 1.0
C      1  0.6085770000000  0.4561290000000  0.5089390000000 1.0
C      1  0.5580620000000  0.5002860000000  0.4579320000000 1.0
C      1  0.5236240000000  0.5699470000000  0.4049520000000 1.0
C      1  0.5290230000000  0.5412060000000  0.4598510000000 1.0
C      1  0.4559980000000  0.4270400000000  0.4665070000000 1.0
C      1  0.4825040000000  0.5337440000000  0.4070930000000 1.0
C      1  0.5364450000000  0.4796690000000  0.5403210000000 1.0
C      1  0.3999230000000  0.4547000000000  0.4652100000000 1.0
C      1  0.4165020000000  0.4342200000000  0.4566960000000 1.0
C      1  0.5828940000000  0.4051490000000  0.4566480000000 1.0
C      1  0.5490380000000  0.4513160000000  0.4621540000000 1.0
C      1  0.4716190000000  0.4746630000000  0.6157760000000 1.0
C      1  0.5932820000000  0.5254550000000  0.4623660000000 1.0
C      1  0.4342660000000  0.4358710000000  0.4342830000000 1.0
C      1  0.4489130000000  0.4926060000000  0.6022890000000 1.0
C      1  0.5171720000000  0.4852950000000  0.5156090000000 1.0
C      1  0.5216970000000  0.6196460000000  0.4709240000000 1.0
C      1  0.5129070000000  0.4287850000000  0.5193700000000 1.0
C      1  0.5810350000000  0.4825060000000  0.4955450000000 1.0
C      1  0.4453360000000  0.4462390000000  0.5792190000000 1.0
C      1  0.5417980000000  0.4283680000000  0.5664090000000 1.0
C      1  0.4177550000000  0.5026960000000  0.4208310000000 1.0
C      1  0.4810820000000  0.4925960000000  0.4791090000000 1.0
C      1  0.4730000000000  0.5525690000000  0.4612360000000 1.0
C      1  0.4418500000000  0.5084940000000  0.5489800000000 1.0
C      1  0.5397310000000  0.4506490000000  0.5921300000000 1.0
C      1  0.5807540000000  0.5437110000000  0.4232430000000 1.0
C      1  0.4817360000000  0.4250300000000  0.4253760000000 1.0
C      1  0.5622190000000  0.5820900000000  0.4532260000000 1.0
C      1  0.4442470000000  0.4635950000000  0.4291380000000 1.0
C      1  0.5961200000000  0.5483380000000  0.5522090000000 1.0
C      1  0.4278960000000  0.4753920000000  0.5664170000000 1.0
C      1  0.4360850000000  0.5644110000000  0.4303020000000 1.0
C      1  0.4975480000000  0.4141920000000  0.4965710000000 1.0
C      1  0.4690630000000  0.5273690000000  0.5410480000000 1.0
C      1  0.4556040000000  0.5217530000000  0.5102370000000 1.0
C      1  0.5462890000000  0.3861680000000  0.4968980000000 1.0
C      1  0.5332680000000  0.5054530000000  0.5712910000000 1.0
C      1  0.5521540000000  0.4935790000000  0.4028480000000 1.0
C      1  0.5705410000000  0.4372190000000  0.5490630000000 1.0
C      1  0.5463240000000  0.5086150000000  0.5326330000000 1.0
C      1  0.4662420000000  0.5382600000000  0.4310170000000 1.0
C      1  0.4913800000000  0.5388970000000  0.5099940000000 1.0
C      1  0.4571060000000  0.4162650000000  0.4354040000000 1.0
C      1  0.5918510000000  0.4284270000000  0.4454100000000 1.0
C      1  0.5379380000000  0.4693440000000  0.4066050000000 1.0
C      1  0.4142870000000  0.4222070000000  0.5033490000000 1.0
C      1  0.5043230000000  0.4034200000000  0.4588800000000 1.0
C      1  0.4875520000000  0.4782960000000  0.5185740000000 1.0
C      1  0.5792200000000  0.4958040000000  0.4149780000000 1.0
C      1  0.5915780000000  0.5368910000000  0.5022040000000 1.0
C      1  0.5157830000000  0.3876410000000  0.4846290000000 1.0
C      1  0.4276420000000  0.4964080000000  0.5228580000000 1.0
C      1  0.5316800000000  0.5723480000000  0.4601270000000 1.0
C      1  0.4625940000000  0.4168600000000  0.5309460000000 1.0
C      1  0.5832950000000  0.5564170000000  0.4522690000000 1.0
C      1  0.4188830000000  0.5727640000000  0.4530220000000 1.0
C      1  0.4736720000000  0.4658870000000  0.4119060000000 1.0
C      1  0.4939150000000  0.5410420000000  0.5601860000000 1.0
C      1  0.5908170000000  0.4361360000000  0.5215450000000 1.0
C      1  0.4607470000000  0.4854390000000  0.3887490000000 1.0
C      1  0.4234310000000  0.4839020000000  0.4441000000000 1.0
C      1  0.4105650000000  0.4544330000000  0.5073010000000 1.0
C      1  0.5048200000000  0.6100800000000  0.5913910000000 1.0
C      1  0.5587000000000  0.4609230000000  0.4915080000000 1.0
C      1  0.5571900000000  0.5054610000000  0.5899520000000 1.0
C      1  0.5737670000000  0.4531400000000  0.4418840000000 1.0
C      1  0.4865920000000  0.6037080000000  0.5079210000000 1.0
C      1  0.5430300000000  0.5465190000000  0.4883120000000 1.0
C      1  0.5989490000000  0.4921610000000  0.4676430000000 1.0
C      1  0.4614910000000  0.5788740000000  0.4337050000000 1.0
C      1  0.5380370000000  0.6011330000000  0.5128080000000 1.0
C      1  0.4114660000000  0.4352430000000  0.5341910000000 1.0
C      1  0.4069110000000  0.4535230000000  0.5605530000000 1.0
C      1  0.4810830000000  0.5867910000000  0.4802660000000 1.0
C      1  0.5076290000000  0.4334150000000  0.4147720000000 1.0
C      1  0.4270530000000  0.5387700000000  0.5697960000000 1.0
C      1  0.4704170000000  0.3962600000000  0.5050400000000 1.0
C      1  0.4932260000000  0.3896450000000  0.5277080000000 1.0
C      1  0.5068850000000  0.4938240000000  0.5883700000000 1.0
C      1  0.5806820000000  0.4823650000000  0.4426180000000 1.0
C      1  0.4903180000000  0.5051550000000  0.4420500000000 1.0
C      1  0.4632820000000  0.4878040000000  0.4437120000000 1.0
C      1  0.5534270000000  0.5396140000000  0.4176870000000 1.0
C      1  0.5068810000000  0.5832510000000  0.5840900000000 1.0
C      1  0.5938420000000  0.5148500000000  0.5578780000000 1.0
C      1  0.4278890000000  0.4178510000000  0.4791660000000 1.0
C      1  0.6205490000000  0.4827090000000  0.4911600000000 1.0
C      1  0.6079920000000  0.5315490000000  0.5245100000000 1.0
C      1  0.5933960000000  0.5686400000000  0.5273140000000 1.0
C      1  0.4582370000000  0.4883780000000  0.5152620000000 1.0
C      1  0.4708240000000  0.4764980000000  0.5813580000000 1.0
C      1  0.5045810000000  0.5361710000000  0.4401400000000 1.0
C      1  0.4609850000000  0.4484590000000  0.5180500000000 1.0
C      1  0.5384740000000  0.5186850000000  0.4003870000000 1.0
C      1  0.4858680000000  0.4550440000000  0.4402320000000 1.0
C      1  0.5339130000000  0.4205170000000  0.4624480000000 1.0
C      1  0.4040770000000  0.5398200000000  0.5271790000000 1.0
C      1  0.5386740000000  0.5719380000000  0.5797450000000 1.0
C      1  0.5642080000000  0.4745080000000  0.5935150000000 1.0
C      1  0.3949530000000  0.4912560000000  0.5179080000000 1.0
C      1  0.4540520000000  0.4649270000000  0.5470970000000 1.0
C      1  0.4728940000000  0.5584600000000  0.5277540000000 1.0
C      1  0.4595010000000  0.5954800000000  0.4582680000000 1.0
C      1  0.4841520000000  0.4034300000000  0.5541250000000 1.0
END
