TITL C-2778426-5645-976 -0.00644901409471398 125000 -550.735127684511 0 0 97 (C1) n - 1
REM
REM in /home/nfs/bkarasulu/CARBON/AIRSS/Generating-Clusters/REBO/Only-C1/SD-CG/HFTN-CG
REM
REM
REM
REM
REM
REM ./C.cell (11c1c37f851c82e70ff6c80c92926a4b)
REM
REM compiler GCC version 9.2.1 20190827 (Red Hat 9.2.1-1)
REM options -cpp -mtune=generic -march=x86-64 -g -O0 -fpre-include=/usr/include/finclude/math-vector-fortran.h
REM seed 192947183 1427007390 -331555313 50993871 -1366475638 832370374 -999456302 1880832806 -746588003 -212568695 737248564 50480069 1607894336 -2083426123 67975901 165768281 220537551 -997339668 -935465774 646219887 -1435848667 -1386603642 -1128555874 -93356422 1080446851 -615215420 -1031356504 1636984887 1304704672 -1400985451 920295186 1789787430 513705381
REM
CELL 1.54180   50.00000   50.00000   50.00000   90.00000   90.00000   90.00000
LATT -1
SFAC C  
C      1  0.5669400000000  0.4475750000000  0.5178490000000 1.0
C      1  0.4246860000000  0.5275850000000  0.4884240000000 1.0
C      1  0.4611090000000  0.5862500000000  0.4897920000000 1.0
C      1  0.4800150000000  0.4276020000000  0.5080190000000 1.0
C      1  0.5641280000000  0.4711700000000  0.4940980000000 1.0
C      1  0.4697800000000  0.5013610000000  0.4301860000000 1.0
C      1  0.5322980000000  0.5098920000000  0.5524650000000 1.0
C      1  0.4919820000000  0.5042090000000  0.5801440000000 1.0
C      1  0.4582310000000  0.5432770000000  0.5033840000000 1.0
C      1  0.5402290000000  0.4132120000000  0.4582320000000 1.0
C      1  0.4710970000000  0.4245480000000  0.4517480000000 1.0
C      1  0.4939690000000  0.4470710000000  0.4764680000000 1.0
C      1  0.4953050000000  0.4765880000000  0.4624800000000 1.0
C      1  0.4419540000000  0.5203750000000  0.4393680000000 1.0
C      1  0.5005950000000  0.5138310000000  0.4828670000000 1.0
C      1  0.5314300000000  0.4118250000000  0.5146090000000 1.0
C      1  0.4996620000000  0.5648650000000  0.4792130000000 1.0
C      1  0.5106680000000  0.5422280000000  0.4405440000000 1.0
C      1  0.5781150000000  0.5013540000000  0.5376660000000 1.0
C      1  0.5678640000000  0.5352560000000  0.5191590000000 1.0
C      1  0.5081300000000  0.5444590000000  0.5792680000000 1.0
C      1  0.5775120000000  0.4785920000000  0.5237130000000 1.0
C      1  0.5364150000000  0.4667160000000  0.5350100000000 1.0
C      1  0.5226760000000  0.4562620000000  0.4417820000000 1.0
C      1  0.5528430000000  0.4757220000000  0.5550490000000 1.0
C      1  0.5102680000000  0.4441820000000  0.5054390000000 1.0
C      1  0.5563790000000  0.4282330000000  0.4747110000000 1.0
C      1  0.5309110000000  0.4702270000000  0.5018690000000 1.0
C      1  0.5550520000000  0.4672190000000  0.4414730000000 1.0
C      1  0.5024990000000  0.4177460000000  0.4610060000000 1.0
C      1  0.4331190000000  0.4486090000000  0.5126040000000 1.0
C      1  0.4450980000000  0.5057120000000  0.5372590000000 1.0
C      1  0.5649800000000  0.4551730000000  0.4675970000000 1.0
C      1  0.4353620000000  0.4748900000000  0.5273340000000 1.0
C      1  0.4856430000000  0.5605380000000  0.5631010000000 1.0
C      1  0.4552130000000  0.4426980000000  0.4679580000000 1.0
C      1  0.5239540000000  0.5584150000000  0.5162380000000 1.0
C      1  0.5335320000000  0.4735020000000  0.4156030000000 1.0
C      1  0.5132660000000  0.5107950000000  0.4533240000000 1.0
C      1  0.4826220000000  0.4713440000000  0.4268710000000 1.0
C      1  0.5204150000000  0.5217210000000  0.4159820000000 1.0
C      1  0.4737420000000  0.5078390000000  0.4622200000000 1.0
C      1  0.5648820000000  0.5839100000000  0.5075130000000 1.0
C      1  0.5504250000000  0.5470770000000  0.4762430000000 1.0
C      1  0.5554170000000  0.4242870000000  0.5040300000000 1.0
C      1  0.5047720000000  0.4913810000000  0.5029430000000 1.0
C      1  0.5271620000000  0.4765500000000  0.4685100000000 1.0
C      1  0.4628250000000  0.5561740000000  0.5408200000000 1.0
C      1  0.4660620000000  0.4955470000000  0.4908110000000 1.0
C      1  0.5356310000000  0.5553320000000  0.4551400000000 1.0
C      1  0.4547580000000  0.5714910000000  0.4596980000000 1.0
C      1  0.4543970000000  0.4714650000000  0.5556910000000 1.0
C      1  0.4417090000000  0.4922220000000  0.4567490000000 1.0
C      1  0.5521370000000  0.5589370000000  0.5056820000000 1.0
C      1  0.4758140000000  0.4930110000000  0.5303380000000 1.0
C      1  0.4435050000000  0.5314330000000  0.5523700000000 1.0
C      1  0.4846580000000  0.4555680000000  0.5577070000000 1.0
C      1  0.5446340000000  0.5016070000000  0.4589940000000 1.0
C      1  0.4958170000000  0.4416730000000  0.4369500000000 1.0
C      1  0.4087890000000  0.4352920000000  0.5127560000000 1.0
C      1  0.4732280000000  0.5190450000000  0.5123030000000 1.0
C      1  0.5735640000000  0.5156480000000  0.5005350000000 1.0
C      1  0.4804050000000  0.4692740000000  0.4985920000000 1.0
C      1  0.5592920000000  0.5201250000000  0.4766710000000 1.0
C      1  0.4370500000000  0.5418170000000  0.4598530000000 1.0
C      1  0.5225090000000  0.4202840000000  0.5398140000000 1.0
C      1  0.5081220000000  0.4922820000000  0.4250500000000 1.0
C      1  0.4854880000000  0.5578820000000  0.4512630000000 1.0
C      1  0.4381810000000  0.5012160000000  0.5053850000000 1.0
C      1  0.4627240000000  0.4701400000000  0.4549760000000 1.0
C      1  0.5591480000000  0.4993410000000  0.4309500000000 1.0
C      1  0.5039810000000  0.5399750000000  0.4973020000000 1.0
C      1  0.4184530000000  0.5407840000000  0.5389840000000 1.0
C      1  0.4896380000000  0.5417160000000  0.5281290000000 1.0
C      1  0.5239370000000  0.5082550000000  0.5846080000000 1.0
C      1  0.4533280000000  0.5196130000000  0.4091580000000 1.0
C      1  0.5066310000000  0.4742340000000  0.5733220000000 1.0
C      1  0.5386270000000  0.5478860000000  0.5632310000000 1.0
C      1  0.4652890000000  0.5448650000000  0.4753990000000 1.0
C      1  0.5152030000000  0.5672190000000  0.5474650000000 1.0
C      1  0.4603890000000  0.4976670000000  0.5729580000000 1.0
C      1  0.5387420000000  0.4800190000000  0.5782190000000 1.0
C      1  0.5059910000000  0.5286150000000  0.5505860000000 1.0
C      1  0.5067190000000  0.4128660000000  0.4927930000000 1.0
C      1  0.5480650000000  0.5169480000000  0.4127490000000 1.0
C      1  0.5359930000000  0.5368760000000  0.5955790000000 1.0
C      1  0.5154640000000  0.4485630000000  0.5485570000000 1.0
C      1  0.4717070000000  0.5302200000000  0.5709240000000 1.0
C      1  0.5066840000000  0.5006620000000  0.5334800000000 1.0
C      1  0.4899440000000  0.5869190000000  0.4951490000000 1.0
C      1  0.4182010000000  0.5025210000000  0.4710360000000 1.0
C      1  0.5049850000000  0.5854710000000  0.5203670000000 1.0
C      1  0.5582900000000  0.5262890000000  0.5471960000000 1.0
C      1  0.4553600000000  0.4381880000000  0.4969340000000 1.0
C      1  0.4724920000000  0.4608670000000  0.5279530000000 1.0
C      1  0.4479030000000  0.5730490000000  0.5153520000000 1.0
C      1  0.4251920000000  0.5490360000000  0.5121100000000 1.0
END
