TITL C-2778430-5657-106 0.298275113388204 125000 -668.673894159022 0 0 113 (C1) n - 1
REM
REM in /home/nfs/bkarasulu/CARBON/AIRSS/Generating-Clusters/REBO/Only-C1/SD-CG/HFTN-CG
REM
REM
REM
REM
REM
REM ./C.cell (11c1c37f851c82e70ff6c80c92926a4b)
REM
REM compiler GCC version 9.2.1 20190827 (Red Hat 9.2.1-1)
REM options -cpp -mtune=generic -march=x86-64 -g -O0 -fpre-include=/usr/include/finclude/math-vector-fortran.h
REM seed 1113282024 -591548937 936768024 -1546033416 -1560632475 -113651415 70903426 1542862488 957841054 1651310873 -2106060577 -1214363292 1308326544 -1012225112 -1900992347 -490536868 366516925 -526234159 787119502 -1858859436 1172733711 317907558 -1922799461 -501855679 -1145897478 939206314 -736101021 -1092030979 -606155675 -2116509477 -87320244 -2083308872 -694259818
REM
CELL 1.54180   50.00000   50.00000   50.00000   90.00000   90.00000   90.00000
LATT -1
SFAC C  
C      1  0.5435850000000  0.5168880000000  0.5316550000000 1.0
C      1  0.4280110000000  0.4918330000000  0.5269150000000 1.0
C      1  0.4872580000000  0.4200560000000  0.5367700000000 1.0
C      1  0.4704570000000  0.5226770000000  0.4696010000000 1.0
C      1  0.5232840000000  0.5388590000000  0.4084230000000 1.0
C      1  0.4548170000000  0.4234120000000  0.4731900000000 1.0
C      1  0.5181590000000  0.5077490000000  0.4931410000000 1.0
C      1  0.4343580000000  0.5496370000000  0.5204960000000 1.0
C      1  0.4227050000000  0.5100350000000  0.5539160000000 1.0
C      1  0.5375170000000  0.4671630000000  0.5876920000000 1.0
C      1  0.4395410000000  0.4334130000000  0.5352580000000 1.0
C      1  0.4163570000000  0.5365320000000  0.6023580000000 1.0
C      1  0.4312350000000  0.5671700000000  0.4982330000000 1.0
C      1  0.5483900000000  0.5516410000000  0.5518400000000 1.0
C      1  0.5488900000000  0.4947890000000  0.4084310000000 1.0
C      1  0.5176120000000  0.5847920000000  0.5237890000000 1.0
C      1  0.4553520000000  0.4946920000000  0.4819160000000 1.0
C      1  0.4756590000000  0.5055560000000  0.5299310000000 1.0
C      1  0.5160480000000  0.4584560000000  0.5731940000000 1.0
C      1  0.4808280000000  0.5241020000000  0.4365310000000 1.0
C      1  0.4007750000000  0.5223700000000  0.4976190000000 1.0
C      1  0.5626170000000  0.4379730000000  0.4713400000000 1.0
C      1  0.5742550000000  0.5009380000000  0.4274020000000 1.0
C      1  0.6156500000000  0.4657720000000  0.5740280000000 1.0
C      1  0.5262960000000  0.4809620000000  0.4276820000000 1.0
C      1  0.4793340000000  0.4503780000000  0.5102430000000 1.0
C      1  0.5013840000000  0.4111840000000  0.4874490000000 1.0
C      1  0.4991380000000  0.4873370000000  0.4735100000000 1.0
C      1  0.4511750000000  0.4896170000000  0.4415200000000 1.0
C      1  0.5946050000000  0.4811610000000  0.5713630000000 1.0
C      1  0.4821420000000  0.4624510000000  0.4814720000000 1.0
C      1  0.4344190000000  0.5081120000000  0.4602140000000 1.0
C      1  0.5005370000000  0.4411790000000  0.4443620000000 1.0
C      1  0.4147310000000  0.5297710000000  0.4747920000000 1.0
C      1  0.4978150000000  0.5262520000000  0.4105840000000 1.0
C      1  0.4973160000000  0.5033900000000  0.3931880000000 1.0
C      1  0.4998820000000  0.4686050000000  0.4382880000000 1.0
C      1  0.5246190000000  0.4094880000000  0.5045010000000 1.0
C      1  0.4747940000000  0.5563480000000  0.4676850000000 1.0
C      1  0.4300570000000  0.4433720000000  0.4848460000000 1.0
C      1  0.5665510000000  0.5613630000000  0.5043240000000 1.0
C      1  0.3854710000000  0.4738100000000  0.4923960000000 1.0
C      1  0.5686640000000  0.4743140000000  0.5149430000000 1.0
C      1  0.4809850000000  0.4946750000000  0.5957110000000 1.0
C      1  0.5376120000000  0.5623840000000  0.5223000000000 1.0
C      1  0.4232150000000  0.4619590000000  0.5390090000000 1.0
C      1  0.5398390000000  0.5393850000000  0.5750810000000 1.0
C      1  0.4219020000000  0.5182160000000  0.5851570000000 1.0
C      1  0.4844830000000  0.4315540000000  0.4688340000000 1.0
C      1  0.4322230000000  0.5385810000000  0.4489400000000 1.0
C      1  0.4430610000000  0.4614730000000  0.4391440000000 1.0
C      1  0.4608340000000  0.4771090000000  0.5858990000000 1.0
C      1  0.3831360000000  0.5005330000000  0.4959950000000 1.0
C      1  0.4528000000000  0.5747280000000  0.4838710000000 1.0
C      1  0.6125970000000  0.5091880000000  0.4886820000000 1.0
C      1  0.4675010000000  0.4523140000000  0.5732580000000 1.0
C      1  0.5806640000000  0.4603490000000  0.4707680000000 1.0
C      1  0.5714760000000  0.5191680000000  0.5502260000000 1.0
C      1  0.4611860000000  0.5513890000000  0.5302010000000 1.0
C      1  0.5270630000000  0.4466400000000  0.5182780000000 1.0
C      1  0.5496470000000  0.4283240000000  0.4483860000000 1.0
C      1  0.5087390000000  0.5464360000000  0.5510260000000 1.0
C      1  0.4334820000000  0.4880300000000  0.5804870000000 1.0
C      1  0.4021630000000  0.4533300000000  0.4884930000000 1.0
C      1  0.4765160000000  0.4183930000000  0.5061770000000 1.0
C      1  0.4671290000000  0.4330520000000  0.5522910000000 1.0
C      1  0.5416260000000  0.5765860000000  0.4650240000000 1.0
C      1  0.5151360000000  0.4109570000000  0.5325240000000 1.0
C      1  0.5476700000000  0.4953760000000  0.5057130000000 1.0
C      1  0.5065710000000  0.5686690000000  0.4291330000000 1.0
C      1  0.4802510000000  0.5640440000000  0.4371100000000 1.0
C      1  0.4858760000000  0.5813670000000  0.4883990000000 1.0
C      1  0.5760010000000  0.4869240000000  0.4552780000000 1.0
C      1  0.5177950000000  0.5213830000000  0.5468460000000 1.0
C      1  0.4152870000000  0.4669740000000  0.5661630000000 1.0
C      1  0.5491790000000  0.4298620000000  0.4978270000000 1.0
C      1  0.5188870000000  0.4866200000000  0.3959170000000 1.0
C      1  0.5034810000000  0.4552020000000  0.5267080000000 1.0
C      1  0.5014910000000  0.5068700000000  0.5802580000000 1.0
C      1  0.5898350000000  0.4693180000000  0.4966520000000 1.0
C      1  0.5721720000000  0.5446170000000  0.5299980000000 1.0
C      1  0.4915190000000  0.5873640000000  0.5171200000000 1.0
C      1  0.5578620000000  0.5268340000000  0.4832150000000 1.0
C      1  0.4791410000000  0.5318100000000  0.5196840000000 1.0
C      1  0.4558230000000  0.4910140000000  0.5128640000000 1.0
C      1  0.4531770000000  0.4612080000000  0.5220490000000 1.0
C      1  0.5871290000000  0.5125790000000  0.4734330000000 1.0
C      1  0.5292780000000  0.5147660000000  0.5845680000000 1.0
C      1  0.5572990000000  0.4501850000000  0.5231900000000 1.0
C      1  0.5483310000000  0.4930560000000  0.5840020000000 1.0
C      1  0.5246850000000  0.4975490000000  0.4550340000000 1.0
C      1  0.5656090000000  0.5654710000000  0.4768080000000 1.0
C      1  0.5031600000000  0.5709580000000  0.5584250000000 1.0
C      1  0.5489770000000  0.5274550000000  0.4122470000000 1.0
C      1  0.5120350000000  0.5428300000000  0.4749390000000 1.0
C      1  0.5133460000000  0.5709690000000  0.4766950000000 1.0
C      1  0.5376470000000  0.5338820000000  0.5042550000000 1.0
C      1  0.4967840000000  0.4979480000000  0.5499460000000 1.0
C      1  0.5255370000000  0.5289950000000  0.4527690000000 1.0
C      1  0.5243800000000  0.4274840000000  0.4384360000000 1.0
C      1  0.4176150000000  0.5241010000000  0.5234120000000 1.0
C      1  0.4506510000000  0.4631020000000  0.4712410000000 1.0
C      1  0.4440890000000  0.4221020000000  0.5056930000000 1.0
C      1  0.4717380000000  0.5774390000000  0.5346200000000 1.0
C      1  0.5772920000000  0.5414880000000  0.4593110000000 1.0
C      1  0.4547700000000  0.5457230000000  0.4348650000000 1.0
C      1  0.4811100000000  0.4931530000000  0.4452120000000 1.0
C      1  0.4916580000000  0.5287660000000  0.4928250000000 1.0
C      1  0.5727710000000  0.5325220000000  0.4306480000000 1.0
C      1  0.5297110000000  0.5582990000000  0.4426060000000 1.0
C      1  0.5722110000000  0.4975360000000  0.5685280000000 1.0
C      1  0.5025450000000  0.4685410000000  0.5507460000000 1.0
C      1  0.5503180000000  0.4972870000000  0.4718210000000 1.0
END
