TITL C-2778430-5657-459 0.00148822969535241 125000 -790.42457099587 0 0 132 (C1) n - 1
REM
REM in /home/nfs/bkarasulu/CARBON/AIRSS/Generating-Clusters/REBO/Only-C1/SD-CG/HFTN-CG
REM
REM
REM
REM
REM
REM ./C.cell (11c1c37f851c82e70ff6c80c92926a4b)
REM
REM compiler GCC version 9.2.1 20190827 (Red Hat 9.2.1-1)
REM options -cpp -mtune=generic -march=x86-64 -g -O0 -fpre-include=/usr/include/finclude/math-vector-fortran.h
REM seed 1723481312 -1506233724 -671802660 -598409535 1512158943 1455118216 276370021 1236768704 1634555697 -649339804 40151573 198539595 -916961513 -1957295325 489490276 1650426408 -277600516 172909513 -243730935 -665719386 -305224195 1702317745 -1573268059 -1814678697 2118281322 -62936380 -1216999750 -646228527 1758012322 802264715 343034729 1193373553 -1107149630
REM
CELL 1.54180   50.00000   50.00000   50.00000   90.00000   90.00000   90.00000
LATT -1
SFAC C  
C      1  0.4125000000000  0.4983700000000  0.4861210000000 1.0
C      1  0.4782650000000  0.4183870000000  0.4402010000000 1.0
C      1  0.5301380000000  0.5233890000000  0.4375110000000 1.0
C      1  0.5380220000000  0.4266480000000  0.4503560000000 1.0
C      1  0.4874660000000  0.5179160000000  0.5666920000000 1.0
C      1  0.5255110000000  0.4791110000000  0.4579680000000 1.0
C      1  0.5013930000000  0.5398600000000  0.4152960000000 1.0
C      1  0.4841950000000  0.5375360000000  0.5445140000000 1.0
C      1  0.5218030000000  0.4110860000000  0.4689490000000 1.0
C      1  0.5960330000000  0.4844600000000  0.4757520000000 1.0
C      1  0.5785290000000  0.5130660000000  0.5318710000000 1.0
C      1  0.4138050000000  0.5290590000000  0.5322740000000 1.0
C      1  0.4238680000000  0.4827390000000  0.4610920000000 1.0
C      1  0.5313070000000  0.5401750000000  0.4881800000000 1.0
C      1  0.4157190000000  0.5268370000000  0.4839790000000 1.0
C      1  0.4667530000000  0.4557880000000  0.4669730000000 1.0
C      1  0.5037280000000  0.4968950000000  0.4772130000000 1.0
C      1  0.4995280000000  0.4998870000000  0.5082550000000 1.0
C      1  0.5852830000000  0.5159480000000  0.4774310000000 1.0
C      1  0.4399420000000  0.5835350000000  0.4801970000000 1.0
C      1  0.4934540000000  0.4081020000000  0.4622040000000 1.0
C      1  0.4379890000000  0.5707560000000  0.4486350000000 1.0
C      1  0.4811370000000  0.4171880000000  0.4864030000000 1.0
C      1  0.4747330000000  0.5381630000000  0.4742710000000 1.0
C      1  0.5510830000000  0.4348280000000  0.5360460000000 1.0
C      1  0.4949070000000  0.5489950000000  0.4551440000000 1.0
C      1  0.5863090000000  0.5600440000000  0.4945610000000 1.0
C      1  0.5057330000000  0.4196390000000  0.5444070000000 1.0
C      1  0.4151450000000  0.5439870000000  0.5075100000000 1.0
C      1  0.4644290000000  0.4441190000000  0.5638650000000 1.0
C      1  0.5907330000000  0.5868520000000  0.4951620000000 1.0
C      1  0.4546120000000  0.4321620000000  0.4502850000000 1.0
C      1  0.5759710000000  0.4836470000000  0.5490260000000 1.0
C      1  0.5547520000000  0.5209900000000  0.4887270000000 1.0
C      1  0.5143570000000  0.5532090000000  0.5068510000000 1.0
C      1  0.4327500000000  0.5727580000000  0.5120900000000 1.0
C      1  0.5079350000000  0.4974030000000  0.5623510000000 1.0
C      1  0.4924120000000  0.4794820000000  0.4311750000000 1.0
C      1  0.5589710000000  0.5496250000000  0.5348990000000 1.0
C      1  0.5087360000000  0.5920380000000  0.4486360000000 1.0
C      1  0.5624430000000  0.4844140000000  0.4425590000000 1.0
C      1  0.4290430000000  0.5022090000000  0.5376540000000 1.0
C      1  0.4882590000000  0.5734260000000  0.4416020000000 1.0
C      1  0.4723250000000  0.5428190000000  0.4215790000000 1.0
C      1  0.5142470000000  0.5173220000000  0.5963290000000 1.0
C      1  0.5082660000000  0.4705630000000  0.5524960000000 1.0
C      1  0.5799840000000  0.5458350000000  0.4704350000000 1.0
C      1  0.4950960000000  0.4543370000000  0.4515850000000 1.0
C      1  0.4690030000000  0.4101490000000  0.5143040000000 1.0
C      1  0.4548150000000  0.5174430000000  0.5923150000000 1.0
C      1  0.5083530000000  0.5559970000000  0.5357680000000 1.0
C      1  0.5384430000000  0.4806650000000  0.5202770000000 1.0
C      1  0.4167310000000  0.4767190000000  0.5343500000000 1.0
C      1  0.5663670000000  0.4815790000000  0.5754500000000 1.0
C      1  0.5109170000000  0.5153550000000  0.4034350000000 1.0
C      1  0.4880730000000  0.4471770000000  0.4902540000000 1.0
C      1  0.5168030000000  0.4536010000000  0.4768370000000 1.0
C      1  0.5124830000000  0.5676020000000  0.5673780000000 1.0
C      1  0.4685850000000  0.4561170000000  0.4091980000000 1.0
C      1  0.5299140000000  0.4609840000000  0.5373880000000 1.0
C      1  0.6250770000000  0.4768470000000  0.4751560000000 1.0
C      1  0.4561640000000  0.4982150000000  0.5286400000000 1.0
C      1  0.5292840000000  0.5552090000000  0.4275490000000 1.0
C      1  0.4613490000000  0.5133680000000  0.5043110000000 1.0
C      1  0.5117250000000  0.4688800000000  0.5921680000000 1.0
C      1  0.5297230000000  0.4266480000000  0.5577900000000 1.0
C      1  0.4312500000000  0.5381030000000  0.4558160000000 1.0
C      1  0.5407890000000  0.5608330000000  0.5818300000000 1.0
C      1  0.5276720000000  0.6003030000000  0.5007260000000 1.0
C      1  0.5659320000000  0.4380820000000  0.4624500000000 1.0
C      1  0.4621060000000  0.5676880000000  0.5665130000000 1.0
C      1  0.4886850000000  0.5646120000000  0.4912860000000 1.0
C      1  0.5702340000000  0.4234670000000  0.4911330000000 1.0
C      1  0.5477110000000  0.4554200000000  0.4827440000000 1.0
C      1  0.4338660000000  0.5390050000000  0.5524180000000 1.0
C      1  0.4508660000000  0.4375620000000  0.5260090000000 1.0
C      1  0.5247330000000  0.5050800000000  0.5200050000000 1.0
C      1  0.4469640000000  0.5514450000000  0.4816590000000 1.0
C      1  0.4678110000000  0.4920380000000  0.5911060000000 1.0
C      1  0.5624590000000  0.4723990000000  0.5030040000000 1.0
C      1  0.4266210000000  0.4333430000000  0.4498260000000 1.0
C      1  0.5250970000000  0.4098520000000  0.4991050000000 1.0
C      1  0.5767050000000  0.4687840000000  0.4587410000000 1.0
C      1  0.4578200000000  0.5419260000000  0.5364590000000 1.0
C      1  0.5606340000000  0.5500260000000  0.5657330000000 1.0
C      1  0.4849650000000  0.4387210000000  0.5464470000000 1.0
C      1  0.5364420000000  0.5738610000000  0.4541650000000 1.0
C      1  0.4796720000000  0.4541860000000  0.5184450000000 1.0
C      1  0.4742710000000  0.5064120000000  0.4779450000000 1.0
C      1  0.4480500000000  0.4726940000000  0.4162720000000 1.0
C      1  0.5824330000000  0.4967750000000  0.5044120000000 1.0
C      1  0.5706010000000  0.4605660000000  0.5322650000000 1.0
C      1  0.4233340000000  0.4293570000000  0.5075890000000 1.0
C      1  0.5838690000000  0.5442330000000  0.5186050000000 1.0
C      1  0.5282630000000  0.4423000000000  0.5814420000000 1.0
C      1  0.4376100000000  0.4037230000000  0.5099240000000 1.0
C      1  0.5621360000000  0.5169510000000  0.4354280000000 1.0
C      1  0.4079000000000  0.4756100000000  0.5066540000000 1.0
C      1  0.5347170000000  0.5059760000000  0.5750780000000 1.0
C      1  0.5144140000000  0.5458720000000  0.5936180000000 1.0
C      1  0.4547200000000  0.5396230000000  0.5086170000000 1.0
C      1  0.4142040000000  0.4534520000000  0.4653730000000 1.0
C      1  0.5196410000000  0.5380820000000  0.4621000000000 1.0
C      1  0.4872960000000  0.5791300000000  0.5493590000000 1.0
C      1  0.5028890000000  0.4866290000000  0.4062890000000 1.0
C      1  0.4652640000000  0.5799300000000  0.5028060000000 1.0
C      1  0.5352730000000  0.4715470000000  0.4287430000000 1.0
C      1  0.4555810000000  0.4722740000000  0.5744330000000 1.0
C      1  0.4721420000000  0.4967790000000  0.4396460000000 1.0
C      1  0.4498080000000  0.5214500000000  0.4344460000000 1.0
C      1  0.5588020000000  0.5492900000000  0.4465500000000 1.0
C      1  0.5367770000000  0.5025670000000  0.4759770000000 1.0
C      1  0.5502740000000  0.4190540000000  0.5095320000000 1.0
C      1  0.4938620000000  0.4389480000000  0.4214460000000 1.0
C      1  0.4366060000000  0.4575960000000  0.5495440000000 1.0
C      1  0.4808920000000  0.4837510000000  0.5225080000000 1.0
C      1  0.5566510000000  0.5174410000000  0.5578300000000 1.0
C      1  0.4101480000000  0.4497730000000  0.4935860000000 1.0
C      1  0.5153720000000  0.5823510000000  0.4796790000000 1.0
C      1  0.4562480000000  0.5816120000000  0.5355900000000 1.0
C      1  0.5390040000000  0.5009660000000  0.4152810000000 1.0
C      1  0.5407260000000  0.5262490000000  0.5275980000000 1.0
C      1  0.4340270000000  0.4914660000000  0.4312380000000 1.0
C      1  0.5257340000000  0.4423510000000  0.4289520000000 1.0
C      1  0.4311540000000  0.5299630000000  0.5791200000000 1.0
C      1  0.4964710000000  0.4919210000000  0.6001780000000 1.0
C      1  0.4605420000000  0.5713240000000  0.4301990000000 1.0
C      1  0.5445500000000  0.4692900000000  0.5874870000000 1.0
C      1  0.4687290000000  0.5434220000000  0.5806920000000 1.0
C      1  0.5380390000000  0.6154360000000  0.5184680000000 1.0
C      1  0.4557230000000  0.4836120000000  0.4638830000000 1.0
C      1  0.5028180000000  0.4073570000000  0.5181240000000 1.0
END
