TITL C-2778437-8639-167 0.000938914751806243 125000 -284.422672395673 0 0 50 (C1) n - 1
REM
REM in /home/nfs/bkarasulu/CARBON/AIRSS/Generating-Clusters/REBO/Only-C1/SD-CG/HFTN-CG
REM
REM
REM
REM
REM
REM ./C.cell (11c1c37f851c82e70ff6c80c92926a4b)
REM
REM compiler GCC version 9.2.1 20190827 (Red Hat 9.2.1-1)
REM options -cpp -mtune=generic -march=x86-64 -g -O0 -fpre-include=/usr/include/finclude/math-vector-fortran.h
REM seed 1835374786 533106032 -1964560679 -560166021 -1534761167 2136878564 -1469959291 -1845762827 190819322 -1714197323 1417825156 824082307 1741640462 -910001827 453665127 515337248 -1112471636 1500511326 442730922 58936817 -1486433264 1741252561 -951289335 1223391658 -645500416 957467105 -872118868 1737918873 996933073 -1968996030 167122845 -1465890398 -2031076286
REM
CELL 1.54180   50.00000   50.00000   50.00000   90.00000   90.00000   90.00000
LATT -1
SFAC C  
C      1  0.5608670000000  0.4779700000000  0.5007280000000 1.0
C      1  0.4977110000000  0.4728070000000  0.4761770000000 1.0
C      1  0.4976140000000  0.5421950000000  0.4538870000000 1.0
C      1  0.5119720000000  0.5124870000000  0.4454420000000 1.0
C      1  0.5207940000000  0.5254020000000  0.5575620000000 1.0
C      1  0.5293360000000  0.5520850000000  0.5417450000000 1.0
C      1  0.4978130000000  0.5537840000000  0.5484710000000 1.0
C      1  0.4623770000000  0.5353130000000  0.5479570000000 1.0
C      1  0.4939710000000  0.4907560000000  0.5045500000000 1.0
C      1  0.4735260000000  0.5594610000000  0.5278960000000 1.0
C      1  0.5362800000000  0.4413350000000  0.4717480000000 1.0
C      1  0.5001000000000  0.4405820000000  0.5365760000000 1.0
C      1  0.4381920000000  0.5250840000000  0.5360550000000 1.0
C      1  0.4744320000000  0.4510670000000  0.4781860000000 1.0
C      1  0.4850310000000  0.5583810000000  0.4964630000000 1.0
C      1  0.4386370000000  0.4813310000000  0.4575240000000 1.0
C      1  0.5355290000000  0.4685670000000  0.5483290000000 1.0
C      1  0.4889260000000  0.5114480000000  0.4779420000000 1.0
C      1  0.5298900000000  0.5215710000000  0.5051170000000 1.0
C      1  0.5136900000000  0.4788650000000  0.4401620000000 1.0
C      1  0.5205150000000  0.4978990000000  0.4745550000000 1.0
C      1  0.5063380000000  0.5575800000000  0.4764340000000 1.0
C      1  0.4434330000000  0.5203820000000  0.5086900000000 1.0
C      1  0.5360460000000  0.4990020000000  0.5469510000000 1.0
C      1  0.4780420000000  0.5087480000000  0.4457750000000 1.0
C      1  0.5144400000000  0.5053600000000  0.5237190000000 1.0
C      1  0.4659890000000  0.5371970000000  0.4552930000000 1.0
C      1  0.5319100000000  0.4591750000000  0.4496940000000 1.0
C      1  0.5601730000000  0.5337960000000  0.4963260000000 1.0
C      1  0.4462930000000  0.5346370000000  0.4779380000000 1.0
C      1  0.5462220000000  0.4553730000000  0.5216290000000 1.0
C      1  0.4875080000000  0.4270320000000  0.4804000000000 1.0
C      1  0.5461740000000  0.5546640000000  0.5198540000000 1.0
C      1  0.4518690000000  0.5585810000000  0.5014270000000 1.0
C      1  0.4361470000000  0.5022760000000  0.4828670000000 1.0
C      1  0.4851540000000  0.4694540000000  0.4446350000000 1.0
C      1  0.5632380000000  0.5070020000000  0.5427180000000 1.0
C      1  0.4754890000000  0.5266150000000  0.5040590000000 1.0
C      1  0.4487640000000  0.4708870000000  0.4874520000000 1.0
C      1  0.5135850000000  0.4546520000000  0.5578050000000 1.0
C      1  0.5318080000000  0.5517070000000  0.4891120000000 1.0
C      1  0.4749660000000  0.4508380000000  0.5282910000000 1.0
C      1  0.4602190000000  0.4843540000000  0.4393640000000 1.0
C      1  0.4882340000000  0.5185850000000  0.5326650000000 1.0
C      1  0.4888990000000  0.5260490000000  0.5662980000000 1.0
C      1  0.5150720000000  0.4292580000000  0.4881570000000 1.0
C      1  0.4697020000000  0.4718040000000  0.5118090000000 1.0
C      1  0.5197630000000  0.4358040000000  0.5157280000000 1.0
C      1  0.5500460000000  0.5021980000000  0.4878640000000 1.0
C      1  0.5572730000000  0.4486020000000  0.4899760000000 1.0
END
