TITL C-2778436-5916-204 -0.00142192671352065 125000 -557.421337104229 0 0 98 (C1) n - 1
REM
REM in /home/nfs/bkarasulu/CARBON/AIRSS/Generating-Clusters/REBO/Only-C1/SD-CG/HFTN-CG
REM
REM
REM
REM
REM
REM ./C.cell (11c1c37f851c82e70ff6c80c92926a4b)
REM
REM compiler GCC version 9.2.1 20190827 (Red Hat 9.2.1-1)
REM options -cpp -mtune=generic -march=x86-64 -g -O0 -fpre-include=/usr/include/finclude/math-vector-fortran.h
REM seed -469132276 1579902607 -1735285903 1097061309 -31483601 446475011 -732263296 -45110365 -760097338 1857301589 -849421416 -571873638 -1645867011 1263648779 787707263 -962477608 -168905930 -408143594 -1237276054 1904619618 -1462228277 -1715436106 1624656088 -2021282306 -326979537 340199910 1006074619 1162257559 1368901614 1194107260 1929606284 333348780 -383050368
REM
CELL 1.54180   50.00000   50.00000   50.00000   90.00000   90.00000   90.00000
LATT -1
SFAC C  
C      1  0.5070980000000  0.5156430000000  0.4905280000000 1.0
C      1  0.5551590000000  0.5556120000000  0.5673820000000 1.0
C      1  0.5217610000000  0.4348320000000  0.4509540000000 1.0
C      1  0.5571220000000  0.5767130000000  0.5123290000000 1.0
C      1  0.4833890000000  0.4019020000000  0.5031190000000 1.0
C      1  0.4752440000000  0.5674880000000  0.4676000000000 1.0
C      1  0.5586490000000  0.4385630000000  0.4680850000000 1.0
C      1  0.5052890000000  0.5282240000000  0.4411760000000 1.0
C      1  0.4706030000000  0.4492240000000  0.5125350000000 1.0
C      1  0.5804760000000  0.4823790000000  0.4866730000000 1.0
C      1  0.5382680000000  0.4254790000000  0.4860150000000 1.0
C      1  0.4856970000000  0.4312590000000  0.4923260000000 1.0
C      1  0.5724770000000  0.4938040000000  0.5172750000000 1.0
C      1  0.4256800000000  0.4723850000000  0.5133890000000 1.0
C      1  0.4674370000000  0.5307100000000  0.4290740000000 1.0
C      1  0.5069970000000  0.4964020000000  0.5748050000000 1.0
C      1  0.4561390000000  0.4613210000000  0.5650340000000 1.0
C      1  0.5249550000000  0.5178590000000  0.5656480000000 1.0
C      1  0.5671820000000  0.5513400000000  0.5192240000000 1.0
C      1  0.4760560000000  0.4614460000000  0.4381370000000 1.0
C      1  0.4864620000000  0.4226860000000  0.5468940000000 1.0
C      1  0.5419030000000  0.4795950000000  0.4960710000000 1.0
C      1  0.5515980000000  0.5275740000000  0.5130840000000 1.0
C      1  0.4944620000000  0.5608800000000  0.5498720000000 1.0
C      1  0.5425890000000  0.4973320000000  0.4180100000000 1.0
C      1  0.5557030000000  0.4702070000000  0.5333050000000 1.0
C      1  0.4343280000000  0.4959010000000  0.4454950000000 1.0
C      1  0.4137170000000  0.5035640000000  0.5207110000000 1.0
C      1  0.5165890000000  0.4682520000000  0.5807470000000 1.0
C      1  0.4917370000000  0.5151980000000  0.4129610000000 1.0
C      1  0.5626910000000  0.4552090000000  0.4969220000000 1.0
C      1  0.5187580000000  0.5439420000000  0.5761380000000 1.0
C      1  0.4869710000000  0.4642560000000  0.5541880000000 1.0
C      1  0.4382310000000  0.4447650000000  0.5167470000000 1.0
C      1  0.4969770000000  0.5770450000000  0.4994040000000 1.0
C      1  0.4835580000000  0.5079680000000  0.4577310000000 1.0
C      1  0.5387220000000  0.5413920000000  0.4582410000000 1.0
C      1  0.4631100000000  0.4867160000000  0.4431000000000 1.0
C      1  0.4160410000000  0.4871450000000  0.4656360000000 1.0
C      1  0.5086000000000  0.4940770000000  0.5169930000000 1.0
C      1  0.4785390000000  0.5367060000000  0.4695500000000 1.0
C      1  0.4666420000000  0.5812930000000  0.4956340000000 1.0
C      1  0.4484420000000  0.5237320000000  0.4469130000000 1.0
C      1  0.5641370000000  0.4716320000000  0.4608140000000 1.0
C      1  0.4552000000000  0.5275960000000  0.5082580000000 1.0
C      1  0.4957290000000  0.5281670000000  0.5405140000000 1.0
C      1  0.5271010000000  0.5695400000000  0.5548750000000 1.0
C      1  0.4902100000000  0.4789620000000  0.4712920000000 1.0
C      1  0.4439110000000  0.5171720000000  0.4779150000000 1.0
C      1  0.4804280000000  0.5074760000000  0.5628600000000 1.0
C      1  0.4892570000000  0.5499810000000  0.5826850000000 1.0
C      1  0.4179700000000  0.4585120000000  0.4688810000000 1.0
C      1  0.5240290000000  0.5166930000000  0.4080330000000 1.0
C      1  0.5475540000000  0.4520460000000  0.4387910000000 1.0
C      1  0.4579760000000  0.4911110000000  0.5482630000000 1.0
C      1  0.5409400000000  0.4799010000000  0.5617080000000 1.0
C      1  0.5160350000000  0.5940900000000  0.4838120000000 1.0
C      1  0.4737980000000  0.4361170000000  0.4607940000000 1.0
C      1  0.4819180000000  0.4916270000000  0.4010710000000 1.0
C      1  0.5779430000000  0.5502930000000  0.5457650000000 1.0
C      1  0.5609760000000  0.5218270000000  0.4605390000000 1.0
C      1  0.4493610000000  0.5416840000000  0.5553540000000 1.0
C      1  0.4247620000000  0.4834960000000  0.5449170000000 1.0
C      1  0.5352680000000  0.4860850000000  0.4573920000000 1.0
C      1  0.5136410000000  0.4392840000000  0.5368140000000 1.0
C      1  0.5628920000000  0.5061200000000  0.4366250000000 1.0
C      1  0.4849930000000  0.3978780000000  0.5281620000000 1.0
C      1  0.4624450000000  0.5640530000000  0.5426420000000 1.0
C      1  0.4788070000000  0.4789140000000  0.5241580000000 1.0
C      1  0.5176180000000  0.5588400000000  0.4459650000000 1.0
C      1  0.4591170000000  0.4380300000000  0.5427660000000 1.0
C      1  0.4120430000000  0.5100550000000  0.4886920000000 1.0
C      1  0.5225460000000  0.5123480000000  0.4654140000000 1.0
C      1  0.4239350000000  0.5381250000000  0.5044970000000 1.0
C      1  0.5129030000000  0.4661700000000  0.4527780000000 1.0
C      1  0.5642370000000  0.4996130000000  0.5496420000000 1.0
C      1  0.5142550000000  0.4408830000000  0.4966560000000 1.0
C      1  0.5332450000000  0.4701510000000  0.4187180000000 1.0
C      1  0.4997060000000  0.5481970000000  0.4935730000000 1.0
C      1  0.5133980000000  0.4718510000000  0.4922820000000 1.0
C      1  0.4839180000000  0.5271310000000  0.5123440000000 1.0
C      1  0.4529470000000  0.5778820000000  0.5199900000000 1.0
C      1  0.5394480000000  0.4473160000000  0.5193900000000 1.0
C      1  0.5023290000000  0.4649440000000  0.4210710000000 1.0
C      1  0.4624280000000  0.4696150000000  0.4792230000000 1.0
C      1  0.5050740000000  0.4402880000000  0.5697110000000 1.0
C      1  0.5380640000000  0.5999270000000  0.5010470000000 1.0
C      1  0.4446190000000  0.4482030000000  0.4684500000000 1.0
C      1  0.5003750000000  0.4187020000000  0.4568920000000 1.0
C      1  0.5654440000000  0.5115410000000  0.4888130000000 1.0
C      1  0.4452440000000  0.4881750000000  0.4929330000000 1.0
C      1  0.5680630000000  0.5253490000000  0.5627460000000 1.0
C      1  0.5022570000000  0.5784460000000  0.4598350000000 1.0
C      1  0.5275720000000  0.5180450000000  0.5324780000000 1.0
C      1  0.4671930000000  0.5319450000000  0.5763290000000 1.0
C      1  0.4404380000000  0.5188170000000  0.5353860000000 1.0
C      1  0.5356120000000  0.5885910000000  0.5326470000000 1.0
C      1  0.5166430000000  0.4725440000000  0.5411420000000 1.0
END
