TITL C-2778429-3646-592 -0.00526030886595484 125000 -477.261867806327 0 0 85 (C1) n - 1
REM
REM in /home/nfs/bkarasulu/CARBON/AIRSS/Generating-Clusters/REBO/Only-C1/SD-CG/HFTN-CG
REM
REM
REM
REM
REM
REM ./C.cell (11c1c37f851c82e70ff6c80c92926a4b)
REM
REM compiler GCC version 9.2.1 20190827 (Red Hat 9.2.1-1)
REM options -cpp -mtune=generic -march=x86-64 -g -O0 -fpre-include=/usr/include/finclude/math-vector-fortran.h
REM seed 1399505107 -1251872102 -1203150209 -46234517 -903820481 -1032771703 1217267557 190830958 733022237 -567635002 1539850762 -1293410965 1275393838 1653080846 -379422170 -349606340 279510734 559983039 -506289296 549315890 -1160608317 77184127 1782387745 2044728527 -873069471 -60333046 -334633395 -2048608637 -753670229 108377813 -1013170070 1811464730 -1113488782
REM
CELL 1.54180   50.00000   50.00000   50.00000   90.00000   90.00000   90.00000
LATT -1
SFAC C  
C      1  0.4988640000000  0.4183190000000  0.5518000000000 1.0
C      1  0.5615080000000  0.4894780000000  0.4983430000000 1.0
C      1  0.4728300000000  0.4583890000000  0.5345450000000 1.0
C      1  0.4300960000000  0.4748570000000  0.4615680000000 1.0
C      1  0.4264970000000  0.4609570000000  0.4908410000000 1.0
C      1  0.4255160000000  0.5374990000000  0.5330480000000 1.0
C      1  0.4977660000000  0.4752980000000  0.5771720000000 1.0
C      1  0.5282790000000  0.5370100000000  0.5057730000000 1.0
C      1  0.4173230000000  0.4902390000000  0.5436000000000 1.0
C      1  0.5489940000000  0.5221930000000  0.4608120000000 1.0
C      1  0.5317020000000  0.4933200000000  0.4662300000000 1.0
C      1  0.4649670000000  0.4450440000000  0.4600620000000 1.0
C      1  0.4449980000000  0.4756280000000  0.5372810000000 1.0
C      1  0.4765600000000  0.6091450000000  0.4635920000000 1.0
C      1  0.5217390000000  0.4340050000000  0.5451960000000 1.0
C      1  0.5698300000000  0.4198190000000  0.4570080000000 1.0
C      1  0.4948300000000  0.4321070000000  0.5005060000000 1.0
C      1  0.5021580000000  0.5089890000000  0.5794950000000 1.0
C      1  0.5373750000000  0.5468120000000  0.4537400000000 1.0
C      1  0.5620880000000  0.4409310000000  0.4731940000000 1.0
C      1  0.5299230000000  0.4944310000000  0.4155310000000 1.0
C      1  0.5178620000000  0.4478590000000  0.5185080000000 1.0
C      1  0.4749030000000  0.4263130000000  0.5415040000000 1.0
C      1  0.5124180000000  0.5460230000000  0.4398540000000 1.0
C      1  0.5185000000000  0.5709910000000  0.5281850000000 1.0
C      1  0.5157480000000  0.5578680000000  0.4854510000000 1.0
C      1  0.5355690000000  0.4501960000000  0.5638780000000 1.0
C      1  0.4457730000000  0.4965610000000  0.4975910000000 1.0
C      1  0.4925360000000  0.4981990000000  0.4059430000000 1.0
C      1  0.3966850000000  0.5072040000000  0.5053100000000 1.0
C      1  0.5592770000000  0.5755740000000  0.4932440000000 1.0
C      1  0.4515220000000  0.5226560000000  0.5181280000000 1.0
C      1  0.4969630000000  0.5464910000000  0.5377950000000 1.0
C      1  0.5264290000000  0.4959000000000  0.5594980000000 1.0
C      1  0.5199510000000  0.4588290000000  0.5863480000000 1.0
C      1  0.5661180000000  0.4860480000000  0.4474660000000 1.0
C      1  0.4944430000000  0.5054410000000  0.5475100000000 1.0
C      1  0.5167800000000  0.5140030000000  0.5256040000000 1.0
C      1  0.4695280000000  0.4763380000000  0.5057290000000 1.0
C      1  0.4641030000000  0.5032370000000  0.5431270000000 1.0
C      1  0.5091400000000  0.5184470000000  0.4868680000000 1.0
C      1  0.5499930000000  0.5136200000000  0.5487800000000 1.0
C      1  0.4723590000000  0.5143710000000  0.4527860000000 1.0
C      1  0.4922480000000  0.5618470000000  0.4493520000000 1.0
C      1  0.5563410000000  0.4933160000000  0.4219820000000 1.0
C      1  0.4394440000000  0.4514700000000  0.5139570000000 1.0
C      1  0.4795610000000  0.5392230000000  0.5124010000000 1.0
C      1  0.4878410000000  0.5591550000000  0.4889970000000 1.0
C      1  0.4708030000000  0.4498850000000  0.4892860000000 1.0
C      1  0.5654570000000  0.4547610000000  0.5289180000000 1.0
C      1  0.5630070000000  0.5443720000000  0.5412140000000 1.0
C      1  0.5043630000000  0.4773740000000  0.4306350000000 1.0
C      1  0.4536710000000  0.4676180000000  0.4473510000000 1.0
C      1  0.4067090000000  0.5122830000000  0.5305060000000 1.0
C      1  0.4460160000000  0.5431690000000  0.4842670000000 1.0
C      1  0.4665390000000  0.5063240000000  0.4030380000000 1.0
C      1  0.4737040000000  0.4855680000000  0.4387250000000 1.0
C      1  0.5699300000000  0.5020940000000  0.4738440000000 1.0
C      1  0.4555900000000  0.5184990000000  0.4252050000000 1.0
C      1  0.4747440000000  0.5822310000000  0.4693910000000 1.0
C      1  0.4626630000000  0.4272770000000  0.5118280000000 1.0
C      1  0.5844890000000  0.5235600000000  0.5322770000000 1.0
C      1  0.4505950000000  0.5734450000000  0.4868020000000 1.0
C      1  0.5326760000000  0.4766260000000  0.4953440000000 1.0
C      1  0.4155190000000  0.4923380000000  0.4869090000000 1.0
C      1  0.5681970000000  0.4944520000000  0.5277540000000 1.0
C      1  0.5293310000000  0.5388230000000  0.5456620000000 1.0
C      1  0.4839300000000  0.5068860000000  0.5016510000000 1.0
C      1  0.5486130000000  0.5603040000000  0.5182320000000 1.0
C      1  0.4331560000000  0.5571330000000  0.5095790000000 1.0
C      1  0.5173660000000  0.4817870000000  0.5232590000000 1.0
C      1  0.5403720000000  0.5707600000000  0.4719540000000 1.0
C      1  0.4918280000000  0.5386860000000  0.5693060000000 1.0
C      1  0.5096420000000  0.5180820000000  0.4255770000000 1.0
C      1  0.5681220000000  0.4418060000000  0.4996640000000 1.0
C      1  0.4982910000000  0.4674380000000  0.5470880000000 1.0
C      1  0.4462880000000  0.5256450000000  0.5572270000000 1.0
C      1  0.5478520000000  0.4635200000000  0.4607490000000 1.0
C      1  0.4799100000000  0.5554860000000  0.5858900000000 1.0
C      1  0.5188830000000  0.4490430000000  0.4840830000000 1.0
C      1  0.5839370000000  0.4286610000000  0.5249170000000 1.0
C      1  0.5502960000000  0.4739890000000  0.5486800000000 1.0
C      1  0.5160770000000  0.4592790000000  0.4522150000000 1.0
C      1  0.4605280000000  0.5186410000000  0.4794280000000 1.0
C      1  0.5050290000000  0.5105070000000  0.4564100000000 1.0
END
