TITL C-2778422-5617-814 0.00140778490564707 125000 -888.041941140579 0 0 153 (C1) n - 1
REM
REM in /home/nfs/bkarasulu/CARBON/AIRSS/Generating-Clusters/REBO/Only-C1/SD-CG/HFTN-CG
REM
REM
REM
REM
REM
REM ./C.cell (11c1c37f851c82e70ff6c80c92926a4b)
REM
REM compiler GCC version 9.2.1 20190827 (Red Hat 9.2.1-1)
REM options -cpp -mtune=generic -march=x86-64 -g -O0 -fpre-include=/usr/include/finclude/math-vector-fortran.h
REM seed 1630058774 -586852556 1516957508 530533376 1256078247 221241824 1727359667 -167561408 -1966901808 1340120720 1059256211 534929457 -1682540286 -2007146985 450900500 1374962126 -30014780 -787479952 -375097172 160857365 1862122841 525848951 510754967 -1269184625 -385689961 1469974319 1235222912 267581814 674455381 2058930219 914145081 749315489 786294916
REM
CELL 1.54180   50.00000   50.00000   50.00000   90.00000   90.00000   90.00000
LATT -1
SFAC C  
C      1  0.6123330000000  0.5706630000000  0.5110210000000 1.0
C      1  0.5654800000000  0.5561950000000  0.5267180000000 1.0
C      1  0.5697990000000  0.4998830000000  0.5511330000000 1.0
C      1  0.4668220000000  0.4728970000000  0.4187140000000 1.0
C      1  0.5052810000000  0.6003530000000  0.4886370000000 1.0
C      1  0.4728920000000  0.5422500000000  0.5521810000000 1.0
C      1  0.5680820000000  0.4763830000000  0.5703100000000 1.0
C      1  0.4705020000000  0.4248600000000  0.5559490000000 1.0
C      1  0.5039530000000  0.5468390000000  0.4137560000000 1.0
C      1  0.5372470000000  0.5079660000000  0.5937590000000 1.0
C      1  0.5453000000000  0.5395670000000  0.5633700000000 1.0
C      1  0.4917200000000  0.4980670000000  0.5441020000000 1.0
C      1  0.4136160000000  0.5235240000000  0.5400820000000 1.0
C      1  0.5980340000000  0.4794450000000  0.5276780000000 1.0
C      1  0.4825910000000  0.5614990000000  0.4947260000000 1.0
C      1  0.5393550000000  0.4064860000000  0.5086130000000 1.0
C      1  0.4510370000000  0.5252190000000  0.5808200000000 1.0
C      1  0.5160290000000  0.4733680000000  0.5913690000000 1.0
C      1  0.5299010000000  0.5963190000000  0.4747530000000 1.0
C      1  0.4289600000000  0.5050810000000  0.4525350000000 1.0
C      1  0.4784700000000  0.4180630000000  0.4313830000000 1.0
C      1  0.5370130000000  0.4362810000000  0.4922760000000 1.0
C      1  0.5509190000000  0.5056140000000  0.5260270000000 1.0
C      1  0.4133270000000  0.5271830000000  0.5069660000000 1.0
C      1  0.5258350000000  0.5350230000000  0.5979490000000 1.0
C      1  0.5497080000000  0.5882770000000  0.4937880000000 1.0
C      1  0.5466040000000  0.4211710000000  0.5373880000000 1.0
C      1  0.4590850000000  0.4489380000000  0.5353570000000 1.0
C      1  0.5951750000000  0.4527200000000  0.4675860000000 1.0
C      1  0.5489200000000  0.4803250000000  0.5904460000000 1.0
C      1  0.4306220000000  0.5609840000000  0.4415480000000 1.0
C      1  0.5867950000000  0.5553730000000  0.5044970000000 1.0
C      1  0.5276360000000  0.5785700000000  0.4484700000000 1.0
C      1  0.4888400000000  0.5181180000000  0.5700850000000 1.0
C      1  0.4657370000000  0.5458020000000  0.4566970000000 1.0
C      1  0.5312080000000  0.4397480000000  0.4429360000000 1.0
C      1  0.4197240000000  0.4985640000000  0.4909000000000 1.0
C      1  0.3921810000000  0.5402920000000  0.5537180000000 1.0
C      1  0.5370790000000  0.5739490000000  0.5201200000000 1.0
C      1  0.4039020000000  0.4505480000000  0.4901410000000 1.0
C      1  0.5001820000000  0.4744520000000  0.4153780000000 1.0
C      1  0.4779760000000  0.3992670000000  0.4506330000000 1.0
C      1  0.4900270000000  0.5030150000000  0.4310840000000 1.0
C      1  0.4767660000000  0.4384010000000  0.5103560000000 1.0
C      1  0.5292130000000  0.5618350000000  0.4243590000000 1.0
C      1  0.5072840000000  0.4407200000000  0.5185210000000 1.0
C      1  0.4290610000000  0.5080580000000  0.4221640000000 1.0
C      1  0.5198710000000  0.4183110000000  0.5553680000000 1.0
C      1  0.4573790000000  0.4749530000000  0.5151060000000 1.0
C      1  0.4366320000000  0.5467560000000  0.5172300000000 1.0
C      1  0.4910480000000  0.5189160000000  0.4005950000000 1.0
C      1  0.5059250000000  0.4455810000000  0.4845900000000 1.0
C      1  0.5268170000000  0.5182580000000  0.4138730000000 1.0
C      1  0.4169460000000  0.4941000000000  0.5519670000000 1.0
C      1  0.4561600000000  0.4355330000000  0.4626380000000 1.0
C      1  0.5145360000000  0.5522020000000  0.5719440000000 1.0
C      1  0.4950660000000  0.5288710000000  0.5322520000000 1.0
C      1  0.5278640000000  0.4841690000000  0.4121040000000 1.0
C      1  0.4425330000000  0.4567770000000  0.5708470000000 1.0
C      1  0.4051430000000  0.4590040000000  0.4625750000000 1.0
C      1  0.5126190000000  0.5461870000000  0.4894890000000 1.0
C      1  0.5665090000000  0.4450040000000  0.5314580000000 1.0
C      1  0.5174740000000  0.5513820000000  0.5377090000000 1.0
C      1  0.4869240000000  0.3935250000000  0.4748740000000 1.0
C      1  0.4820640000000  0.4735720000000  0.5946060000000 1.0
C      1  0.5531610000000  0.5462850000000  0.4248160000000 1.0
C      1  0.4815360000000  0.4857830000000  0.4591540000000 1.0
C      1  0.5618220000000  0.4167730000000  0.4535420000000 1.0
C      1  0.4077350000000  0.5493130000000  0.4583310000000 1.0
C      1  0.5938060000000  0.5524860000000  0.4652750000000 1.0
C      1  0.4442050000000  0.5276280000000  0.5512960000000 1.0
C      1  0.4682730000000  0.4438650000000  0.5837790000000 1.0
C      1  0.5151890000000  0.5221590000000  0.4440340000000 1.0
C      1  0.5407880000000  0.5347390000000  0.5239950000000 1.0
C      1  0.5386020000000  0.5245520000000  0.4931160000000 1.0
C      1  0.4587200000000  0.5440760000000  0.4958270000000 1.0
C      1  0.5917330000000  0.5116450000000  0.5279000000000 1.0
C      1  0.5677380000000  0.4213400000000  0.4993730000000 1.0
C      1  0.4818630000000  0.5816700000000  0.5203700000000 1.0
C      1  0.4570060000000  0.4644820000000  0.4490700000000 1.0
C      1  0.4975660000000  0.5438410000000  0.4531070000000 1.0
C      1  0.4943030000000  0.4151650000000  0.5375280000000 1.0
C      1  0.4300880000000  0.4766980000000  0.4589140000000 1.0
C      1  0.5353870000000  0.4483820000000  0.5555280000000 1.0
C      1  0.5240760000000  0.4802920000000  0.5591170000000 1.0
C      1  0.5106910000000  0.5946660000000  0.5217990000000 1.0
C      1  0.5726220000000  0.5321620000000  0.5478730000000 1.0
C      1  0.4320580000000  0.4224780000000  0.5210670000000 1.0
C      1  0.4502020000000  0.5035460000000  0.5299110000000 1.0
C      1  0.5583780000000  0.5239190000000  0.4061290000000 1.0
C      1  0.4555750000000  0.4840730000000  0.5538310000000 1.0
C      1  0.4357880000000  0.4886580000000  0.5797930000000 1.0
C      1  0.4197230000000  0.4268090000000  0.4954240000000 1.0
C      1  0.4613740000000  0.5120220000000  0.5010190000000 1.0
C      1  0.5453520000000  0.5735850000000  0.5590460000000 1.0
C      1  0.4500070000000  0.5531990000000  0.4208740000000 1.0
C      1  0.4751830000000  0.5723080000000  0.5517150000000 1.0
C      1  0.5239400000000  0.4888740000000  0.4832630000000 1.0
C      1  0.5031810000000  0.4466770000000  0.5647240000000 1.0
C      1  0.4078780000000  0.4732820000000  0.5071840000000 1.0
C      1  0.5356780000000  0.5115460000000  0.4634150000000 1.0
C      1  0.5222350000000  0.5138970000000  0.5643830000000 1.0
C      1  0.4270830000000  0.4461490000000  0.5436010000000 1.0
C      1  0.4992910000000  0.4444140000000  0.5978280000000 1.0
C      1  0.4073420000000  0.5209790000000  0.4682080000000 1.0
C      1  0.5610140000000  0.5419740000000  0.4529250000000 1.0
C      1  0.4642290000000  0.5253320000000  0.4295160000000 1.0
C      1  0.5615060000000  0.4733270000000  0.4619260000000 1.0
C      1  0.4983110000000  0.5794720000000  0.5692660000000 1.0
C      1  0.4487790000000  0.5859860000000  0.5420580000000 1.0
C      1  0.4987750000000  0.4590340000000  0.4553360000000 1.0
C      1  0.5713570000000  0.4770660000000  0.4896200000000 1.0
C      1  0.4892190000000  0.4007140000000  0.5071600000000 1.0
C      1  0.5165350000000  0.4026190000000  0.4861370000000 1.0
C      1  0.4497030000000  0.5870990000000  0.5102260000000 1.0
C      1  0.5627620000000  0.5021130000000  0.4508680000000 1.0
C      1  0.5846620000000  0.5203840000000  0.4651660000000 1.0
C      1  0.4943530000000  0.4947690000000  0.4864830000000 1.0
C      1  0.4117030000000  0.5555010000000  0.4878510000000 1.0
C      1  0.4493680000000  0.5216020000000  0.4711650000000 1.0
C      1  0.5389210000000  0.5575580000000  0.4711210000000 1.0
C      1  0.5328120000000  0.4136770000000  0.4596910000000 1.0
C      1  0.5917730000000  0.5254080000000  0.4980850000000 1.0
C      1  0.5362230000000  0.4827500000000  0.5105070000000 1.0
C      1  0.4593060000000  0.4127570000000  0.5183870000000 1.0
C      1  0.4482980000000  0.5724900000000  0.4640970000000 1.0
C      1  0.4872100000000  0.4831950000000  0.5151820000000 1.0
C      1  0.5221060000000  0.5891750000000  0.5535000000000 1.0
C      1  0.5541190000000  0.4579730000000  0.5069630000000 1.0
C      1  0.5827860000000  0.4625870000000  0.5461470000000 1.0
C      1  0.4835850000000  0.4661320000000  0.5527530000000 1.0
C      1  0.4547350000000  0.4990560000000  0.4108530000000 1.0
C      1  0.5721810000000  0.4463620000000  0.4460700000000 1.0
C      1  0.5151180000000  0.4698610000000  0.5287180000000 1.0
C      1  0.5698700000000  0.5684980000000  0.4813670000000 1.0
C      1  0.4720110000000  0.4538760000000  0.4844210000000 1.0
C      1  0.4846150000000  0.5856030000000  0.4744290000000 1.0
C      1  0.4454500000000  0.4755800000000  0.4870280000000 1.0
C      1  0.5305930000000  0.4666690000000  0.4613530000000 1.0
C      1  0.4346560000000  0.5753550000000  0.4894300000000 1.0
C      1  0.4127150000000  0.4717050000000  0.5345810000000 1.0
C      1  0.4832070000000  0.5805560000000  0.4465090000000 1.0
C      1  0.4924470000000  0.5235840000000  0.5021250000000 1.0
C      1  0.4866420000000  0.4468000000000  0.4289000000000 1.0
C      1  0.6005940000000  0.4663710000000  0.4985430000000 1.0
C      1  0.4294780000000  0.5645550000000  0.5363060000000 1.0
C      1  0.5912720000000  0.4339580000000  0.4931110000000 1.0
C      1  0.4791670000000  0.5636450000000  0.4236260000000 1.0
C      1  0.4363090000000  0.4197060000000  0.4727000000000 1.0
C      1  0.5501380000000  0.4621740000000  0.4253740000000 1.0
C      1  0.5585970000000  0.4950290000000  0.4207150000000 1.0
C      1  0.5664530000000  0.5055020000000  0.4976030000000 1.0
C      1  0.4674240000000  0.4991840000000  0.5887230000000 1.0
END
