TITL C-2778432-5617-920 -0.000218859258582346 125000 -644.748723793119 0 0 111 (C1) n - 1
REM
REM in /home/nfs/bkarasulu/CARBON/AIRSS/Generating-Clusters/REBO/Only-C1/SD-CG/HFTN-CG
REM
REM
REM
REM
REM
REM ./C.cell (11c1c37f851c82e70ff6c80c92926a4b)
REM
REM compiler GCC version 9.2.1 20190827 (Red Hat 9.2.1-1)
REM options -cpp -mtune=generic -march=x86-64 -g -O0 -fpre-include=/usr/include/finclude/math-vector-fortran.h
REM seed -1408400120 -192937143 -1412373910 -397140877 -376504867 -1697638405 -1838036290 300925208 -2023209861 -925987285 -247905014 -123237887 458401315 1522077012 -1352223724 1056197002 -1933002395 1263341702 1279762090 286770630 1585146291 839112698 -1725929692 1331351406 -239177613 145340104 -652247028 -1166650654 1672619466 -1322257309 1818245509 -1805202883 1580071641
REM
CELL 1.54180   50.00000   50.00000   50.00000   90.00000   90.00000   90.00000
LATT -1
SFAC C  
C      1  0.5249400000000  0.5249690000000  0.4804660000000 1.0
C      1  0.5522490000000  0.4887310000000  0.4267100000000 1.0
C      1  0.5625740000000  0.4209820000000  0.4739600000000 1.0
C      1  0.4303500000000  0.4593330000000  0.4631890000000 1.0
C      1  0.4678070000000  0.5372870000000  0.4747370000000 1.0
C      1  0.5228060000000  0.4953180000000  0.4879370000000 1.0
C      1  0.5558300000000  0.4621600000000  0.4699690000000 1.0
C      1  0.4575020000000  0.4913590000000  0.4561690000000 1.0
C      1  0.4358370000000  0.5333190000000  0.5555290000000 1.0
C      1  0.4643170000000  0.4353580000000  0.5566430000000 1.0
C      1  0.4613620000000  0.4626180000000  0.4651410000000 1.0
C      1  0.4437830000000  0.4279040000000  0.4928760000000 1.0
C      1  0.5401450000000  0.5630250000000  0.4550040000000 1.0
C      1  0.5206450000000  0.5865510000000  0.5324250000000 1.0
C      1  0.5182960000000  0.4935530000000  0.5834140000000 1.0
C      1  0.5115700000000  0.4233670000000  0.5440230000000 1.0
C      1  0.4244140000000  0.4499710000000  0.4898470000000 1.0
C      1  0.5114400000000  0.5680500000000  0.4983180000000 1.0
C      1  0.5370280000000  0.4712430000000  0.5041990000000 1.0
C      1  0.5769000000000  0.5502890000000  0.5097880000000 1.0
C      1  0.4561550000000  0.4261710000000  0.5189170000000 1.0
C      1  0.5827260000000  0.5059050000000  0.5268240000000 1.0
C      1  0.5430950000000  0.4321270000000  0.5341900000000 1.0
C      1  0.4601200000000  0.5294410000000  0.5769320000000 1.0
C      1  0.5088620000000  0.4528400000000  0.5539520000000 1.0
C      1  0.5290170000000  0.5471380000000  0.5131940000000 1.0
C      1  0.4264020000000  0.5030990000000  0.5001290000000 1.0
C      1  0.5161160000000  0.5256520000000  0.5317320000000 1.0
C      1  0.4771900000000  0.4409500000000  0.4259000000000 1.0
C      1  0.4903280000000  0.5441540000000  0.5223230000000 1.0
C      1  0.5603720000000  0.5048340000000  0.5035790000000 1.0
C      1  0.4530740000000  0.4810310000000  0.5226950000000 1.0
C      1  0.4909320000000  0.4890020000000  0.5914200000000 1.0
C      1  0.5838600000000  0.4423750000000  0.4727660000000 1.0
C      1  0.5530890000000  0.5585400000000  0.5506590000000 1.0
C      1  0.5392330000000  0.5299450000000  0.5536710000000 1.0
C      1  0.5034560000000  0.4810160000000  0.4676820000000 1.0
C      1  0.5913110000000  0.4677770000000  0.4874630000000 1.0
C      1  0.5375950000000  0.4303650000000  0.4555970000000 1.0
C      1  0.4849020000000  0.4141140000000  0.4695430000000 1.0
C      1  0.4138560000000  0.5154600000000  0.4720110000000 1.0
C      1  0.4897160000000  0.4537950000000  0.4697760000000 1.0
C      1  0.5607530000000  0.4905940000000  0.4765920000000 1.0
C      1  0.5139890000000  0.4540580000000  0.4302030000000 1.0
C      1  0.4207060000000  0.4721010000000  0.5441010000000 1.0
C      1  0.5254350000000  0.5689040000000  0.5547020000000 1.0
C      1  0.5918580000000  0.4941230000000  0.4659220000000 1.0
C      1  0.5444060000000  0.4598380000000  0.4392640000000 1.0
C      1  0.5336620000000  0.4445290000000  0.4871850000000 1.0
C      1  0.5220490000000  0.4736060000000  0.5322000000000 1.0
C      1  0.5582400000000  0.4602900000000  0.5413950000000 1.0
C      1  0.4338840000000  0.5428480000000  0.4752720000000 1.0
C      1  0.5247530000000  0.5213360000000  0.5813550000000 1.0
C      1  0.5530640000000  0.5346580000000  0.4974500000000 1.0
C      1  0.4921220000000  0.5852120000000  0.5173490000000 1.0
C      1  0.5642410000000  0.5700880000000  0.5262160000000 1.0
C      1  0.5577360000000  0.5059050000000  0.5654580000000 1.0
C      1  0.4259910000000  0.5239380000000  0.5242500000000 1.0
C      1  0.5003430000000  0.4308480000000  0.4473280000000 1.0
C      1  0.4611720000000  0.4893930000000  0.4235620000000 1.0
C      1  0.5000140000000  0.5185220000000  0.4280600000000 1.0
C      1  0.4658730000000  0.4975980000000  0.5834410000000 1.0
C      1  0.4881560000000  0.5321990000000  0.4089940000000 1.0
C      1  0.4836180000000  0.5020340000000  0.4842240000000 1.0
C      1  0.5343300000000  0.4730610000000  0.5630710000000 1.0
C      1  0.4875330000000  0.4723580000000  0.4177650000000 1.0
C      1  0.4958220000000  0.5403500000000  0.4890770000000 1.0
C      1  0.4845350000000  0.5692090000000  0.5448790000000 1.0
C      1  0.5432850000000  0.5863560000000  0.5139050000000 1.0
C      1  0.4721930000000  0.5421490000000  0.4442920000000 1.0
C      1  0.4579780000000  0.5474710000000  0.5254200000000 1.0
C      1  0.4911010000000  0.4976690000000  0.5524430000000 1.0
C      1  0.4823980000000  0.4930730000000  0.5132570000000 1.0
C      1  0.4303140000000  0.5251900000000  0.4461100000000 1.0
C      1  0.4874130000000  0.5041090000000  0.4499210000000 1.0
C      1  0.5200860000000  0.4104040000000  0.5155020000000 1.0
C      1  0.5420200000000  0.5326820000000  0.4544180000000 1.0
C      1  0.5948000000000  0.5317580000000  0.5227690000000 1.0
C      1  0.4484390000000  0.4809320000000  0.5623620000000 1.0
C      1  0.4780460000000  0.5583780000000  0.5766210000000 1.0
C      1  0.4805420000000  0.4156640000000  0.5393410000000 1.0
C      1  0.4525900000000  0.5615750000000  0.5546500000000 1.0
C      1  0.5119940000000  0.4988330000000  0.5186090000000 1.0
C      1  0.4388260000000  0.4651790000000  0.4325440000000 1.0
C      1  0.5113060000000  0.6030450000000  0.4676460000000 1.0
C      1  0.4332170000000  0.5505920000000  0.5050470000000 1.0
C      1  0.4458960000000  0.5800770000000  0.5019750000000 1.0
C      1  0.4827030000000  0.5896810000000  0.4686100000000 1.0
C      1  0.5347570000000  0.5836510000000  0.4816050000000 1.0
C      1  0.4546980000000  0.5220480000000  0.4308910000000 1.0
C      1  0.5721120000000  0.4903200000000  0.5481780000000 1.0
C      1  0.5310740000000  0.5151370000000  0.4299920000000 1.0
C      1  0.5650980000000  0.5083830000000  0.4497390000000 1.0
C      1  0.5690000000000  0.4722530000000  0.5111420000000 1.0
C      1  0.4776420000000  0.4664310000000  0.5519320000000 1.0
C      1  0.4708710000000  0.5883120000000  0.4950490000000 1.0
C      1  0.5145170000000  0.5780720000000  0.4477100000000 1.0
C      1  0.4255410000000  0.5032990000000  0.5508560000000 1.0
C      1  0.5088680000000  0.5495200000000  0.5706530000000 1.0
C      1  0.4442880000000  0.4509450000000  0.5362740000000 1.0
C      1  0.4229610000000  0.4725190000000  0.5102360000000 1.0
C      1  0.4890410000000  0.4422300000000  0.4976200000000 1.0
C      1  0.4508260000000  0.4350300000000  0.4389570000000 1.0
C      1  0.4516930000000  0.5081360000000  0.4819570000000 1.0
C      1  0.4851990000000  0.5676860000000  0.4432590000000 1.0
C      1  0.4980790000000  0.4141250000000  0.4968020000000 1.0
C      1  0.4893160000000  0.5227330000000  0.5630860000000 1.0
C      1  0.5192380000000  0.4848650000000  0.4191480000000 1.0
C      1  0.5490280000000  0.4192610000000  0.5036510000000 1.0
C      1  0.4790090000000  0.4601830000000  0.5181570000000 1.0
C      1  0.4565140000000  0.4213260000000  0.4670530000000 1.0
END
