TITL C-2778428-5639-481 0.00217294428605673 125000 -1116.29488315766 0 0 190 (C1) n - 1
REM
REM in /home/nfs/bkarasulu/CARBON/AIRSS/Generating-Clusters/REBO/Only-C1/SD-CG/HFTN-CG
REM
REM
REM
REM
REM
REM ./C.cell (11c1c37f851c82e70ff6c80c92926a4b)
REM
REM compiler GCC version 9.2.1 20190827 (Red Hat 9.2.1-1)
REM options -cpp -mtune=generic -march=x86-64 -g -O0 -fpre-include=/usr/include/finclude/math-vector-fortran.h
REM seed 559476157 766446300 397981739 872381738 -1951730085 -678650006 70044602 193479217 -1351102844 1946992896 1183313130 -1055894023 2064711810 -1997843783 -1633587378 -253491399 -1825236908 -1633970294 1091539073 -1489887380 -1749514898 -701177966 2127147211 343098374 1128483028 -1060562802 -994148967 -286656324 1566540642 62398964 -608539126 -581302440 -1673680274
REM
CELL 1.54180   50.00000   50.00000   50.00000   90.00000   90.00000   90.00000
LATT -1
SFAC C  
C      1  0.5382850000000  0.4804410000000  0.5567130000000 1.0
C      1  0.5489860000000  0.5072710000000  0.6099800000000 1.0
C      1  0.5509120000000  0.5495520000000  0.5567080000000 1.0
C      1  0.4652360000000  0.5138730000000  0.3993760000000 1.0
C      1  0.5181540000000  0.5163950000000  0.4743160000000 1.0
C      1  0.5311860000000  0.4037870000000  0.5191220000000 1.0
C      1  0.5971950000000  0.5486750000000  0.5862340000000 1.0
C      1  0.6101550000000  0.4713050000000  0.4905720000000 1.0
C      1  0.4469820000000  0.5273420000000  0.5935710000000 1.0
C      1  0.5242270000000  0.5913570000000  0.4396940000000 1.0
C      1  0.5370340000000  0.5181640000000  0.5195640000000 1.0
C      1  0.4970780000000  0.3967080000000  0.4284190000000 1.0
C      1  0.4497550000000  0.4958600000000  0.5341660000000 1.0
C      1  0.5679800000000  0.4337110000000  0.5276870000000 1.0
C      1  0.5623560000000  0.5338190000000  0.5024300000000 1.0
C      1  0.4832440000000  0.4350470000000  0.4513740000000 1.0
C      1  0.4101370000000  0.4819910000000  0.5268640000000 1.0
C      1  0.4975500000000  0.4409250000000  0.4973790000000 1.0
C      1  0.5218890000000  0.5787670000000  0.4694680000000 1.0
C      1  0.5333370000000  0.4126250000000  0.4247090000000 1.0
C      1  0.3939800000000  0.4656060000000  0.5044660000000 1.0
C      1  0.4203630000000  0.4784860000000  0.5546380000000 1.0
C      1  0.5703960000000  0.4545390000000  0.5506860000000 1.0
C      1  0.4702810000000  0.5660050000000  0.4910340000000 1.0
C      1  0.5712310000000  0.4842490000000  0.5347400000000 1.0
C      1  0.5187830000000  0.4009790000000  0.4530190000000 1.0
C      1  0.5744180000000  0.5317690000000  0.4197030000000 1.0
C      1  0.5376650000000  0.4632130000000  0.4106720000000 1.0
C      1  0.5982270000000  0.5476660000000  0.4921170000000 1.0
C      1  0.5008810000000  0.3958170000000  0.4805210000000 1.0
C      1  0.4629500000000  0.5728760000000  0.4365920000000 1.0
C      1  0.5177220000000  0.6006370000000  0.4941640000000 1.0
C      1  0.5431460000000  0.6116710000000  0.4369870000000 1.0
C      1  0.5397540000000  0.5027350000000  0.4916710000000 1.0
C      1  0.4821970000000  0.4229970000000  0.4210410000000 1.0
C      1  0.5802800000000  0.5507970000000  0.4410250000000 1.0
C      1  0.4112830000000  0.4437510000000  0.5153630000000 1.0
C      1  0.3900020000000  0.5239860000000  0.5059620000000 1.0
C      1  0.6181110000000  0.5297020000000  0.4944340000000 1.0
C      1  0.5428500000000  0.6028750000000  0.5079780000000 1.0
C      1  0.4254810000000  0.5069310000000  0.5130250000000 1.0
C      1  0.5402910000000  0.5906930000000  0.5338910000000 1.0
C      1  0.4376240000000  0.5512000000000  0.4301110000000 1.0
C      1  0.5055600000000  0.4742080000000  0.6174360000000 1.0
C      1  0.6054030000000  0.4440500000000  0.4894660000000 1.0
C      1  0.4015800000000  0.5480450000000  0.5504770000000 1.0
C      1  0.5992850000000  0.5317240000000  0.5637610000000 1.0
C      1  0.5555600000000  0.5115250000000  0.4112350000000 1.0
C      1  0.4601410000000  0.4843290000000  0.5709550000000 1.0
C      1  0.4407200000000  0.4885410000000  0.4444260000000 1.0
C      1  0.4251060000000  0.4135020000000  0.4794280000000 1.0
C      1  0.4638800000000  0.4178250000000  0.5578310000000 1.0
C      1  0.5821710000000  0.4321840000000  0.4992210000000 1.0
C      1  0.4929340000000  0.4424560000000  0.3950340000000 1.0
C      1  0.5511840000000  0.4812510000000  0.6020030000000 1.0
C      1  0.5818540000000  0.4772690000000  0.4369120000000 1.0
C      1  0.5656320000000  0.5775370000000  0.4409030000000 1.0
C      1  0.4206650000000  0.4662390000000  0.4277380000000 1.0
C      1  0.5131330000000  0.5028060000000  0.4473360000000 1.0
C      1  0.5737150000000  0.4230730000000  0.4540790000000 1.0
C      1  0.5741450000000  0.5652790000000  0.5065200000000 1.0
C      1  0.4588470000000  0.3971260000000  0.5187010000000 1.0
C      1  0.4385690000000  0.5663550000000  0.4777440000000 1.0
C      1  0.5166750000000  0.5491330000000  0.4801160000000 1.0
C      1  0.5118090000000  0.5275720000000  0.6154500000000 1.0
C      1  0.5925270000000  0.4852700000000  0.5612400000000 1.0
C      1  0.4831670000000  0.4582540000000  0.6074550000000 1.0
C      1  0.5139700000000  0.4851000000000  0.5165190000000 1.0
C      1  0.4839930000000  0.5401910000000  0.4763050000000 1.0
C      1  0.4776170000000  0.5344980000000  0.5561500000000 1.0
C      1  0.4477890000000  0.5306180000000  0.5147430000000 1.0
C      1  0.5016660000000  0.4795800000000  0.4176200000000 1.0
C      1  0.4773100000000  0.4896040000000  0.3786640000000 1.0
C      1  0.5060750000000  0.4085330000000  0.5417800000000 1.0
C      1  0.4930890000000  0.5627930000000  0.3977970000000 1.0
C      1  0.4809000000000  0.4970160000000  0.4463310000000 1.0
C      1  0.5381600000000  0.5387280000000  0.4348780000000 1.0
C      1  0.4107550000000  0.5797890000000  0.5435100000000 1.0
C      1  0.4902280000000  0.4779980000000  0.4710760000000 1.0
C      1  0.5278590000000  0.5290950000000  0.5677950000000 1.0
C      1  0.6360880000000  0.5016200000000  0.5759620000000 1.0
C      1  0.5835980000000  0.4901830000000  0.4973290000000 1.0
C      1  0.5355540000000  0.4778050000000  0.4413660000000 1.0
C      1  0.4116420000000  0.5110840000000  0.4848540000000 1.0
C      1  0.5639160000000  0.5906040000000  0.4920120000000 1.0
C      1  0.4752980000000  0.5053410000000  0.5504330000000 1.0
C      1  0.4484900000000  0.5343900000000  0.5447160000000 1.0
C      1  0.3855670000000  0.5273680000000  0.5325100000000 1.0
C      1  0.5441140000000  0.4731820000000  0.5180080000000 1.0
C      1  0.5092320000000  0.5843200000000  0.4171570000000 1.0
C      1  0.5260030000000  0.5011620000000  0.4075900000000 1.0
C      1  0.5635110000000  0.4824930000000  0.4131490000000 1.0
C      1  0.4366560000000  0.4494840000000  0.4507030000000 1.0
C      1  0.5497790000000  0.4373870000000  0.5011690000000 1.0
C      1  0.5009770000000  0.4888170000000  0.5452740000000 1.0
C      1  0.4387450000000  0.4993500000000  0.4760720000000 1.0
C      1  0.5542520000000  0.5859450000000  0.4655260000000 1.0
C      1  0.4543960000000  0.5886160000000  0.4624860000000 1.0
C      1  0.5232470000000  0.4783450000000  0.3846010000000 1.0
C      1  0.5315110000000  0.4535640000000  0.5416740000000 1.0
C      1  0.4606220000000  0.4724370000000  0.5186720000000 1.0
C      1  0.3973410000000  0.4607690000000  0.4745330000000 1.0
C      1  0.4773690000000  0.5854350000000  0.4131200000000 1.0
C      1  0.5764700000000  0.5126390000000  0.5219550000000 1.0
C      1  0.4781890000000  0.4658630000000  0.5539060000000 1.0
C      1  0.4365780000000  0.5254280000000  0.4078750000000 1.0
C      1  0.4221030000000  0.5056330000000  0.4225820000000 1.0
C      1  0.5128430000000  0.4581360000000  0.4647690000000 1.0
C      1  0.5072530000000  0.5017130000000  0.6255130000000 1.0
C      1  0.6109760000000  0.5056790000000  0.5665290000000 1.0
C      1  0.5276600000000  0.5078360000000  0.5463860000000 1.0
C      1  0.5451520000000  0.4055050000000  0.5470410000000 1.0
C      1  0.5469680000000  0.5625720000000  0.4223450000000 1.0
C      1  0.4863830000000  0.5586430000000  0.5414630000000 1.0
C      1  0.4518800000000  0.4655790000000  0.5965380000000 1.0
C      1  0.4751490000000  0.5207290000000  0.5028360000000 1.0
C      1  0.4332540000000  0.4306220000000  0.5588760000000 1.0
C      1  0.5771920000000  0.5331960000000  0.5462370000000 1.0
C      1  0.5307080000000  0.4627050000000  0.6077900000000 1.0
C      1  0.4453440000000  0.4718930000000  0.4920150000000 1.0
C      1  0.5412790000000  0.5710940000000  0.3972570000000 1.0
C      1  0.4646160000000  0.5810980000000  0.5460140000000 1.0
C      1  0.4455730000000  0.4990990000000  0.5961380000000 1.0
C      1  0.4732080000000  0.5364870000000  0.5864690000000 1.0
C      1  0.5563680000000  0.4750290000000  0.4876770000000 1.0
C      1  0.4312760000000  0.4567550000000  0.5705740000000 1.0
C      1  0.5256410000000  0.4450830000000  0.4911670000000 1.0
C      1  0.5476560000000  0.4346910000000  0.5621020000000 1.0
C      1  0.5812660000000  0.4505170000000  0.4481620000000 1.0
C      1  0.4753360000000  0.3927110000000  0.4891970000000 1.0
C      1  0.4005890000000  0.5493490000000  0.4853090000000 1.0
C      1  0.4312770000000  0.5095190000000  0.5599770000000 1.0
C      1  0.4605980000000  0.4405030000000  0.4040140000000 1.0
C      1  0.4358570000000  0.4445730000000  0.5043970000000 1.0
C      1  0.4600400000000  0.4680130000000  0.4638870000000 1.0
C      1  0.3969220000000  0.4765850000000  0.4499690000000 1.0
C      1  0.4944590000000  0.5555950000000  0.5126520000000 1.0
C      1  0.4950130000000  0.6038590000000  0.5106030000000 1.0
C      1  0.4687890000000  0.5978690000000  0.4966550000000 1.0
C      1  0.4646320000000  0.5331150000000  0.4344230000000 1.0
C      1  0.4480920000000  0.5835810000000  0.5192790000000 1.0
C      1  0.4325190000000  0.4125880000000  0.5338800000000 1.0
C      1  0.4374240000000  0.5645480000000  0.5560690000000 1.0
C      1  0.4705450000000  0.4882420000000  0.4178930000000 1.0
C      1  0.4909140000000  0.4631180000000  0.5164120000000 1.0
C      1  0.4626640000000  0.5167950000000  0.4622050000000 1.0
C      1  0.4468020000000  0.3971330000000  0.4806540000000 1.0
C      1  0.5100770000000  0.5298500000000  0.4311180000000 1.0
C      1  0.4196980000000  0.5520620000000  0.4567160000000 1.0
C      1  0.5291900000000  0.4344960000000  0.5906800000000 1.0
C      1  0.4969580000000  0.4379580000000  0.5915940000000 1.0
C      1  0.4173820000000  0.4386590000000  0.4694530000000 1.0
C      1  0.5257730000000  0.5472970000000  0.5111970000000 1.0
C      1  0.5219480000000  0.4068870000000  0.5718590000000 1.0
C      1  0.5436480000000  0.4208680000000  0.4653020000000 1.0
C      1  0.5506690000000  0.4546610000000  0.4618820000000 1.0
C      1  0.4965560000000  0.4693670000000  0.3794250000000 1.0
C      1  0.5281860000000  0.5683920000000  0.5738790000000 1.0
C      1  0.5241790000000  0.5583740000000  0.6061840000000 1.0
C      1  0.4348380000000  0.5582870000000  0.5076940000000 1.0
C      1  0.4982940000000  0.4995390000000  0.4937240000000 1.0
C      1  0.4047640000000  0.5591320000000  0.5176310000000 1.0
C      1  0.4871020000000  0.4369520000000  0.5644210000000 1.0
C      1  0.5492450000000  0.5618760000000  0.5275940000000 1.0
C      1  0.4785510000000  0.3942560000000  0.5427370000000 1.0
C      1  0.5046900000000  0.4416460000000  0.5367000000000 1.0
C      1  0.4777390000000  0.4318060000000  0.4782930000000 1.0
C      1  0.5280760000000  0.4052420000000  0.4914160000000 1.0
C      1  0.4602380000000  0.4263180000000  0.5044750000000 1.0
C      1  0.4499940000000  0.4659960000000  0.4128950000000 1.0
C      1  0.4619820000000  0.4427300000000  0.5342830000000 1.0
C      1  0.5741000000000  0.5395070000000  0.4714140000000 1.0
C      1  0.4936520000000  0.5976740000000  0.5396680000000 1.0
C      1  0.4398540000000  0.6126310000000  0.5069300000000 1.0
C      1  0.4887120000000  0.5521720000000  0.4448090000000 1.0
C      1  0.5635840000000  0.4774790000000  0.5750870000000 1.0
C      1  0.4872620000000  0.5352310000000  0.4086920000000 1.0
C      1  0.5185010000000  0.5890070000000  0.5531110000000 1.0
C      1  0.5540680000000  0.5234790000000  0.4531000000000 1.0
C      1  0.3991340000000  0.5261730000000  0.4600930000000 1.0
C      1  0.5215860000000  0.4351500000000  0.4122340000000 1.0
C      1  0.5728820000000  0.5506660000000  0.5979970000000 1.0
C      1  0.5218640000000  0.5785340000000  0.6248880000000 1.0
C      1  0.3985930000000  0.5042860000000  0.4398050000000 1.0
C      1  0.5053610000000  0.4532510000000  0.4328700000000 1.0
C      1  0.5458750000000  0.5351880000000  0.5961510000000 1.0
C      1  0.5601600000000  0.4967020000000  0.4501260000000 1.0
C      1  0.5023180000000  0.5311040000000  0.5873550000000 1.0
C      1  0.4231920000000  0.5393490000000  0.5746260000000 1.0
C      1  0.6148910000000  0.5022500000000  0.4924640000000 1.0
END
