TITL C-2778434-4341-164 -0.00629081792315271 125000 -688.337239921584 0 0 117 (C1) n - 1
REM
REM in /home/nfs/bkarasulu/CARBON/AIRSS/Generating-Clusters/REBO/Only-C1/SD-CG/HFTN-CG
REM
REM
REM
REM
REM
REM ./C.cell (11c1c37f851c82e70ff6c80c92926a4b)
REM
REM compiler GCC version 9.2.1 20190827 (Red Hat 9.2.1-1)
REM options -cpp -mtune=generic -march=x86-64 -g -O0 -fpre-include=/usr/include/finclude/math-vector-fortran.h
REM seed 710359475 972273978 -70051814 -236375384 -1197170545 1195194701 -1684337743 1932066876 -1772857295 1549166327 -48734144 -843846985 -411755887 -563841383 -786992535 1065312241 -430763514 -361012572 1537559458 -1038815026 -1263868282 -340334815 -1568635701 1734549587 -2144517519 1884393071 -1300240666 763372832 -1673940512 -2060672490 1201922169 1052520973 -1089247134
REM
CELL 1.54180   50.00000   50.00000   50.00000   90.00000   90.00000   90.00000
LATT -1
SFAC C  
C      1  0.4542960000000  0.5384180000000  0.4366490000000 1.0
C      1  0.5227170000000  0.6158700000000  0.4845330000000 1.0
C      1  0.4724640000000  0.5400820000000  0.5587270000000 1.0
C      1  0.4584590000000  0.5062920000000  0.4286820000000 1.0
C      1  0.5694960000000  0.4311800000000  0.5113710000000 1.0
C      1  0.4779850000000  0.5790430000000  0.5648990000000 1.0
C      1  0.4614720000000  0.5912400000000  0.5438590000000 1.0
C      1  0.5760400000000  0.4786030000000  0.4480000000000 1.0
C      1  0.5816240000000  0.5401050000000  0.5044000000000 1.0
C      1  0.5841000000000  0.4914250000000  0.5538090000000 1.0
C      1  0.4333270000000  0.4967920000000  0.5657410000000 1.0
C      1  0.4575860000000  0.5755370000000  0.4645810000000 1.0
C      1  0.5036030000000  0.4848870000000  0.5418020000000 1.0
C      1  0.4570830000000  0.4954220000000  0.5256600000000 1.0
C      1  0.5973660000000  0.5123350000000  0.4973760000000 1.0
C      1  0.5449110000000  0.5355950000000  0.5708510000000 1.0
C      1  0.4688560000000  0.4108160000000  0.5114120000000 1.0
C      1  0.5374540000000  0.5012160000000  0.5220870000000 1.0
C      1  0.5681130000000  0.5626250000000  0.5110160000000 1.0
C      1  0.4874030000000  0.5868570000000  0.5018830000000 1.0
C      1  0.5727500000000  0.5163390000000  0.5684050000000 1.0
C      1  0.5347590000000  0.4738740000000  0.4931880000000 1.0
C      1  0.4714660000000  0.4947630000000  0.4545860000000 1.0
C      1  0.4409180000000  0.5046990000000  0.4905090000000 1.0
C      1  0.5650100000000  0.4866590000000  0.4852400000000 1.0
C      1  0.4776450000000  0.4134850000000  0.4548070000000 1.0
C      1  0.4670960000000  0.4443760000000  0.4120500000000 1.0
C      1  0.5593830000000  0.5053450000000  0.4455970000000 1.0
C      1  0.4187210000000  0.5375770000000  0.4872530000000 1.0
C      1  0.5149140000000  0.5915540000000  0.4953750000000 1.0
C      1  0.5372910000000  0.4553720000000  0.5789230000000 1.0
C      1  0.5132160000000  0.4910800000000  0.4151700000000 1.0
C      1  0.5474700000000  0.5735450000000  0.5335530000000 1.0
C      1  0.4801450000000  0.4952970000000  0.4079880000000 1.0
C      1  0.4418470000000  0.5722670000000  0.5343110000000 1.0
C      1  0.4789060000000  0.5354900000000  0.4892370000000 1.0
C      1  0.5339430000000  0.5515740000000  0.4395790000000 1.0
C      1  0.4069880000000  0.4851400000000  0.5165300000000 1.0
C      1  0.5549250000000  0.4809770000000  0.5681020000000 1.0
C      1  0.4462570000000  0.4441960000000  0.5375210000000 1.0
C      1  0.4987160000000  0.4785770000000  0.5945560000000 1.0
C      1  0.5370050000000  0.4483630000000  0.5348740000000 1.0
C      1  0.4868930000000  0.4341180000000  0.5231000000000 1.0
C      1  0.4883180000000  0.5390790000000  0.3760430000000 1.0
C      1  0.4671390000000  0.5338130000000  0.5878530000000 1.0
C      1  0.4438650000000  0.5546860000000  0.5078490000000 1.0
C      1  0.5268660000000  0.5425610000000  0.4921850000000 1.0
C      1  0.6009260000000  0.4845730000000  0.5025490000000 1.0
C      1  0.4708220000000  0.4828030000000  0.5958810000000 1.0
C      1  0.4359140000000  0.4728390000000  0.5247420000000 1.0
C      1  0.5440220000000  0.4366530000000  0.4435420000000 1.0
C      1  0.4988010000000  0.5132000000000  0.5453250000000 1.0
C      1  0.5952670000000  0.4765770000000  0.5314140000000 1.0
C      1  0.4867030000000  0.4629310000000  0.5382940000000 1.0
C      1  0.5679270000000  0.5182330000000  0.4834220000000 1.0
C      1  0.5010170000000  0.4840500000000  0.4604050000000 1.0
C      1  0.5144710000000  0.5018130000000  0.5920950000000 1.0
C      1  0.5750960000000  0.4361720000000  0.4834860000000 1.0
C      1  0.5156350000000  0.4354060000000  0.4391560000000 1.0
C      1  0.5305570000000  0.4995670000000  0.4628810000000 1.0
C      1  0.5305920000000  0.4802820000000  0.4344960000000 1.0
C      1  0.4474640000000  0.5458080000000  0.5466310000000 1.0
C      1  0.5362900000000  0.5716100000000  0.5025640000000 1.0
C      1  0.5095810000000  0.5480080000000  0.5204430000000 1.0
C      1  0.4761590000000  0.6030430000000  0.5224840000000 1.0
C      1  0.5534340000000  0.4253490000000  0.4680150000000 1.0
C      1  0.5757860000000  0.4533980000000  0.5267350000000 1.0
C      1  0.4261230000000  0.4709700000000  0.4614690000000 1.0
C      1  0.5446100000000  0.5268340000000  0.4279860000000 1.0
C      1  0.4674570000000  0.5662850000000  0.4894690000000 1.0
C      1  0.4183340000000  0.5172180000000  0.4599660000000 1.0
C      1  0.4347370000000  0.5430460000000  0.4573710000000 1.0
C      1  0.5335210000000  0.5288060000000  0.5336140000000 1.0
C      1  0.4685630000000  0.4586830000000  0.4886390000000 1.0
C      1  0.4089630000000  0.5191460000000  0.5143090000000 1.0
C      1  0.4324670000000  0.4449820000000  0.4523970000000 1.0
C      1  0.5137490000000  0.5219770000000  0.5682930000000 1.0
C      1  0.4592710000000  0.4468070000000  0.5620850000000 1.0
C      1  0.4632270000000  0.5120370000000  0.4764150000000 1.0
C      1  0.5132980000000  0.4257670000000  0.5387200000000 1.0
C      1  0.4972830000000  0.4539230000000  0.4452080000000 1.0
C      1  0.4232440000000  0.4827970000000  0.4881570000000 1.0
C      1  0.4691290000000  0.5653480000000  0.5893820000000 1.0
C      1  0.4813170000000  0.4852580000000  0.5053040000000 1.0
C      1  0.5367690000000  0.5141260000000  0.4913630000000 1.0
C      1  0.5878970000000  0.4655300000000  0.4771460000000 1.0
C      1  0.5454780000000  0.5059610000000  0.5864180000000 1.0
C      1  0.4512420000000  0.4707510000000  0.5757730000000 1.0
C      1  0.4180630000000  0.5031680000000  0.5434310000000 1.0
C      1  0.4751510000000  0.4039450000000  0.4858090000000 1.0
C      1  0.5208210000000  0.5686290000000  0.4204230000000 1.0
C      1  0.4674230000000  0.4629690000000  0.4590690000000 1.0
C      1  0.5327820000000  0.4146300000000  0.4850140000000 1.0
C      1  0.4981650000000  0.5587630000000  0.5496950000000 1.0
C      1  0.4931640000000  0.5673090000000  0.4187670000000 1.0
C      1  0.5099770000000  0.4547070000000  0.5832110000000 1.0
C      1  0.5061870000000  0.4719970000000  0.4891130000000 1.0
C      1  0.4415660000000  0.5232720000000  0.5164560000000 1.0
C      1  0.5193180000000  0.5497050000000  0.4641810000000 1.0
C      1  0.5260690000000  0.5174260000000  0.4069900000000 1.0
C      1  0.4310350000000  0.4954270000000  0.4459190000000 1.0
C      1  0.4950480000000  0.4419070000000  0.4936100000000 1.0
C      1  0.4783130000000  0.5533390000000  0.4385880000000 1.0
C      1  0.4976650000000  0.5204050000000  0.3937650000000 1.0
C      1  0.5332290000000  0.4763600000000  0.5451650000000 1.0
C      1  0.4917940000000  0.5490550000000  0.4628960000000 1.0
C      1  0.5305790000000  0.5568660000000  0.5528450000000 1.0
C      1  0.5041260000000  0.4178750000000  0.4758260000000 1.0
C      1  0.4459920000000  0.4483390000000  0.5053970000000 1.0
C      1  0.4720660000000  0.4658790000000  0.4007150000000 1.0
C      1  0.4924850000000  0.4394330000000  0.5622290000000 1.0
C      1  0.4619280000000  0.4357100000000  0.4414060000000 1.0
C      1  0.5384760000000  0.4199640000000  0.5161450000000 1.0
C      1  0.5589790000000  0.4771710000000  0.5152210000000 1.0
C      1  0.5535200000000  0.4627490000000  0.4364520000000 1.0
C      1  0.4538160000000  0.5080750000000  0.5892900000000 1.0
C      1  0.4823170000000  0.5172180000000  0.5166090000000 1.0
END
