TITL C-2778427-5640-61 0.00186397703960081 125000 -724.960614164408 0 0 124 (C1) n - 1
REM
REM in /home/nfs/bkarasulu/CARBON/AIRSS/Generating-Clusters/REBO/Only-C1/SD-CG/HFTN-CG
REM
REM
REM
REM
REM
REM ./C.cell (11c1c37f851c82e70ff6c80c92926a4b)
REM
REM compiler GCC version 9.2.1 20190827 (Red Hat 9.2.1-1)
REM options -cpp -mtune=generic -march=x86-64 -g -O0 -fpre-include=/usr/include/finclude/math-vector-fortran.h
REM seed 1412074113 916847651 225691262 -78223288 -702406316 -263683535 -556291329 828065033 -1881207758 1897296112 300319954 732009939 486835282 -223248819 -1604300135 -1383199645 -840553745 1473619703 961479573 1420813025 375390868 656467844 -235244329 1208587066 -243617488 2128710474 -294624805 1925072172 1625254903 1960196143 -835718711 -1852345074 1710481828
REM
CELL 1.54180   50.00000   50.00000   50.00000   90.00000   90.00000   90.00000
LATT -1
SFAC C  
C      1  0.4974940000000  0.3847280000000  0.4984160000000 1.0
C      1  0.4266530000000  0.5313250000000  0.4847890000000 1.0
C      1  0.5213190000000  0.4528710000000  0.4325880000000 1.0
C      1  0.4592380000000  0.4459140000000  0.5498930000000 1.0
C      1  0.4331050000000  0.4580170000000  0.4536760000000 1.0
C      1  0.4715430000000  0.5109210000000  0.4719620000000 1.0
C      1  0.5361620000000  0.5642300000000  0.4789420000000 1.0
C      1  0.4785460000000  0.4868000000000  0.5645510000000 1.0
C      1  0.4451710000000  0.5128290000000  0.4312970000000 1.0
C      1  0.5504600000000  0.4640130000000  0.4363280000000 1.0
C      1  0.4501470000000  0.4512260000000  0.5755540000000 1.0
C      1  0.5369020000000  0.5891090000000  0.5259640000000 1.0
C      1  0.4952870000000  0.4574510000000  0.5676510000000 1.0
C      1  0.5549790000000  0.4946290000000  0.4364570000000 1.0
C      1  0.5425990000000  0.6307800000000  0.4116440000000 1.0
C      1  0.4154990000000  0.5317520000000  0.5433280000000 1.0
C      1  0.6231120000000  0.5070710000000  0.5409370000000 1.0
C      1  0.4486840000000  0.4990440000000  0.5594620000000 1.0
C      1  0.3974970000000  0.4859390000000  0.5145060000000 1.0
C      1  0.5648220000000  0.5488370000000  0.5538200000000 1.0
C      1  0.4289770000000  0.5221330000000  0.5668430000000 1.0
C      1  0.4729230000000  0.4959780000000  0.5260410000000 1.0
C      1  0.5191270000000  0.5028540000000  0.4213970000000 1.0
C      1  0.4962740000000  0.4877020000000  0.4050410000000 1.0
C      1  0.4930280000000  0.5478100000000  0.4176380000000 1.0
C      1  0.5801470000000  0.4574530000000  0.5125160000000 1.0
C      1  0.4418740000000  0.5414700000000  0.5832420000000 1.0
C      1  0.5324180000000  0.5579720000000  0.4224990000000 1.0
C      1  0.4439310000000  0.4768020000000  0.5818850000000 1.0
C      1  0.4790490000000  0.5190950000000  0.5031110000000 1.0
C      1  0.5582030000000  0.5021500000000  0.4624980000000 1.0
C      1  0.4820770000000  0.5354770000000  0.5331210000000 1.0
C      1  0.5924600000000  0.4442060000000  0.4593270000000 1.0
C      1  0.5851270000000  0.5603220000000  0.5402570000000 1.0
C      1  0.5881000000000  0.4647960000000  0.5424900000000 1.0
C      1  0.4927300000000  0.4063160000000  0.4807160000000 1.0
C      1  0.5324910000000  0.4055760000000  0.5247000000000 1.0
C      1  0.5236620000000  0.5660300000000  0.5301040000000 1.0
C      1  0.5359720000000  0.4286750000000  0.4804290000000 1.0
C      1  0.3978850000000  0.4610580000000  0.5282500000000 1.0
C      1  0.5260490000000  0.4284800000000  0.5397260000000 1.0
C      1  0.4167500000000  0.5030690000000  0.4725340000000 1.0
C      1  0.5485470000000  0.4114730000000  0.5020580000000 1.0
C      1  0.4897380000000  0.5198040000000  0.4002640000000 1.0
C      1  0.5446520000000  0.5074550000000  0.4877060000000 1.0
C      1  0.4274370000000  0.4188830000000  0.5160090000000 1.0
C      1  0.4412090000000  0.5506550000000  0.4648410000000 1.0
C      1  0.5482890000000  0.6019980000000  0.5047720000000 1.0
C      1  0.5583300000000  0.5231350000000  0.5238960000000 1.0
C      1  0.5050820000000  0.4743880000000  0.5161740000000 1.0
C      1  0.5004910000000  0.5840130000000  0.4518370000000 1.0
C      1  0.4700900000000  0.5841770000000  0.5279280000000 1.0
C      1  0.4990620000000  0.4650760000000  0.4727960000000 1.0
C      1  0.5890750000000  0.5559320000000  0.5130060000000 1.0
C      1  0.4779860000000  0.5517550000000  0.4965340000000 1.0
C      1  0.5474810000000  0.5889940000000  0.4805920000000 1.0
C      1  0.5126950000000  0.4816270000000  0.5844510000000 1.0
C      1  0.5618880000000  0.4679390000000  0.5639380000000 1.0
C      1  0.4266400000000  0.4910000000000  0.4462800000000 1.0
C      1  0.5136710000000  0.3846440000000  0.5206720000000 1.0
C      1  0.4908250000000  0.5881990000000  0.4801480000000 1.0
C      1  0.4313050000000  0.5537620000000  0.5319950000000 1.0
C      1  0.4057540000000  0.4588180000000  0.4724960000000 1.0
C      1  0.4646360000000  0.4987380000000  0.4102050000000 1.0
C      1  0.4625660000000  0.5556140000000  0.5695900000000 1.0
C      1  0.4603290000000  0.4676110000000  0.5272580000000 1.0
C      1  0.5276910000000  0.5064470000000  0.5760240000000 1.0
C      1  0.4024730000000  0.5112580000000  0.5274710000000 1.0
C      1  0.5482280000000  0.5326720000000  0.5757880000000 1.0
C      1  0.5783210000000  0.4473730000000  0.4359300000000 1.0
C      1  0.4468620000000  0.5419690000000  0.5073480000000 1.0
C      1  0.5445430000000  0.4493810000000  0.5422430000000 1.0
C      1  0.5152170000000  0.4266290000000  0.4383240000000 1.0
C      1  0.5330260000000  0.6081700000000  0.4208080000000 1.0
C      1  0.4688640000000  0.4202550000000  0.5389070000000 1.0
C      1  0.5811860000000  0.4517180000000  0.4860100000000 1.0
C      1  0.4085170000000  0.4363710000000  0.5243930000000 1.0
C      1  0.5146210000000  0.5211050000000  0.5513160000000 1.0
C      1  0.4521490000000  0.5198190000000  0.5326800000000 1.0
C      1  0.5183940000000  0.5359280000000  0.4572200000000 1.0
C      1  0.4986160000000  0.5551890000000  0.4436940000000 1.0
C      1  0.4539370000000  0.4755790000000  0.4974670000000 1.0
C      1  0.4970720000000  0.4707990000000  0.4319730000000 1.0
C      1  0.5228450000000  0.5841280000000  0.4305520000000 1.0
C      1  0.4718760000000  0.4539920000000  0.4275740000000 1.0
C      1  0.5140190000000  0.4158490000000  0.4644520000000 1.0
C      1  0.4841690000000  0.4474650000000  0.5139380000000 1.0
C      1  0.4895310000000  0.5066250000000  0.5875620000000 1.0
C      1  0.4685490000000  0.5904160000000  0.5002640000000 1.0
C      1  0.5263060000000  0.4603650000000  0.4835420000000 1.0
C      1  0.4530210000000  0.4336450000000  0.4650230000000 1.0
C      1  0.5196480000000  0.5363740000000  0.4000460000000 1.0
C      1  0.5005610000000  0.4952480000000  0.5410680000000 1.0
C      1  0.4712390000000  0.4262740000000  0.4903710000000 1.0
C      1  0.4673620000000  0.4307160000000  0.4407300000000 1.0
C      1  0.4975280000000  0.4365480000000  0.5432740000000 1.0
C      1  0.4553380000000  0.4150230000000  0.5149310000000 1.0
C      1  0.4478170000000  0.4736490000000  0.4263740000000 1.0
C      1  0.4899230000000  0.5382460000000  0.5662750000000 1.0
C      1  0.5086170000000  0.5733610000000  0.5661530000000 1.0
C      1  0.4716690000000  0.4648340000000  0.4802600000000 1.0
C      1  0.4570950000000  0.5299610000000  0.4513040000000 1.0
C      1  0.5543410000000  0.4743670000000  0.5238780000000 1.0
C      1  0.4515230000000  0.5695690000000  0.5461930000000 1.0
C      1  0.5334310000000  0.4577980000000  0.5795780000000 1.0
C      1  0.5713430000000  0.5365550000000  0.5021690000000 1.0
C      1  0.5529730000000  0.5388070000000  0.4770810000000 1.0
C      1  0.5357190000000  0.5395440000000  0.5384940000000 1.0
C      1  0.5998520000000  0.4933320000000  0.5412960000000 1.0
C      1  0.4901580000000  0.4921760000000  0.4578810000000 1.0
C      1  0.5583350000000  0.5005270000000  0.5693010000000 1.0
C      1  0.5169180000000  0.4328050000000  0.5783040000000 1.0
C      1  0.5118420000000  0.5088330000000  0.4476310000000 1.0
C      1  0.4451540000000  0.5030610000000  0.4893320000000 1.0
C      1  0.5451660000000  0.5206150000000  0.4165680000000 1.0
C      1  0.4004000000000  0.4824940000000  0.4863840000000 1.0
C      1  0.4554730000000  0.5696060000000  0.4798470000000 1.0
C      1  0.4931420000000  0.5657890000000  0.5369390000000 1.0
C      1  0.5066570000000  0.5596070000000  0.4828070000000 1.0
C      1  0.5671310000000  0.4984650000000  0.5386380000000 1.0
C      1  0.5541920000000  0.4525160000000  0.4673550000000 1.0
C      1  0.5491640000000  0.5399110000000  0.4445280000000 1.0
C      1  0.5341150000000  0.4828740000000  0.5033370000000 1.0
C      1  0.5198850000000  0.5487740000000  0.5795880000000 1.0
END
