TITL C-2778435-5768-817 -0.00154263779094817 125000 -1024.68214167968 0 0 177 (C1) n - 1
REM
REM in /home/nfs/bkarasulu/CARBON/AIRSS/Generating-Clusters/REBO/Only-C1/SD-CG/HFTN-CG
REM
REM
REM
REM
REM
REM ./C.cell (11c1c37f851c82e70ff6c80c92926a4b)
REM
REM compiler GCC version 9.2.1 20190827 (Red Hat 9.2.1-1)
REM options -cpp -mtune=generic -march=x86-64 -g -O0 -fpre-include=/usr/include/finclude/math-vector-fortran.h
REM seed 1368918176 989853361 712699674 -42491771 1173338936 -452786858 -1024180502 -814886194 1623177338 885611842 -1878408257 -1801446062 -1288170682 117228386 1043259832 -273438543 501548535 1595433342 -131429061 -2064414999 127317064 -747679721 702537892 821525372 -93637419 1705687014 1388456719 -1524431964 -608808665 -1894671453 2069480318 -1989819338 -80286876
REM
CELL 1.54180   50.00000   50.00000   50.00000   90.00000   90.00000   90.00000
LATT -1
SFAC C  
C      1  0.5882720000000  0.5457080000000  0.5383280000000 1.0
C      1  0.5097760000000  0.4811580000000  0.3910610000000 1.0
C      1  0.4542310000000  0.4435000000000  0.4932860000000 1.0
C      1  0.4360500000000  0.5157600000000  0.4682880000000 1.0
C      1  0.4923700000000  0.5790650000000  0.5080290000000 1.0
C      1  0.5399750000000  0.4571730000000  0.4770640000000 1.0
C      1  0.5317610000000  0.3880680000000  0.4608060000000 1.0
C      1  0.5769690000000  0.5658880000000  0.5219590000000 1.0
C      1  0.5764980000000  0.4830040000000  0.5009320000000 1.0
C      1  0.5997110000000  0.4158740000000  0.5007790000000 1.0
C      1  0.4568340000000  0.4963770000000  0.6023020000000 1.0
C      1  0.4681250000000  0.5554240000000  0.5027700000000 1.0
C      1  0.4904060000000  0.5306200000000  0.4025150000000 1.0
C      1  0.4430880000000  0.4643780000000  0.5689210000000 1.0
C      1  0.4797460000000  0.4631230000000  0.5008060000000 1.0
C      1  0.5938910000000  0.5338380000000  0.4943500000000 1.0
C      1  0.4371160000000  0.5427940000000  0.4219490000000 1.0
C      1  0.5913320000000  0.5565910000000  0.5874550000000 1.0
C      1  0.5854170000000  0.5620400000000  0.4916330000000 1.0
C      1  0.5869540000000  0.4788360000000  0.5652760000000 1.0
C      1  0.4587620000000  0.4234190000000  0.4429590000000 1.0
C      1  0.4170370000000  0.5073180000000  0.5771070000000 1.0
C      1  0.5099570000000  0.4242620000000  0.5015150000000 1.0
C      1  0.5007610000000  0.4820930000000  0.6164240000000 1.0
C      1  0.4546170000000  0.4524600000000  0.4289460000000 1.0
C      1  0.5508000000000  0.4797260000000  0.4236830000000 1.0
C      1  0.5070260000000  0.5151730000000  0.4878740000000 1.0
C      1  0.5712480000000  0.4843310000000  0.4504720000000 1.0
C      1  0.5480200000000  0.4002310000000  0.4836820000000 1.0
C      1  0.5506660000000  0.6058490000000  0.4894720000000 1.0
C      1  0.4357690000000  0.5165910000000  0.5081120000000 1.0
C      1  0.4200260000000  0.5198290000000  0.4403460000000 1.0
C      1  0.5335810000000  0.5095090000000  0.5170820000000 1.0
C      1  0.4616200000000  0.5454850000000  0.5349430000000 1.0
C      1  0.5193100000000  0.5128520000000  0.5482300000000 1.0
C      1  0.5008240000000  0.4609490000000  0.4299600000000 1.0
C      1  0.4348920000000  0.5753740000000  0.4649160000000 1.0
C      1  0.5236900000000  0.4682100000000  0.6131290000000 1.0
C      1  0.5174170000000  0.4263230000000  0.4484210000000 1.0
C      1  0.3989900000000  0.4684640000000  0.5457050000000 1.0
C      1  0.4868780000000  0.5580940000000  0.4109780000000 1.0
C      1  0.5256340000000  0.5568820000000  0.4680640000000 1.0
C      1  0.5218920000000  0.4381080000000  0.4175050000000 1.0
C      1  0.6026900000000  0.4671130000000  0.4910410000000 1.0
C      1  0.4751510000000  0.4738890000000  0.6036540000000 1.0
C      1  0.4872670000000  0.5939340000000  0.4622390000000 1.0
C      1  0.5010490000000  0.5374510000000  0.4644490000000 1.0
C      1  0.5620710000000  0.4128380000000  0.5569760000000 1.0
C      1  0.5243890000000  0.5602500000000  0.5228220000000 1.0
C      1  0.5551160000000  0.4325460000000  0.4883700000000 1.0
C      1  0.5545550000000  0.4831070000000  0.4765280000000 1.0
C      1  0.4602740000000  0.5196980000000  0.5589900000000 1.0
C      1  0.3925780000000  0.5132970000000  0.4805250000000 1.0
C      1  0.5090270000000  0.5550100000000  0.5737640000000 1.0
C      1  0.4472890000000  0.4283860000000  0.5477870000000 1.0
C      1  0.5556530000000  0.5284260000000  0.5536070000000 1.0
C      1  0.4320120000000  0.5144300000000  0.5408180000000 1.0
C      1  0.4324960000000  0.4194410000000  0.4643880000000 1.0
C      1  0.5343510000000  0.4980520000000  0.4015730000000 1.0
C      1  0.4533540000000  0.5849350000000  0.5459850000000 1.0
C      1  0.4299100000000  0.4788340000000  0.5225970000000 1.0
C      1  0.4184760000000  0.4929720000000  0.4248960000000 1.0
C      1  0.4903650000000  0.4502830000000  0.5579780000000 1.0
C      1  0.5309280000000  0.4659330000000  0.5827950000000 1.0
C      1  0.5839500000000  0.5384680000000  0.5680980000000 1.0
C      1  0.5840170000000  0.5054680000000  0.5765390000000 1.0
C      1  0.4710640000000  0.4241770000000  0.4720230000000 1.0
C      1  0.5636100000000  0.5342110000000  0.4226750000000 1.0
C      1  0.5633770000000  0.5243400000000  0.4519370000000 1.0
C      1  0.5612400000000  0.4631530000000  0.5670960000000 1.0
C      1  0.4753570000000  0.5000340000000  0.4656670000000 1.0
C      1  0.4779200000000  0.4313570000000  0.4159310000000 1.0
C      1  0.5479960000000  0.5623270000000  0.5044980000000 1.0
C      1  0.5184980000000  0.5928630000000  0.4525040000000 1.0
C      1  0.4335400000000  0.4393130000000  0.5177150000000 1.0
C      1  0.4215030000000  0.4492980000000  0.5488870000000 1.0
C      1  0.5856750000000  0.4937570000000  0.4039580000000 1.0
C      1  0.5600510000000  0.5779320000000  0.4762030000000 1.0
C      1  0.5338700000000  0.5002570000000  0.5763960000000 1.0
C      1  0.5004350000000  0.4908870000000  0.4445820000000 1.0
C      1  0.5013650000000  0.4043080000000  0.5276340000000 1.0
C      1  0.4678780000000  0.5201970000000  0.3899370000000 1.0
C      1  0.4614360000000  0.5645750000000  0.4223580000000 1.0
C      1  0.5560200000000  0.5605640000000  0.4220570000000 1.0
C      1  0.4981140000000  0.4503310000000  0.3977220000000 1.0
C      1  0.5856870000000  0.4963530000000  0.5294740000000 1.0
C      1  0.4869260000000  0.5001290000000  0.5676550000000 1.0
C      1  0.4259530000000  0.5341120000000  0.5750940000000 1.0
C      1  0.5567900000000  0.6148990000000  0.5142240000000 1.0
C      1  0.5109950000000  0.5128790000000  0.4208030000000 1.0
C      1  0.4046420000000  0.4972550000000  0.5520070000000 1.0
C      1  0.4686360000000  0.5265160000000  0.5980880000000 1.0
C      1  0.5813260000000  0.4024850000000  0.4901460000000 1.0
C      1  0.4587810000000  0.4780730000000  0.4454940000000 1.0
C      1  0.4128770000000  0.5605280000000  0.4562100000000 1.0
C      1  0.4661690000000  0.5107910000000  0.5171080000000 1.0
C      1  0.5674140000000  0.4347510000000  0.5144700000000 1.0
C      1  0.4849220000000  0.4873850000000  0.4045450000000 1.0
C      1  0.5127940000000  0.3873330000000  0.4412970000000 1.0
C      1  0.4491530000000  0.4720000000000  0.4767540000000 1.0
C      1  0.5594300000000  0.5002000000000  0.5456620000000 1.0
C      1  0.4358640000000  0.5509710000000  0.5564960000000 1.0
C      1  0.4398080000000  0.5713220000000  0.4955810000000 1.0
C      1  0.4687240000000  0.4267550000000  0.5243610000000 1.0
C      1  0.5800550000000  0.5138260000000  0.4758580000000 1.0
C      1  0.4535940000000  0.5378310000000  0.4505370000000 1.0
C      1  0.4615810000000  0.5770130000000  0.4501260000000 1.0
C      1  0.4202540000000  0.5781500000000  0.5494880000000 1.0
C      1  0.5214170000000  0.6129860000000  0.4791060000000 1.0
C      1  0.6008790000000  0.4688930000000  0.5388400000000 1.0
C      1  0.5117130000000  0.5337040000000  0.5150580000000 1.0
C      1  0.4903610000000  0.5269860000000  0.5350690000000 1.0
C      1  0.4758690000000  0.5473160000000  0.5720820000000 1.0
C      1  0.5078280000000  0.5754520000000  0.4117660000000 1.0
C      1  0.4267050000000  0.4470350000000  0.4459680000000 1.0
C      1  0.5001060000000  0.4299690000000  0.4742060000000 1.0
C      1  0.5217210000000  0.4333270000000  0.5756860000000 1.0
C      1  0.4720160000000  0.3992370000000  0.5106280000000 1.0
C      1  0.3909570000000  0.5096990000000  0.5091920000000 1.0
C      1  0.4259860000000  0.4923590000000  0.4872270000000 1.0
C      1  0.4643430000000  0.5285970000000  0.4816020000000 1.0
C      1  0.5746060000000  0.4489180000000  0.4326280000000 1.0
C      1  0.4961240000000  0.4452230000000  0.5245970000000 1.0
C      1  0.5961600000000  0.5245410000000  0.5214740000000 1.0
C      1  0.5491410000000  0.5389160000000  0.4793720000000 1.0
C      1  0.5633190000000  0.5122030000000  0.4040860000000 1.0
C      1  0.5127370000000  0.4630170000000  0.4924870000000 1.0
C      1  0.4974290000000  0.4087750000000  0.4285770000000 1.0
C      1  0.4105110000000  0.4719480000000  0.4437460000000 1.0
C      1  0.5077290000000  0.4755060000000  0.5598920000000 1.0
C      1  0.5343250000000  0.5083780000000  0.4737770000000 1.0
C      1  0.5489830000000  0.4492550000000  0.4138380000000 1.0
C      1  0.4505550000000  0.4750670000000  0.5397870000000 1.0
C      1  0.4043000000000  0.5391330000000  0.4738220000000 1.0
C      1  0.5182280000000  0.5657300000000  0.6031260000000 1.0
C      1  0.5600050000000  0.5116220000000  0.5036100000000 1.0
C      1  0.4413050000000  0.5120100000000  0.4080990000000 1.0
C      1  0.4828790000000  0.5624120000000  0.4718500000000 1.0
C      1  0.5445890000000  0.5743930000000  0.4468880000000 1.0
C      1  0.4673110000000  0.5021030000000  0.4255340000000 1.0
C      1  0.4035540000000  0.5285910000000  0.5282800000000 1.0
C      1  0.4777970000000  0.4893570000000  0.5377540000000 1.0
C      1  0.5979790000000  0.4465530000000  0.5154950000000 1.0
C      1  0.5426250000000  0.6159630000000  0.5374450000000 1.0
C      1  0.4994920000000  0.4178360000000  0.5555980000000 1.0
C      1  0.4899360000000  0.6089710000000  0.4918080000000 1.0
C      1  0.5034290000000  0.4613860000000  0.4615920000000 1.0
C      1  0.3967880000000  0.4814710000000  0.5156500000000 1.0
C      1  0.5323440000000  0.4025710000000  0.5134060000000 1.0
C      1  0.4347120000000  0.4883140000000  0.5872960000000 1.0
C      1  0.4687480000000  0.4911490000000  0.4947860000000 1.0
C      1  0.5559390000000  0.4141720000000  0.5299280000000 1.0
C      1  0.5206570000000  0.4688790000000  0.5227690000000 1.0
C      1  0.4510340000000  0.4033950000000  0.4880260000000 1.0
C      1  0.5269030000000  0.5447350000000  0.5522710000000 1.0
C      1  0.5990570000000  0.4881210000000  0.4684730000000 1.0
C      1  0.5025540000000  0.5809460000000  0.5377030000000 1.0
C      1  0.4700330000000  0.4559540000000  0.5808800000000 1.0
C      1  0.5000680000000  0.5391420000000  0.6026170000000 1.0
C      1  0.5464640000000  0.4407850000000  0.4499810000000 1.0
C      1  0.4058790000000  0.4495560000000  0.5111730000000 1.0
C      1  0.5902510000000  0.4744790000000  0.4249450000000 1.0
C      1  0.5375860000000  0.5051830000000  0.4406490000000 1.0
C      1  0.4963150000000  0.5071980000000  0.5978760000000 1.0
C      1  0.5026960000000  0.4948040000000  0.5150600000000 1.0
C      1  0.5517920000000  0.4332950000000  0.5730570000000 1.0
C      1  0.5568460000000  0.5095210000000  0.5887270000000 1.0
C      1  0.4682420000000  0.4181130000000  0.5664470000000 1.0
C      1  0.4320310000000  0.5892410000000  0.5196860000000 1.0
C      1  0.4825320000000  0.5282760000000  0.4410760000000 1.0
C      1  0.4113260000000  0.5609220000000  0.5219410000000 1.0
C      1  0.4784950000000  0.5753050000000  0.5553630000000 1.0
C      1  0.5159610000000  0.5801230000000  0.4860850000000 1.0
C      1  0.5196960000000  0.6051150000000  0.5467490000000 1.0
C      1  0.5388020000000  0.4762530000000  0.5451460000000 1.0
C      1  0.4242630000000  0.5427600000000  0.4974820000000 1.0
C      1  0.4008000000000  0.4859020000000  0.4674470000000 1.0
END
