TITL C-2778422-5617-1283 -0.000563980767085616 125000 -118.719544701798 0 0 22 (C1) n - 1
REM
REM in /home/nfs/bkarasulu/CARBON/AIRSS/Generating-Clusters/REBO/Only-C1/SD-CG/HFTN-CG
REM
REM
REM
REM
REM
REM ./C.cell (11c1c37f851c82e70ff6c80c92926a4b)
REM
REM compiler GCC version 9.2.1 20190827 (Red Hat 9.2.1-1)
REM options -cpp -mtune=generic -march=x86-64 -g -O0 -fpre-include=/usr/include/finclude/math-vector-fortran.h
REM seed 508055027 105556535 -1890265763 92052963 212563514 -1577018784 1081511950 1797491413 -2084557851 1486226126 -1915538908 -956361249 838739628 698528043 -810818921 1827794055 -1902098763 -1426513413 -236562734 -854528317 2015634604 -529975644 827776862 -57621214 -1345066621 -399362983 322813972 -17142424 -255945176 -888950536 -1733307866 1371304710 38510787
REM
CELL 1.54180   50.00000   50.00000   50.00000   90.00000   90.00000   90.00000
LATT -1
SFAC C  
C      1  0.5707530000000  0.5689250000000  0.5336950000000 1.0
C      1  0.4649220000000  0.5167760000000  0.5144930000000 1.0
C      1  0.4957080000000  0.5484050000000  0.5301550000000 1.0
C      1  0.4934810000000  0.4840650000000  0.4613510000000 1.0
C      1  0.5125820000000  0.5272620000000  0.5197950000000 1.0
C      1  0.4928510000000  0.4786520000000  0.4343180000000 1.0
C      1  0.4686060000000  0.5419090000000  0.5278590000000 1.0
C      1  0.5555240000000  0.5477250000000  0.5313620000000 1.0
C      1  0.5393030000000  0.5251420000000  0.5288770000000 1.0
C      1  0.4965810000000  0.5337550000000  0.4612080000000 1.0
C      1  0.4979150000000  0.4763020000000  0.5086020000000 1.0
C      1  0.4922510000000  0.4735070000000  0.4086280000000 1.0
C      1  0.4746700000000  0.4340740000000  0.4793810000000 1.0
C      1  0.4934230000000  0.4624520000000  0.4821850000000 1.0
C      1  0.5478510000000  0.4999680000000  0.5383620000000 1.0
C      1  0.4195100000000  0.4892120000000  0.5063540000000 1.0
C      1  0.5135390000000  0.4669750000000  0.5283870000000 1.0
C      1  0.5364000000000  0.4753610000000  0.5405110000000 1.0
C      1  0.4932130000000  0.5069080000000  0.5045580000000 1.0
C      1  0.4947360000000  0.5092010000000  0.4735580000000 1.0
C      1  0.5045270000000  0.4307700000000  0.4760370000000 1.0
C      1  0.4416550000000  0.5026540000000  0.5103230000000 1.0
END
