TITL C-2778433-5640-136 0.00282439540958618 125000 -601.096750214562 0 0 104 (C1) n - 1
REM
REM in /home/nfs/bkarasulu/CARBON/AIRSS/Generating-Clusters/REBO/Only-C1/SD-CG/HFTN-CG
REM
REM
REM
REM
REM
REM ./C.cell (11c1c37f851c82e70ff6c80c92926a4b)
REM
REM compiler GCC version 9.2.1 20190827 (Red Hat 9.2.1-1)
REM options -cpp -mtune=generic -march=x86-64 -g -O0 -fpre-include=/usr/include/finclude/math-vector-fortran.h
REM seed 1937108860 1772254670 -953351855 -1783111747 1508223389 708828269 -818592654 941939386 1588704831 -2074224600 -2134645123 69062126 1347373898 -1084877920 1761632872 27581982 779327559 -614784030 460652469 742029309 -280134840 -92126131 -1582886710 826545924 1698704152 -347393263 862109115 -225189434 1174756257 193744840 -1776434342 1933053323 912464633
REM
CELL 1.54180   50.00000   50.00000   50.00000   90.00000   90.00000   90.00000
LATT -1
SFAC C  
C      1  0.4708760000000  0.5557360000000  0.5487730000000 1.0
C      1  0.5835650000000  0.4932930000000  0.4889840000000 1.0
C      1  0.4625950000000  0.4397020000000  0.5448620000000 1.0
C      1  0.5174620000000  0.4173370000000  0.4922440000000 1.0
C      1  0.5379360000000  0.4569360000000  0.4344570000000 1.0
C      1  0.4743480000000  0.4370000000000  0.4168470000000 1.0
C      1  0.5037720000000  0.4924270000000  0.5682300000000 1.0
C      1  0.5550130000000  0.4801310000000  0.5131940000000 1.0
C      1  0.4801490000000  0.5180300000000  0.4030870000000 1.0
C      1  0.4619590000000  0.4282950000000  0.4885050000000 1.0
C      1  0.5521620000000  0.4894000000000  0.4526930000000 1.0
C      1  0.5050100000000  0.4408630000000  0.5908960000000 1.0
C      1  0.5178860000000  0.4616460000000  0.5338550000000 1.0
C      1  0.5709610000000  0.4922520000000  0.5371750000000 1.0
C      1  0.4797330000000  0.4781100000000  0.4470420000000 1.0
C      1  0.4928170000000  0.5112090000000  0.5410690000000 1.0
C      1  0.5434480000000  0.5264810000000  0.4642880000000 1.0
C      1  0.5196620000000  0.4666970000000  0.4483590000000 1.0
C      1  0.4801700000000  0.4759120000000  0.4907490000000 1.0
C      1  0.5159860000000  0.5727670000000  0.5127440000000 1.0
C      1  0.5277800000000  0.5382090000000  0.4394150000000 1.0
C      1  0.4684950000000  0.5209380000000  0.4738850000000 1.0
C      1  0.4087950000000  0.5484220000000  0.4144280000000 1.0
C      1  0.4866120000000  0.4644940000000  0.5909810000000 1.0
C      1  0.4085650000000  0.5527750000000  0.4630530000000 1.0
C      1  0.5512110000000  0.4164550000000  0.4975560000000 1.0
C      1  0.5171710000000  0.4722160000000  0.5043240000000 1.0
C      1  0.4613130000000  0.5589380000000  0.4640590000000 1.0
C      1  0.5536960000000  0.5649410000000  0.5361280000000 1.0
C      1  0.5370640000000  0.5295280000000  0.5552890000000 1.0
C      1  0.5124120000000  0.5796210000000  0.4586390000000 1.0
C      1  0.4829390000000  0.5684990000000  0.5128370000000 1.0
C      1  0.5594500000000  0.4436200000000  0.4653590000000 1.0
C      1  0.4910830000000  0.5363130000000  0.5202950000000 1.0
C      1  0.4486310000000  0.4763650000000  0.4919600000000 1.0
C      1  0.4355920000000  0.4560350000000  0.4547420000000 1.0
C      1  0.4484810000000  0.4799790000000  0.4523950000000 1.0
C      1  0.5418360000000  0.4479200000000  0.5507600000000 1.0
C      1  0.5356470000000  0.4507450000000  0.5821720000000 1.0
C      1  0.5331630000000  0.4338720000000  0.4667750000000 1.0
C      1  0.5502480000000  0.4499690000000  0.5033940000000 1.0
C      1  0.4634340000000  0.4466340000000  0.5140080000000 1.0
C      1  0.4369650000000  0.5490450000000  0.5096670000000 1.0
C      1  0.4295740000000  0.5111050000000  0.5198550000000 1.0
C      1  0.5240820000000  0.5804830000000  0.5434300000000 1.0
C      1  0.5176950000000  0.4784280000000  0.5918530000000 1.0
C      1  0.5112010000000  0.5398990000000  0.5686420000000 1.0
C      1  0.5706520000000  0.4635600000000  0.4412330000000 1.0
C      1  0.4854330000000  0.4232010000000  0.5473590000000 1.0
C      1  0.4670740000000  0.5064960000000  0.5636710000000 1.0
C      1  0.5046100000000  0.4860380000000  0.4692110000000 1.0
C      1  0.5058080000000  0.4244300000000  0.5233690000000 1.0
C      1  0.4929810000000  0.6062910000000  0.5045930000000 1.0
C      1  0.5329710000000  0.5296950000000  0.5237870000000 1.0
C      1  0.4635400000000  0.4265970000000  0.3953570000000 1.0
C      1  0.4647560000000  0.5345120000000  0.4194340000000 1.0
C      1  0.5325550000000  0.5514530000000  0.5051050000000 1.0
C      1  0.5374460000000  0.4280990000000  0.5261360000000 1.0
C      1  0.5729980000000  0.5156390000000  0.5125460000000 1.0
C      1  0.4720220000000  0.4755230000000  0.5297980000000 1.0
C      1  0.4324860000000  0.4717100000000  0.5144560000000 1.0
C      1  0.5531550000000  0.5031990000000  0.5631900000000 1.0
C      1  0.5625680000000  0.4700840000000  0.5600010000000 1.0
C      1  0.4598310000000  0.4997780000000  0.5220940000000 1.0
C      1  0.5688220000000  0.5469160000000  0.5255230000000 1.0
C      1  0.5411450000000  0.4750920000000  0.4815610000000 1.0
C      1  0.4330470000000  0.4789150000000  0.5430420000000 1.0
C      1  0.5798270000000  0.4699330000000  0.4737710000000 1.0
C      1  0.5497950000000  0.4814130000000  0.5890520000000 1.0
C      1  0.5050350000000  0.5227330000000  0.4338530000000 1.0
C      1  0.5089890000000  0.5058060000000  0.4078470000000 1.0
C      1  0.4969400000000  0.5914510000000  0.4829640000000 1.0
C      1  0.4373720000000  0.5117350000000  0.5523480000000 1.0
C      1  0.4832070000000  0.5119640000000  0.4481510000000 1.0
C      1  0.4949620000000  0.4481860000000  0.5040640000000 1.0
C      1  0.5613340000000  0.5419430000000  0.5678110000000 1.0
C      1  0.5960230000000  0.5206340000000  0.4560380000000 1.0
C      1  0.4626210000000  0.5280260000000  0.5053790000000 1.0
C      1  0.4414230000000  0.4342700000000  0.4701700000000 1.0
C      1  0.4912310000000  0.5591960000000  0.4734300000000 1.0
C      1  0.4665790000000  0.4767060000000  0.5761640000000 1.0
C      1  0.5354820000000  0.5641730000000  0.4541450000000 1.0
C      1  0.4416280000000  0.5028910000000  0.4742330000000 1.0
C      1  0.4505850000000  0.5488930000000  0.4400490000000 1.0
C      1  0.5381270000000  0.5061160000000  0.5062990000000 1.0
C      1  0.5023990000000  0.4321520000000  0.4583710000000 1.0
C      1  0.4128520000000  0.5434670000000  0.4889120000000 1.0
C      1  0.4947740000000  0.4718940000000  0.5466720000000 1.0
C      1  0.5334080000000  0.4960530000000  0.4251080000000 1.0
C      1  0.4941070000000  0.5939360000000  0.5333790000000 1.0
C      1  0.5217100000000  0.5100060000000  0.4802570000000 1.0
C      1  0.4987900000000  0.5611000000000  0.5552930000000 1.0
C      1  0.4219020000000  0.5506740000000  0.4381270000000 1.0
C      1  0.4982400000000  0.5304070000000  0.4878940000000 1.0
C      1  0.4857830000000  0.4480050000000  0.4395820000000 1.0
C      1  0.5710640000000  0.5142070000000  0.4573560000000 1.0
C      1  0.4935390000000  0.5208650000000  0.5794810000000 1.0
C      1  0.4584260000000  0.5663270000000  0.4946740000000 1.0
C      1  0.4864470000000  0.4176980000000  0.4798030000000 1.0
C      1  0.4973680000000  0.4989320000000  0.5095730000000 1.0
C      1  0.4215310000000  0.5157510000000  0.4939190000000 1.0
C      1  0.4494660000000  0.4609680000000  0.5593500000000 1.0
C      1  0.4482060000000  0.5416810000000  0.5400760000000 1.0
C      1  0.5462750000000  0.5529010000000  0.4809850000000 1.0
END
