TITL C-2778435-5768-1331 0.00672377398056247 125000 -866.633763376987 0 0 153 (C1) n - 1
REM
REM in /home/nfs/bkarasulu/CARBON/AIRSS/Generating-Clusters/REBO/Only-C1/SD-CG/HFTN-CG
REM
REM
REM
REM
REM
REM ./C.cell (11c1c37f851c82e70ff6c80c92926a4b)
REM
REM compiler GCC version 9.2.1 20190827 (Red Hat 9.2.1-1)
REM options -cpp -mtune=generic -march=x86-64 -g -O0 -fpre-include=/usr/include/finclude/math-vector-fortran.h
REM seed 670727899 1389097943 -786710685 -949781026 -1121800300 -869430251 -469038651 -1828839108 -462811745 860997111 -1499679818 1362520437 -1017672873 -569278043 -114108650 1878388316 422884052 33173959 -1094726890 386967273 -1545548401 523976253 2029291717 1098394983 -1268398177 1900381676 -346646769 -289948020 -1144833159 1192575872 -679536344 -2123346297 1892413754
REM
CELL 1.54180   50.00000   50.00000   50.00000   90.00000   90.00000   90.00000
LATT -1
SFAC C  
C      1  0.4418320000000  0.4769150000000  0.4572110000000 1.0
C      1  0.4161910000000  0.5186990000000  0.5341400000000 1.0
C      1  0.5299300000000  0.4861950000000  0.5067910000000 1.0
C      1  0.5151660000000  0.4009010000000  0.5301750000000 1.0
C      1  0.5093200000000  0.4674070000000  0.3984040000000 1.0
C      1  0.5608800000000  0.5004270000000  0.4132370000000 1.0
C      1  0.5348710000000  0.5872440000000  0.5483910000000 1.0
C      1  0.5700450000000  0.4984350000000  0.4516910000000 1.0
C      1  0.4508340000000  0.5159080000000  0.4303260000000 1.0
C      1  0.5624570000000  0.4305450000000  0.5068740000000 1.0
C      1  0.4583710000000  0.4572180000000  0.5277310000000 1.0
C      1  0.5369320000000  0.5436750000000  0.4738070000000 1.0
C      1  0.5820390000000  0.5097770000000  0.5598290000000 1.0
C      1  0.4744290000000  0.5338820000000  0.5931960000000 1.0
C      1  0.5034190000000  0.4221330000000  0.4371970000000 1.0
C      1  0.5162490000000  0.5675860000000  0.4646370000000 1.0
C      1  0.5556680000000  0.5314180000000  0.4265640000000 1.0
C      1  0.5323890000000  0.4093570000000  0.4510830000000 1.0
C      1  0.4721160000000  0.5892180000000  0.4896980000000 1.0
C      1  0.5033490000000  0.5141380000000  0.5442570000000 1.0
C      1  0.4723360000000  0.5710960000000  0.4525020000000 1.0
C      1  0.4346600000000  0.4166910000000  0.4949520000000 1.0
C      1  0.4401370000000  0.4948060000000  0.5401070000000 1.0
C      1  0.5353340000000  0.5584280000000  0.4307820000000 1.0
C      1  0.4246540000000  0.5384500000000  0.4765240000000 1.0
C      1  0.5511380000000  0.5737140000000  0.4957630000000 1.0
C      1  0.5366880000000  0.4443920000000  0.5719200000000 1.0
C      1  0.4717580000000  0.5049310000000  0.6060150000000 1.0
C      1  0.4279960000000  0.4334890000000  0.5180920000000 1.0
C      1  0.4949280000000  0.4870380000000  0.5927870000000 1.0
C      1  0.4425570000000  0.4496960000000  0.4390530000000 1.0
C      1  0.4252940000000  0.4960370000000  0.4358200000000 1.0
C      1  0.5067630000000  0.5491890000000  0.4142500000000 1.0
C      1  0.5167380000000  0.4493520000000  0.4217120000000 1.0
C      1  0.5255040000000  0.4165690000000  0.5049450000000 1.0
C      1  0.5752860000000  0.5273730000000  0.5170140000000 1.0
C      1  0.5871670000000  0.4512910000000  0.5016750000000 1.0
C      1  0.5244180000000  0.4191160000000  0.5555130000000 1.0
C      1  0.5711920000000  0.5651630000000  0.4731900000000 1.0
C      1  0.5978710000000  0.5664830000000  0.4890870000000 1.0
C      1  0.4622390000000  0.5191530000000  0.5144880000000 1.0
C      1  0.5649640000000  0.4750650000000  0.4308060000000 1.0
C      1  0.5465470000000  0.4150450000000  0.4810720000000 1.0
C      1  0.4454760000000  0.4514360000000  0.4787190000000 1.0
C      1  0.5449710000000  0.4627900000000  0.4924360000000 1.0
C      1  0.4433940000000  0.4360450000000  0.5485320000000 1.0
C      1  0.5267750000000  0.5166650000000  0.4261350000000 1.0
C      1  0.4743330000000  0.4747990000000  0.5444830000000 1.0
C      1  0.5544150000000  0.5281890000000  0.4930470000000 1.0
C      1  0.4973800000000  0.4932470000000  0.4396200000000 1.0
C      1  0.4480760000000  0.5423830000000  0.4156520000000 1.0
C      1  0.5581810000000  0.4986960000000  0.4815720000000 1.0
C      1  0.5899390000000  0.5184360000000  0.4679330000000 1.0
C      1  0.4713890000000  0.5082550000000  0.5419020000000 1.0
C      1  0.4906450000000  0.5542770000000  0.5296810000000 1.0
C      1  0.5447080000000  0.5492730000000  0.5420730000000 1.0
C      1  0.4449100000000  0.4519460000000  0.5788320000000 1.0
C      1  0.5375020000000  0.5522670000000  0.5930290000000 1.0
C      1  0.4463560000000  0.5668480000000  0.4350990000000 1.0
C      1  0.4698020000000  0.4484490000000  0.4995800000000 1.0
C      1  0.4211840000000  0.5433640000000  0.5103980000000 1.0
C      1  0.5210570000000  0.4923700000000  0.3949440000000 1.0
C      1  0.5259420000000  0.4951000000000  0.5844660000000 1.0
C      1  0.5170650000000  0.4548020000000  0.4744780000000 1.0
C      1  0.4753150000000  0.5642040000000  0.5562760000000 1.0
C      1  0.4345430000000  0.5657260000000  0.4641930000000 1.0
C      1  0.5609730000000  0.5825390000000  0.5271640000000 1.0
C      1  0.3958740000000  0.4712890000000  0.4652410000000 1.0
C      1  0.4915200000000  0.4087930000000  0.5538140000000 1.0
C      1  0.5375170000000  0.5146820000000  0.5157370000000 1.0
C      1  0.4474690000000  0.5820160000000  0.4818660000000 1.0
C      1  0.5145460000000  0.5600560000000  0.5541240000000 1.0
C      1  0.4673250000000  0.4504920000000  0.4177570000000 1.0
C      1  0.4730960000000  0.4230600000000  0.4530530000000 1.0
C      1  0.5658620000000  0.4727010000000  0.5179400000000 1.0
C      1  0.5146460000000  0.5338620000000  0.5211270000000 1.0
C      1  0.5093380000000  0.4241920000000  0.4698760000000 1.0
C      1  0.4744360000000  0.5598380000000  0.4126970000000 1.0
C      1  0.4474660000000  0.4779450000000  0.4181450000000 1.0
C      1  0.4688300000000  0.4833250000000  0.5728410000000 1.0
C      1  0.4829490000000  0.3935670000000  0.5243750000000 1.0
C      1  0.5054820000000  0.5305310000000  0.4744400000000 1.0
C      1  0.4655060000000  0.4917350000000  0.4992450000000 1.0
C      1  0.4425360000000  0.5033150000000  0.5787940000000 1.0
C      1  0.5848940000000  0.4802800000000  0.4838310000000 1.0
C      1  0.5361790000000  0.4963280000000  0.4485460000000 1.0
C      1  0.5132520000000  0.4626590000000  0.5840420000000 1.0
C      1  0.4003360000000  0.4852950000000  0.5192330000000 1.0
C      1  0.4546030000000  0.5820600000000  0.5272200000000 1.0
C      1  0.4949210000000  0.4468530000000  0.5642310000000 1.0
C      1  0.4368680000000  0.5605240000000  0.5324650000000 1.0
C      1  0.4798820000000  0.5927170000000  0.5286080000000 1.0
C      1  0.5271170000000  0.5642180000000  0.5166470000000 1.0
C      1  0.5248210000000  0.5053050000000  0.4790290000000 1.0
C      1  0.5403890000000  0.5761950000000  0.5797780000000 1.0
C      1  0.4926240000000  0.4784200000000  0.5058140000000 1.0
C      1  0.3947530000000  0.5034300000000  0.5001170000000 1.0
C      1  0.4559760000000  0.4747180000000  0.6021900000000 1.0
C      1  0.5021550000000  0.5936130000000  0.4778840000000 1.0
C      1  0.4732450000000  0.5452430000000  0.5064160000000 1.0
C      1  0.5656890000000  0.5379500000000  0.4560680000000 1.0
C      1  0.5996380000000  0.4806480000000  0.5151490000000 1.0
C      1  0.4323200000000  0.4854620000000  0.4948040000000 1.0
C      1  0.4254270000000  0.4792260000000  0.5734140000000 1.0
C      1  0.4979870000000  0.5557960000000  0.4444830000000 1.0
C      1  0.5446020000000  0.4774610000000  0.5646980000000 1.0
C      1  0.5055760000000  0.5901910000000  0.5218230000000 1.0
C      1  0.5760390000000  0.4774350000000  0.5503850000000 1.0
C      1  0.4810000000000  0.4706060000000  0.3986220000000 1.0
C      1  0.4534520000000  0.5259360000000  0.4629080000000 1.0
C      1  0.4155280000000  0.4638170000000  0.4842560000000 1.0
C      1  0.5356410000000  0.6031160000000  0.5173320000000 1.0
C      1  0.4484600000000  0.5305890000000  0.5784750000000 1.0
C      1  0.4994990000000  0.4444970000000  0.5376750000000 1.0
C      1  0.4329330000000  0.5135610000000  0.5061270000000 1.0
C      1  0.4882740000000  0.4730290000000  0.4725300000000 1.0
C      1  0.4022280000000  0.5160070000000  0.4754340000000 1.0
C      1  0.4586290000000  0.3977750000000  0.5034300000000 1.0
C      1  0.4056170000000  0.4911540000000  0.5517230000000 1.0
C      1  0.4807950000000  0.6006770000000  0.4526800000000 1.0
C      1  0.4630890000000  0.4957000000000  0.4679790000000 1.0
C      1  0.4813870000000  0.4535970000000  0.4476250000000 1.0
C      1  0.5174960000000  0.4703160000000  0.4455250000000 1.0
C      1  0.5612880000000  0.4434820000000  0.4725530000000 1.0
C      1  0.5335580000000  0.5980720000000  0.4833660000000 1.0
C      1  0.4991490000000  0.5230130000000  0.4435340000000 1.0
C      1  0.5311590000000  0.4685500000000  0.5362500000000 1.0
C      1  0.4913970000000  0.5523090000000  0.5784290000000 1.0
C      1  0.5937610000000  0.5100790000000  0.4989890000000 1.0
C      1  0.4689770000000  0.4293380000000  0.5692990000000 1.0
C      1  0.4399830000000  0.4242950000000  0.4618460000000 1.0
C      1  0.4971170000000  0.4035050000000  0.4946520000000 1.0
C      1  0.5782260000000  0.5546710000000  0.5365980000000 1.0
C      1  0.4720420000000  0.5004860000000  0.4095880000000 1.0
C      1  0.5325010000000  0.5264130000000  0.5865780000000 1.0
C      1  0.6072190000000  0.4700030000000  0.5507270000000 1.0
C      1  0.5609230000000  0.4496190000000  0.4427920000000 1.0
C      1  0.4260300000000  0.4658470000000  0.5286030000000 1.0
C      1  0.5417400000000  0.4322910000000  0.4306640000000 1.0
C      1  0.4010750000000  0.4973560000000  0.4540950000000 1.0
C      1  0.5308680000000  0.5226100000000  0.5558510000000 1.0
C      1  0.5006430000000  0.4393900000000  0.5110000000000 1.0
C      1  0.4754180000000  0.5460360000000  0.4756240000000 1.0
C      1  0.6015870000000  0.5646100000000  0.5139150000000 1.0
C      1  0.5919380000000  0.5362920000000  0.5609880000000 1.0
C      1  0.5570920000000  0.5113010000000  0.5408250000000 1.0
C      1  0.5441950000000  0.4371150000000  0.5335770000000 1.0
C      1  0.4388990000000  0.5478730000000  0.5580510000000 1.0
C      1  0.5669320000000  0.4453260000000  0.5575440000000 1.0
C      1  0.5454110000000  0.5786830000000  0.4565750000000 1.0
C      1  0.5010340000000  0.5172110000000  0.4041620000000 1.0
C      1  0.4726050000000  0.4205390000000  0.4841640000000 1.0
C      1  0.5025310000000  0.4841340000000  0.5353390000000 1.0
END
