TITL C-2778436-5916-523 0.000707917918859492 125000 -1107.43406355292 0 0 192 (C1) n - 1
REM
REM in /home/nfs/bkarasulu/CARBON/AIRSS/Generating-Clusters/REBO/Only-C1/SD-CG/HFTN-CG
REM
REM
REM
REM
REM
REM ./C.cell (11c1c37f851c82e70ff6c80c92926a4b)
REM
REM compiler GCC version 9.2.1 20190827 (Red Hat 9.2.1-1)
REM options -cpp -mtune=generic -march=x86-64 -g -O0 -fpre-include=/usr/include/finclude/math-vector-fortran.h
REM seed -1382899229 785812901 -1998744339 1228145766 -334257904 -397445247 1509739418 -857525233 -1248579914 -1516804097 -1284622835 -393998971 -861864209 -1302462194 -2094405305 16093209 184152364 -327655206 -231739679 -1055091444 -107081169 -753687338 -328886466 -147780006 -1978393665 569284546 380137766 411885561 -1878589177 -447327983 -523449915 -1395186051 -1032670185
REM
CELL 1.54180   50.00000   50.00000   50.00000   90.00000   90.00000   90.00000
LATT -1
SFAC C  
C      1  0.4145280000000  0.5229850000000  0.5572270000000 1.0
C      1  0.5460000000000  0.5462720000000  0.5546600000000 1.0
C      1  0.4129470000000  0.4788450000000  0.5890370000000 1.0
C      1  0.4806980000000  0.6005170000000  0.4741600000000 1.0
C      1  0.4981010000000  0.5884350000000  0.4480040000000 1.0
C      1  0.4954570000000  0.4261710000000  0.4131740000000 1.0
C      1  0.4072350000000  0.4735820000000  0.5392530000000 1.0
C      1  0.4603730000000  0.5311150000000  0.4198320000000 1.0
C      1  0.5130540000000  0.5878450000000  0.4938160000000 1.0
C      1  0.5436670000000  0.5081640000000  0.5148200000000 1.0
C      1  0.5433180000000  0.4007490000000  0.4673300000000 1.0
C      1  0.5223970000000  0.5474080000000  0.4525070000000 1.0
C      1  0.5144400000000  0.5450010000000  0.5151140000000 1.0
C      1  0.5823650000000  0.4470800000000  0.5053710000000 1.0
C      1  0.5062290000000  0.4518600000000  0.3997930000000 1.0
C      1  0.4462460000000  0.4525880000000  0.4986150000000 1.0
C      1  0.5069160000000  0.5404170000000  0.4819690000000 1.0
C      1  0.4450010000000  0.4604900000000  0.4697720000000 1.0
C      1  0.5372920000000  0.6026680000000  0.5127580000000 1.0
C      1  0.5439850000000  0.5846400000000  0.4797660000000 1.0
C      1  0.5670060000000  0.5348150000000  0.4738290000000 1.0
C      1  0.5398760000000  0.5845180000000  0.5458670000000 1.0
C      1  0.4556750000000  0.4917460000000  0.5310500000000 1.0
C      1  0.4110100000000  0.4922920000000  0.4660810000000 1.0
C      1  0.4808650000000  0.4821020000000  0.4851080000000 1.0
C      1  0.4655120000000  0.4116790000000  0.4768980000000 1.0
C      1  0.5949340000000  0.5447250000000  0.4894570000000 1.0
C      1  0.5120370000000  0.5827970000000  0.5651120000000 1.0
C      1  0.4193260000000  0.4589260000000  0.4341320000000 1.0
C      1  0.5123470000000  0.4207790000000  0.4823340000000 1.0
C      1  0.5036470000000  0.4672620000000  0.5471820000000 1.0
C      1  0.4824270000000  0.4753510000000  0.3928730000000 1.0
C      1  0.4053990000000  0.5789300000000  0.5017510000000 1.0
C      1  0.4406150000000  0.5649040000000  0.5141880000000 1.0
C      1  0.4597490000000  0.4495660000000  0.5913560000000 1.0
C      1  0.4753550000000  0.4242860000000  0.5323810000000 1.0
C      1  0.5876220000000  0.4890890000000  0.4315590000000 1.0
C      1  0.4308090000000  0.4862480000000  0.4203550000000 1.0
C      1  0.4448130000000  0.4767290000000  0.5915240000000 1.0
C      1  0.5137520000000  0.4119520000000  0.4287900000000 1.0
C      1  0.4268430000000  0.5907070000000  0.4869290000000 1.0
C      1  0.4800280000000  0.5242230000000  0.4693370000000 1.0
C      1  0.4632760000000  0.5626170000000  0.4246020000000 1.0
C      1  0.4031550000000  0.5518990000000  0.5111010000000 1.0
C      1  0.5167670000000  0.4827620000000  0.3880300000000 1.0
C      1  0.5378730000000  0.5486410000000  0.4141980000000 1.0
C      1  0.4931350000000  0.5071070000000  0.4493210000000 1.0
C      1  0.5670790000000  0.5415450000000  0.4433150000000 1.0
C      1  0.4215440000000  0.5036510000000  0.4892270000000 1.0
C      1  0.5403320000000  0.4991330000000  0.5594810000000 1.0
C      1  0.5558250000000  0.4446690000000  0.5276330000000 1.0
C      1  0.4247230000000  0.5837520000000  0.4595600000000 1.0
C      1  0.5036620000000  0.4998630000000  0.5435900000000 1.0
C      1  0.4577120000000  0.5413830000000  0.4582660000000 1.0
C      1  0.4769150000000  0.5446530000000  0.5482610000000 1.0
C      1  0.5897490000000  0.4550740000000  0.4349820000000 1.0
C      1  0.6059270000000  0.4863900000000  0.4832350000000 1.0
C      1  0.5088790000000  0.4328110000000  0.5962170000000 1.0
C      1  0.5583430000000  0.5597870000000  0.4952170000000 1.0
C      1  0.5410430000000  0.5173690000000  0.5947560000000 1.0
C      1  0.5691110000000  0.4893200000000  0.5564370000000 1.0
C      1  0.5356330000000  0.4589960000000  0.4140800000000 1.0
C      1  0.4242770000000  0.4430450000000  0.5582420000000 1.0
C      1  0.4105590000000  0.5598100000000  0.4480680000000 1.0
C      1  0.4304070000000  0.4351840000000  0.5110640000000 1.0
C      1  0.4725970000000  0.5507740000000  0.5912460000000 1.0
C      1  0.5122550000000  0.4505060000000  0.4657720000000 1.0
C      1  0.5701010000000  0.5678880000000  0.5501960000000 1.0
C      1  0.5888640000000  0.5151050000000  0.5596840000000 1.0
C      1  0.4838380000000  0.5430670000000  0.5145250000000 1.0
C      1  0.5661550000000  0.4689200000000  0.4150370000000 1.0
C      1  0.5271620000000  0.5795500000000  0.4535910000000 1.0
C      1  0.4808190000000  0.4769340000000  0.5683240000000 1.0
C      1  0.3935830000000  0.4780760000000  0.5106690000000 1.0
C      1  0.5428190000000  0.4357280000000  0.4864570000000 1.0
C      1  0.5664590000000  0.5891280000000  0.5238020000000 1.0
C      1  0.4025720000000  0.4618610000000  0.5690710000000 1.0
C      1  0.3924790000000  0.5308560000000  0.4944510000000 1.0
C      1  0.5433260000000  0.5003740000000  0.3856950000000 1.0
C      1  0.4310170000000  0.5351550000000  0.5226000000000 1.0
C      1  0.4773790000000  0.3859340000000  0.4958060000000 1.0
C      1  0.4978590000000  0.4962650000000  0.4111110000000 1.0
C      1  0.5279140000000  0.5239550000000  0.5380310000000 1.0
C      1  0.4317020000000  0.5358130000000  0.4884160000000 1.0
C      1  0.4312860000000  0.6018000000000  0.5429970000000 1.0
C      1  0.5231310000000  0.5419220000000  0.5978220000000 1.0
C      1  0.5756500000000  0.5730880000000  0.4377220000000 1.0
C      1  0.5664180000000  0.4769090000000  0.5265380000000 1.0
C      1  0.5414620000000  0.5230690000000  0.4446120000000 1.0
C      1  0.5371800000000  0.4522270000000  0.4461410000000 1.0
C      1  0.5744280000000  0.5863100000000  0.4684870000000 1.0
C      1  0.4554370000000  0.6079260000000  0.5307610000000 1.0
C      1  0.4553080000000  0.5022280000000  0.4369710000000 1.0
C      1  0.4840030000000  0.4620090000000  0.4614340000000 1.0
C      1  0.4064550000000  0.5318580000000  0.4654490000000 1.0
C      1  0.4518100000000  0.5216610000000  0.5416250000000 1.0
C      1  0.4881270000000  0.5687750000000  0.4826380000000 1.0
C      1  0.5044200000000  0.6069200000000  0.5208650000000 1.0
C      1  0.4308080000000  0.5061500000000  0.5810780000000 1.0
C      1  0.5461090000000  0.5720340000000  0.4287060000000 1.0
C      1  0.5186380000000  0.4825410000000  0.4278850000000 1.0
C      1  0.4163390000000  0.5098940000000  0.4403960000000 1.0
C      1  0.6055370000000  0.4644440000000  0.5447280000000 1.0
C      1  0.4862130000000  0.4380730000000  0.5725360000000 1.0
C      1  0.5505860000000  0.4532690000000  0.5670130000000 1.0
C      1  0.4824510000000  0.3861820000000  0.4625540000000 1.0
C      1  0.5738080000000  0.5111040000000  0.5232490000000 1.0
C      1  0.5985830000000  0.4736620000000  0.4599840000000 1.0
C      1  0.4981730000000  0.4959580000000  0.5105750000000 1.0
C      1  0.5572190000000  0.5066300000000  0.4774850000000 1.0
C      1  0.5083190000000  0.3923580000000  0.5521600000000 1.0
C      1  0.4324590000000  0.5373150000000  0.4361080000000 1.0
C      1  0.5818870000000  0.4625380000000  0.5693320000000 1.0
C      1  0.4216100000000  0.5752260000000  0.5377780000000 1.0
C      1  0.4788520000000  0.5794000000000  0.5729610000000 1.0
C      1  0.5835830000000  0.5398640000000  0.5383840000000 1.0
C      1  0.4482490000000  0.5728550000000  0.4470000000000 1.0
C      1  0.4971530000000  0.4345160000000  0.6207500000000 1.0
C      1  0.5386870000000  0.4208710000000  0.4440830000000 1.0
C      1  0.4512720000000  0.5034100000000  0.5013280000000 1.0
C      1  0.5206970000000  0.4566860000000  0.4975010000000 1.0
C      1  0.4795030000000  0.4958610000000  0.5866330000000 1.0
C      1  0.3878370000000  0.5079440000000  0.5100350000000 1.0
C      1  0.5283390000000  0.4033980000000  0.5193030000000 1.0
C      1  0.4551890000000  0.5602460000000  0.4842870000000 1.0
C      1  0.5332050000000  0.3772800000000  0.5407090000000 1.0
C      1  0.4387150000000  0.4651490000000  0.5379820000000 1.0
C      1  0.4631040000000  0.4691670000000  0.4389970000000 1.0
C      1  0.4540650000000  0.4933250000000  0.4687410000000 1.0
C      1  0.6017690000000  0.4954230000000  0.5346430000000 1.0
C      1  0.3962710000000  0.4619400000000  0.4875120000000 1.0
C      1  0.5412800000000  0.5584230000000  0.5229230000000 1.0
C      1  0.6028130000000  0.4706590000000  0.5112190000000 1.0
C      1  0.4194800000000  0.5513370000000  0.5571300000000 1.0
C      1  0.5243960000000  0.4970740000000  0.4568930000000 1.0
C      1  0.4701010000000  0.4675780000000  0.5119360000000 1.0
C      1  0.4020150000000  0.5061550000000  0.5378560000000 1.0
C      1  0.4705520000000  0.4419530000000  0.6202310000000 1.0
C      1  0.5561680000000  0.5232370000000  0.4076110000000 1.0
C      1  0.4511590000000  0.5633580000000  0.5612070000000 1.0
C      1  0.5484390000000  0.4958130000000  0.4249960000000 1.0
C      1  0.5306970000000  0.5608890000000  0.5766970000000 1.0
C      1  0.5257530000000  0.5124530000000  0.4868260000000 1.0
C      1  0.4542190000000  0.4788950000000  0.3967680000000 1.0
C      1  0.5686850000000  0.4250360000000  0.5732040000000 1.0
C      1  0.4901030000000  0.6214540000000  0.4959430000000 1.0
C      1  0.5657490000000  0.4543720000000  0.4786070000000 1.0
C      1  0.5521620000000  0.4774450000000  0.4601290000000 1.0
C      1  0.5669250000000  0.5162750000000  0.5856890000000 1.0
C      1  0.4994070000000  0.3853190000000  0.5209990000000 1.0
C      1  0.4899270000000  0.5707960000000  0.4259860000000 1.0
C      1  0.4665900000000  0.4527940000000  0.5488720000000 1.0
C      1  0.4710570000000  0.5736080000000  0.5181820000000 1.0
C      1  0.4974680000000  0.4541850000000  0.5201250000000 1.0
C      1  0.5577550000000  0.4967730000000  0.3634640000000 1.0
C      1  0.4066330000000  0.4637640000000  0.4591380000000 1.0
C      1  0.5967160000000  0.5615830000000  0.4610480000000 1.0
C      1  0.5142320000000  0.5119650000000  0.5735580000000 1.0
C      1  0.5125770000000  0.4218880000000  0.5583730000000 1.0
C      1  0.4764130000000  0.4372500000000  0.4774820000000 1.0
C      1  0.5346100000000  0.4702680000000  0.5498640000000 1.0
C      1  0.4758780000000  0.5183700000000  0.6012130000000 1.0
C      1  0.4976820000000  0.5385620000000  0.5746410000000 1.0
C      1  0.4148150000000  0.4180520000000  0.5233190000000 1.0
C      1  0.4608410000000  0.4126900000000  0.5550000000000 1.0
C      1  0.4445890000000  0.4288510000000  0.5720500000000 1.0
C      1  0.4469290000000  0.4353240000000  0.4505470000000 1.0
C      1  0.5853930000000  0.5622400000000  0.5142230000000 1.0
C      1  0.4568640000000  0.5976380000000  0.4983850000000 1.0
C      1  0.5758100000000  0.4207120000000  0.5413250000000 1.0
C      1  0.4922350000000  0.4148000000000  0.5064770000000 1.0
C      1  0.4867270000000  0.6474940000000  0.4940830000000 1.0
C      1  0.5275440000000  0.4803860000000  0.5180930000000 1.0
C      1  0.6033910000000  0.5300950000000  0.4533770000000 1.0
C      1  0.4677840000000  0.4222550000000  0.4196970000000 1.0
C      1  0.5499040000000  0.4062110000000  0.4978060000000 1.0
C      1  0.5076120000000  0.5455500000000  0.4225490000000 1.0
C      1  0.4590210000000  0.4038310000000  0.4452790000000 1.0
C      1  0.5105370000000  0.3969210000000  0.4585440000000 1.0
C      1  0.4821210000000  0.6009020000000  0.5458860000000 1.0
C      1  0.5681390000000  0.4829790000000  0.4957490000000 1.0
C      1  0.5987150000000  0.4351930000000  0.5600370000000 1.0
C      1  0.5234840000000  0.4345440000000  0.5306060000000 1.0
C      1  0.4496210000000  0.5315470000000  0.5742710000000 1.0
C      1  0.5838530000000  0.5182920000000  0.4278230000000 1.0
C      1  0.4896200000000  0.5219120000000  0.4218470000000 1.0
C      1  0.4779950000000  0.5189920000000  0.4996850000000 1.0
C      1  0.5360600000000  0.4273470000000  0.5809300000000 1.0
C      1  0.5766210000000  0.4152530000000  0.5103320000000 1.0
C      1  0.6064630000000  0.5140410000000  0.4803080000000 1.0
C      1  0.4478400000000  0.4472690000000  0.4195510000000 1.0
C      1  0.4967630000000  0.5719250000000  0.5385030000000 1.0
END
