TITL C-2778432-5617-877 -0.00267165882961579 125000 -539.976892565194 0 0 90 (C1) n - 1
REM
REM in /home/nfs/bkarasulu/CARBON/AIRSS/Generating-Clusters/REBO/Only-C1/SD-CG/HFTN-CG
REM
REM
REM
REM
REM
REM ./C.cell (11c1c37f851c82e70ff6c80c92926a4b)
REM
REM compiler GCC version 9.2.1 20190827 (Red Hat 9.2.1-1)
REM options -cpp -mtune=generic -march=x86-64 -g -O0 -fpre-include=/usr/include/finclude/math-vector-fortran.h
REM seed -16009093 394766982 240575794 -339668162 1910310655 1527931027 172203823 -1443858064 -238617608 -933160303 699007567 -1881917189 -1521041204 1637523659 -2024196734 1350319330 -860197886 306962441 -1913517231 2135529448 30879056 -897836744 480469162 884253341 1760615385 2056558098 293890422 1996998005 -632423950 909675181 975099456 1079306821 -1314921350
REM
CELL 1.54180   50.00000   50.00000   50.00000   90.00000   90.00000   90.00000
LATT -1
SFAC C  
C      1  0.4520570000000  0.5695690000000  0.4905130000000 1.0
C      1  0.4298110000000  0.5048770000000  0.5147840000000 1.0
C      1  0.5266080000000  0.5170540000000  0.5677600000000 1.0
C      1  0.5046710000000  0.4115030000000  0.5234740000000 1.0
C      1  0.4141810000000  0.4925050000000  0.4666440000000 1.0
C      1  0.5898260000000  0.4907850000000  0.4912840000000 1.0
C      1  0.4279590000000  0.4345340000000  0.5110320000000 1.0
C      1  0.4846990000000  0.5306630000000  0.5065600000000 1.0
C      1  0.5635940000000  0.4398890000000  0.4787700000000 1.0
C      1  0.4701600000000  0.5599280000000  0.5628710000000 1.0
C      1  0.4657140000000  0.4884720000000  0.4756390000000 1.0
C      1  0.5103530000000  0.4712430000000  0.5830900000000 1.0
C      1  0.4809510000000  0.5837470000000  0.4930400000000 1.0
C      1  0.4106280000000  0.4531820000000  0.5200310000000 1.0
C      1  0.4991870000000  0.5002770000000  0.5150110000000 1.0
C      1  0.4711220000000  0.4421080000000  0.5461650000000 1.0
C      1  0.5471810000000  0.5703350000000  0.5166460000000 1.0
C      1  0.5337340000000  0.4167900000000  0.5076470000000 1.0
C      1  0.4549940000000  0.4894650000000  0.5286900000000 1.0
C      1  0.4702070000000  0.4688470000000  0.4379530000000 1.0
C      1  0.4938410000000  0.4460640000000  0.5697300000000 1.0
C      1  0.4409680000000  0.5331820000000  0.4501450000000 1.0
C      1  0.5102800000000  0.5779600000000  0.4768350000000 1.0
C      1  0.4437950000000  0.5540890000000  0.4691050000000 1.0
C      1  0.5417870000000  0.5749630000000  0.4855970000000 1.0
C      1  0.5714110000000  0.5316410000000  0.5081110000000 1.0
C      1  0.4622610000000  0.5212780000000  0.4360270000000 1.0
C      1  0.4955260000000  0.5000490000000  0.4832370000000 1.0
C      1  0.5192620000000  0.4285440000000  0.4606330000000 1.0
C      1  0.4539860000000  0.4545910000000  0.4579310000000 1.0
C      1  0.5701170000000  0.5349610000000  0.4797600000000 1.0
C      1  0.4611820000000  0.5083210000000  0.5019890000000 1.0
C      1  0.4554680000000  0.5153160000000  0.5799710000000 1.0
C      1  0.5546890000000  0.5566370000000  0.4676840000000 1.0
C      1  0.4912520000000  0.4217340000000  0.4704790000000 1.0
C      1  0.5067960000000  0.4880120000000  0.4120840000000 1.0
C      1  0.4539890000000  0.4266240000000  0.5033400000000 1.0
C      1  0.5188760000000  0.4581020000000  0.4505430000000 1.0
C      1  0.5288150000000  0.4883570000000  0.5693410000000 1.0
C      1  0.5455490000000  0.4728310000000  0.4498200000000 1.0
C      1  0.4726020000000  0.4222760000000  0.5255430000000 1.0
C      1  0.5716940000000  0.5118720000000  0.4626100000000 1.0
C      1  0.5640420000000  0.5285190000000  0.5343160000000 1.0
C      1  0.4540900000000  0.5740760000000  0.5207250000000 1.0
C      1  0.6047810000000  0.5127250000000  0.4968250000000 1.0
C      1  0.4991730000000  0.5255620000000  0.5747140000000 1.0
C      1  0.4947240000000  0.4715950000000  0.4694220000000 1.0
C      1  0.5689050000000  0.4596460000000  0.4590120000000 1.0
C      1  0.5425210000000  0.4757100000000  0.5480820000000 1.0
C      1  0.4062210000000  0.4975980000000  0.4929600000000 1.0
C      1  0.4466710000000  0.5640620000000  0.5467720000000 1.0
C      1  0.5390950000000  0.4475840000000  0.5447690000000 1.0
C      1  0.5283530000000  0.5206140000000  0.4484530000000 1.0
C      1  0.4909150000000  0.5293290000000  0.4370220000000 1.0
C      1  0.4291840000000  0.4684950000000  0.4624510000000 1.0
C      1  0.4584940000000  0.4938130000000  0.4296740000000 1.0
C      1  0.5676290000000  0.4503270000000  0.5058180000000 1.0
C      1  0.4735520000000  0.5378680000000  0.5803760000000 1.0
C      1  0.4836370000000  0.5853290000000  0.5272350000000 1.0
C      1  0.5400780000000  0.4222830000000  0.4793550000000 1.0
C      1  0.5479000000000  0.5007340000000  0.4509100000000 1.0
C      1  0.4063680000000  0.4805350000000  0.5191750000000 1.0
C      1  0.5393950000000  0.5485850000000  0.4446290000000 1.0
C      1  0.5013490000000  0.5458130000000  0.4836840000000 1.0
C      1  0.5036560000000  0.4441880000000  0.5139050000000 1.0
C      1  0.5090360000000  0.5740400000000  0.5104090000000 1.0
C      1  0.5427030000000  0.5357530000000  0.5522720000000 1.0
C      1  0.5308750000000  0.5605830000000  0.5430510000000 1.0
C      1  0.5025180000000  0.5225790000000  0.4653030000000 1.0
C      1  0.4684710000000  0.4930840000000  0.5671890000000 1.0
C      1  0.4709320000000  0.4680940000000  0.5773340000000 1.0
C      1  0.5018810000000  0.5337850000000  0.5357870000000 1.0
C      1  0.5698610000000  0.4795840000000  0.5088560000000 1.0
C      1  0.4920040000000  0.5035670000000  0.5482070000000 1.0
C      1  0.4215890000000  0.5566700000000  0.5538750000000 1.0
C      1  0.5132250000000  0.5680670000000  0.4039490000000 1.0
C      1  0.5280680000000  0.5158020000000  0.5209380000000 1.0
C      1  0.5497180000000  0.4922550000000  0.5255700000000 1.0
C      1  0.4974090000000  0.4477730000000  0.4878830000000 1.0
C      1  0.5154860000000  0.5470410000000  0.4215680000000 1.0
C      1  0.4983370000000  0.5639320000000  0.5474060000000 1.0
C      1  0.4182800000000  0.5160150000000  0.4513200000000 1.0
C      1  0.5908480000000  0.4769560000000  0.4660270000000 1.0
C      1  0.5515470000000  0.4344360000000  0.5233400000000 1.0
C      1  0.5106860000000  0.4362930000000  0.5462650000000 1.0
C      1  0.4586210000000  0.4660670000000  0.5393860000000 1.0
C      1  0.4627120000000  0.4323510000000  0.4756090000000 1.0
C      1  0.5264190000000  0.5448070000000  0.5066800000000 1.0
C      1  0.5086750000000  0.5146610000000  0.4136100000000 1.0
C      1  0.4975810000000  0.4676360000000  0.4297610000000 1.0
END
