TITL C-2778427-5640-1406 -0.00160770214768903 125000 -229.259374664195 0 0 39 (C1) n - 1
REM
REM in /home/nfs/bkarasulu/CARBON/AIRSS/Generating-Clusters/REBO/Only-C1/SD-CG/HFTN-CG
REM
REM
REM
REM
REM
REM ./C.cell (11c1c37f851c82e70ff6c80c92926a4b)
REM
REM compiler GCC version 9.2.1 20190827 (Red Hat 9.2.1-1)
REM options -cpp -mtune=generic -march=x86-64 -g -O0 -fpre-include=/usr/include/finclude/math-vector-fortran.h
REM seed 1796544368 841170255 1700398614 1426609321 -157907735 726750550 -114525461 919347266 2088888840 -34541234 47175841 592290409 -382742165 -1947185163 -1163119452 -399067471 -737109746 686158042 -1348634125 594637039 -337718331 -1024006236 -199546754 -537855361 -1129321329 1200949619 -1726480064 2145298446 -1398516223 537135613 -2026172400 1486518787 -440851997
REM
CELL 1.54180   50.00000   50.00000   50.00000   90.00000   90.00000   90.00000
LATT -1
SFAC C  
C      1  0.4817460000000  0.4826720000000  0.5666260000000 1.0
C      1  0.5150580000000  0.5820510000000  0.5032020000000 1.0
C      1  0.5202970000000  0.5333630000000  0.4779940000000 1.0
C      1  0.5012620000000  0.4476690000000  0.5262790000000 1.0
C      1  0.5016070000000  0.4632930000000  0.5726530000000 1.0
C      1  0.4732790000000  0.4566980000000  0.5251950000000 1.0
C      1  0.4860660000000  0.5659350000000  0.5109150000000 1.0
C      1  0.5371040000000  0.5186260000000  0.4941450000000 1.0
C      1  0.5394370000000  0.4853970000000  0.4137630000000 1.0
C      1  0.5536790000000  0.4840950000000  0.4632660000000 1.0
C      1  0.4349160000000  0.5162510000000  0.5379600000000 1.0
C      1  0.5312690000000  0.4811300000000  0.5376530000000 1.0
C      1  0.4683060000000  0.4686580000000  0.4741330000000 1.0
C      1  0.4927780000000  0.5087900000000  0.5619280000000 1.0
C      1  0.5268040000000  0.4237310000000  0.4634760000000 1.0
C      1  0.5537010000000  0.4818230000000  0.4364850000000 1.0
C      1  0.4769900000000  0.5195500000000  0.4428400000000 1.0
C      1  0.4397380000000  0.4895400000000  0.5415400000000 1.0
C      1  0.4956960000000  0.4606250000000  0.4604500000000 1.0
C      1  0.4750990000000  0.5303660000000  0.5589930000000 1.0
C      1  0.5181940000000  0.4518620000000  0.5023440000000 1.0
C      1  0.5140630000000  0.4930600000000  0.4079750000000 1.0
C      1  0.4948960000000  0.5364060000000  0.4588510000000 1.0
C      1  0.5126450000000  0.5669170000000  0.5322870000000 1.0
C      1  0.5242250000000  0.5439710000000  0.5419300000000 1.0
C      1  0.5169100000000  0.4580540000000  0.5494980000000 1.0
C      1  0.5203910000000  0.5104770000000  0.5478790000000 1.0
C      1  0.4600250000000  0.5565960000000  0.5218780000000 1.0
C      1  0.4625300000000  0.4734390000000  0.5464950000000 1.0
C      1  0.4787760000000  0.4868760000000  0.4486870000000 1.0
C      1  0.4620050000000  0.4600400000000  0.4994150000000 1.0
C      1  0.4540760000000  0.5369270000000  0.5411090000000 1.0
C      1  0.4921330000000  0.4992580000000  0.4212260000000 1.0
C      1  0.5447320000000  0.4916740000000  0.4885960000000 1.0
C      1  0.5360830000000  0.4741290000000  0.5094240000000 1.0
C      1  0.5360820000000  0.5242110000000  0.5212350000000 1.0
C      1  0.5136850000000  0.4447870000000  0.4746720000000 1.0
C      1  0.5013690000000  0.5605480000000  0.4810660000000 1.0
C      1  0.4523480000000  0.5305050000000  0.4359380000000 1.0
END
