TITL C-2778425-5191-306 0.00924264859405661 125000 -1143.92435086603 0 0 196 (C1) n - 1
REM
REM in /home/nfs/bkarasulu/CARBON/AIRSS/Generating-Clusters/REBO/Only-C1/SD-CG/HFTN-CG
REM
REM
REM
REM
REM
REM ./C.cell (11c1c37f851c82e70ff6c80c92926a4b)
REM
REM compiler GCC version 9.2.1 20190827 (Red Hat 9.2.1-1)
REM options -cpp -mtune=generic -march=x86-64 -g -O0 -fpre-include=/usr/include/finclude/math-vector-fortran.h
REM seed 1911860059 -1792699832 -668403517 1912206779 501189105 -1225125220 -238051602 -630309189 -148311488 498203299 1633854344 -1666058983 386308635 -507407442 672162181 -931643708 1324941739 1546783791 1802206825 -550432614 1730996100 -701626090 -1617256814 -1185625328 -1294416358 1086897665 -2051082882 1809750333 -1568765143 1721918118 -41701863 1558173824 -3332759
REM
CELL 1.54180   50.00000   50.00000   50.00000   90.00000   90.00000   90.00000
LATT -1
SFAC C  
C      1  0.5709930000000  0.4722470000000  0.4809130000000 1.0
C      1  0.4599190000000  0.5469440000000  0.5480530000000 1.0
C      1  0.4021040000000  0.4774040000000  0.5437070000000 1.0
C      1  0.5762270000000  0.5157590000000  0.4224660000000 1.0
C      1  0.4515190000000  0.4542200000000  0.4543290000000 1.0
C      1  0.4869820000000  0.4672130000000  0.5527800000000 1.0
C      1  0.4330170000000  0.5133940000000  0.5366960000000 1.0
C      1  0.4483320000000  0.4232650000000  0.4170250000000 1.0
C      1  0.4730660000000  0.4905400000000  0.3833580000000 1.0
C      1  0.4248970000000  0.4872180000000  0.4977280000000 1.0
C      1  0.5301740000000  0.4781490000000  0.6025600000000 1.0
C      1  0.5423890000000  0.4828960000000  0.4704680000000 1.0
C      1  0.5361820000000  0.4719150000000  0.3949870000000 1.0
C      1  0.5494270000000  0.4839120000000  0.5648670000000 1.0
C      1  0.5104340000000  0.3741240000000  0.5279990000000 1.0
C      1  0.4500570000000  0.4709310000000  0.3939310000000 1.0
C      1  0.4619980000000  0.5262000000000  0.5211810000000 1.0
C      1  0.5108710000000  0.3949880000000  0.4837230000000 1.0
C      1  0.5068810000000  0.4855900000000  0.3860280000000 1.0
C      1  0.5817360000000  0.5573820000000  0.5579340000000 1.0
C      1  0.5448400000000  0.5969770000000  0.4900250000000 1.0
C      1  0.5129340000000  0.5389200000000  0.4806920000000 1.0
C      1  0.4391840000000  0.5384690000000  0.5737790000000 1.0
C      1  0.4808550000000  0.4966510000000  0.4338320000000 1.0
C      1  0.4403300000000  0.5075570000000  0.4287040000000 1.0
C      1  0.5169300000000  0.6130560000000  0.5718690000000 1.0
C      1  0.4030930000000  0.4882510000000  0.5739350000000 1.0
C      1  0.5945100000000  0.5562250000000  0.5273110000000 1.0
C      1  0.5827840000000  0.5054020000000  0.5644660000000 1.0
C      1  0.4953710000000  0.5962880000000  0.5632480000000 1.0
C      1  0.4897990000000  0.5250110000000  0.5002670000000 1.0
C      1  0.5897060000000  0.4520760000000  0.4610140000000 1.0
C      1  0.4685260000000  0.5941830000000  0.5342100000000 1.0
C      1  0.5399050000000  0.4566110000000  0.5370230000000 1.0
C      1  0.4975070000000  0.6178570000000  0.4824410000000 1.0
C      1  0.5593130000000  0.4846570000000  0.6034480000000 1.0
C      1  0.5047660000000  0.5031070000000  0.4540940000000 1.0
C      1  0.5097410000000  0.4849100000000  0.5379260000000 1.0
C      1  0.5452110000000  0.5717680000000  0.5745890000000 1.0
C      1  0.4802220000000  0.4679520000000  0.4491500000000 1.0
C      1  0.5528080000000  0.4089270000000  0.4540600000000 1.0
C      1  0.5833310000000  0.4794910000000  0.5182100000000 1.0
C      1  0.5459590000000  0.4081020000000  0.5374550000000 1.0
C      1  0.4341130000000  0.4456860000000  0.4069700000000 1.0
C      1  0.5715900000000  0.5243330000000  0.5240480000000 1.0
C      1  0.5419950000000  0.5858160000000  0.4459430000000 1.0
C      1  0.5666620000000  0.5821500000000  0.4690250000000 1.0
C      1  0.4934180000000  0.5517730000000  0.5271390000000 1.0
C      1  0.5367850000000  0.4745010000000  0.5015100000000 1.0
C      1  0.5446380000000  0.5318140000000  0.4896820000000 1.0
C      1  0.5128390000000  0.4536870000000  0.5256270000000 1.0
C      1  0.6159570000000  0.4905010000000  0.4872690000000 1.0
C      1  0.4475910000000  0.5630380000000  0.4957420000000 1.0
C      1  0.5853490000000  0.4988820000000  0.4917590000000 1.0
C      1  0.5507670000000  0.5341090000000  0.4091310000000 1.0
C      1  0.3830740000000  0.4953160000000  0.5263750000000 1.0
C      1  0.5251110000000  0.4449690000000  0.4093310000000 1.0
C      1  0.5792700000000  0.4724760000000  0.5613930000000 1.0
C      1  0.4835110000000  0.5828300000000  0.4306300000000 1.0
C      1  0.4024320000000  0.5109710000000  0.4405670000000 1.0
C      1  0.4769100000000  0.5933230000000  0.4586420000000 1.0
C      1  0.4753540000000  0.4295410000000  0.5074220000000 1.0
C      1  0.5116720000000  0.5169570000000  0.3824840000000 1.0
C      1  0.5427080000000  0.6016390000000  0.5658740000000 1.0
C      1  0.3935010000000  0.4755080000000  0.4764720000000 1.0
C      1  0.4469520000000  0.4542070000000  0.4938950000000 1.0
C      1  0.5070320000000  0.4873570000000  0.5050070000000 1.0
C      1  0.4701250000000  0.4746170000000  0.4830220000000 1.0
C      1  0.5164170000000  0.5419860000000  0.4496070000000 1.0
C      1  0.5224050000000  0.5433220000000  0.4184580000000 1.0
C      1  0.4653560000000  0.4082490000000  0.4752690000000 1.0
C      1  0.4232490000000  0.5324170000000  0.4240110000000 1.0
C      1  0.5179470000000  0.5310710000000  0.5192630000000 1.0
C      1  0.5432690000000  0.4051420000000  0.4865000000000 1.0
C      1  0.5126790000000  0.4566610000000  0.5929510000000 1.0
C      1  0.4924060000000  0.3979160000000  0.4571590000000 1.0
C      1  0.4959760000000  0.4501870000000  0.4206780000000 1.0
C      1  0.4378280000000  0.4494510000000  0.5219020000000 1.0
C      1  0.5028260000000  0.4493900000000  0.4763220000000 1.0
C      1  0.5128510000000  0.5908160000000  0.4418640000000 1.0
C      1  0.4148900000000  0.5693670000000  0.5366420000000 1.0
C      1  0.5542430000000  0.5640060000000  0.4949700000000 1.0
C      1  0.4200740000000  0.5250910000000  0.4631640000000 1.0
C      1  0.5176120000000  0.5041940000000  0.6063850000000 1.0
C      1  0.5996950000000  0.5252080000000  0.4655370000000 1.0
C      1  0.5171010000000  0.4253930000000  0.4948510000000 1.0
C      1  0.4737060000000  0.4833670000000  0.6013080000000 1.0
C      1  0.5818970000000  0.4734590000000  0.4399450000000 1.0
C      1  0.4772620000000  0.5612350000000  0.5811350000000 1.0
C      1  0.5488470000000  0.4338040000000  0.5558700000000 1.0
C      1  0.4352510000000  0.5922030000000  0.5272000000000 1.0
C      1  0.4541810000000  0.4727860000000  0.5562680000000 1.0
C      1  0.5572160000000  0.4649680000000  0.4214200000000 1.0
C      1  0.4182960000000  0.5571950000000  0.4863290000000 1.0
C      1  0.5780800000000  0.4431680000000  0.5589300000000 1.0
C      1  0.3897270000000  0.5135660000000  0.5542910000000 1.0
C      1  0.3990210000000  0.5532030000000  0.5113880000000 1.0
C      1  0.5423560000000  0.5117230000000  0.5172330000000 1.0
C      1  0.4761700000000  0.5709370000000  0.5130640000000 1.0
C      1  0.4667070000000  0.5505660000000  0.3917130000000 1.0
C      1  0.5655640000000  0.5121910000000  0.5999210000000 1.0
C      1  0.4075850000000  0.5360850000000  0.5371230000000 1.0
C      1  0.5050130000000  0.4079970000000  0.5638810000000 1.0
C      1  0.5608310000000  0.5101180000000  0.4732740000000 1.0
C      1  0.5545060000000  0.4817890000000  0.5253310000000 1.0
C      1  0.4222490000000  0.4723380000000  0.5910350000000 1.0
C      1  0.5231710000000  0.5559420000000  0.6051630000000 1.0
C      1  0.4316630000000  0.4764520000000  0.4658850000000 1.0
C      1  0.3938710000000  0.4992750000000  0.4985010000000 1.0
C      1  0.5451900000000  0.5562730000000  0.4476400000000 1.0
C      1  0.6059350000000  0.5237740000000  0.5274050000000 1.0
C      1  0.5408930000000  0.5057950000000  0.3918440000000 1.0
C      1  0.5631300000000  0.5690630000000  0.5317800000000 1.0
C      1  0.4233150000000  0.4206080000000  0.4984450000000 1.0
C      1  0.3968930000000  0.4834320000000  0.4474720000000 1.0
C      1  0.4868050000000  0.4521710000000  0.5144840000000 1.0
C      1  0.5473660000000  0.4360550000000  0.4334680000000 1.0
C      1  0.4671700000000  0.5479060000000  0.4713250000000 1.0
C      1  0.5514750000000  0.5434560000000  0.5798460000000 1.0
C      1  0.4865080000000  0.4768610000000  0.4106810000000 1.0
C      1  0.4981200000000  0.6036440000000  0.5197510000000 1.0
C      1  0.5865900000000  0.5410050000000  0.4977570000000 1.0
C      1  0.4129650000000  0.4623790000000  0.4277360000000 1.0
C      1  0.4759040000000  0.5251880000000  0.4211610000000 1.0
C      1  0.4373230000000  0.5516400000000  0.4591030000000 1.0
C      1  0.5942310000000  0.4285350000000  0.5421250000000 1.0
C      1  0.5606020000000  0.4101220000000  0.5126990000000 1.0
C      1  0.4764520000000  0.4834510000000  0.5158360000000 1.0
C      1  0.4568580000000  0.4060030000000  0.5337690000000 1.0
C      1  0.5074120000000  0.5652570000000  0.5849870000000 1.0
C      1  0.4975120000000  0.5132420000000  0.5631890000000 1.0
C      1  0.5265680000000  0.6028450000000  0.5172810000000 1.0
C      1  0.5158990000000  0.5944270000000  0.4749000000000 1.0
C      1  0.5714440000000  0.5449900000000  0.4347910000000 1.0
C      1  0.4208000000000  0.5158490000000  0.5684880000000 1.0
C      1  0.4598530000000  0.4438140000000  0.5738300000000 1.0
C      1  0.5894000000000  0.4511100000000  0.5006900000000 1.0
C      1  0.4587810000000  0.5035630000000  0.5703460000000 1.0
C      1  0.5372290000000  0.5276700000000  0.6054160000000 1.0
C      1  0.5279630000000  0.5027100000000  0.5549120000000 1.0
C      1  0.5648980000000  0.4343870000000  0.4701880000000 1.0
C      1  0.4388390000000  0.5581180000000  0.4291430000000 1.0
C      1  0.5409880000000  0.4470020000000  0.4880470000000 1.0
C      1  0.4631850000000  0.5665030000000  0.4157680000000 1.0
C      1  0.5468980000000  0.5968270000000  0.5373600000000 1.0
C      1  0.5295340000000  0.5054720000000  0.4402340000000 1.0
C      1  0.5830020000000  0.5333780000000  0.5796170000000 1.0
C      1  0.4905440000000  0.5423930000000  0.5569370000000 1.0
C      1  0.6150160000000  0.4626090000000  0.4811440000000 1.0
C      1  0.5185230000000  0.4147930000000  0.4157940000000 1.0
C      1  0.4961450000000  0.3802120000000  0.5058940000000 1.0
C      1  0.4848280000000  0.5310680000000  0.4534880000000 1.0
C      1  0.5199870000000  0.5665460000000  0.4943760000000 1.0
C      1  0.4333750000000  0.4205100000000  0.5268280000000 1.0
C      1  0.4744360000000  0.5029900000000  0.5405730000000 1.0
C      1  0.4319050000000  0.4796730000000  0.5310360000000 1.0
C      1  0.4966750000000  0.4403790000000  0.5595100000000 1.0
C      1  0.5268780000000  0.4385430000000  0.4585920000000 1.0
C      1  0.4793370000000  0.4274540000000  0.4177600000000 1.0
C      1  0.4839150000000  0.4587050000000  0.5925830000000 1.0
C      1  0.5805520000000  0.5532830000000  0.4665660000000 1.0
C      1  0.5200060000000  0.4090870000000  0.4443760000000 1.0
C      1  0.4678830000000  0.5311810000000  0.5878160000000 1.0
C      1  0.4445060000000  0.5037500000000  0.4594190000000 1.0
C      1  0.4130230000000  0.4478600000000  0.4559080000000 1.0
C      1  0.5998680000000  0.4938360000000  0.5400600000000 1.0
C      1  0.5498430000000  0.4967340000000  0.4226680000000 1.0
C      1  0.5086680000000  0.4804680000000  0.4742120000000 1.0
C      1  0.4807270000000  0.5763170000000  0.4797480000000 1.0
C      1  0.4689880000000  0.5084970000000  0.4825660000000 1.0
C      1  0.5229320000000  0.3931250000000  0.5443490000000 1.0
C      1  0.5180480000000  0.5726400000000  0.5539820000000 1.0
C      1  0.4371140000000  0.5683290000000  0.5591930000000 1.0
C      1  0.4492340000000  0.5968880000000  0.4993820000000 1.0
C      1  0.4372690000000  0.4262030000000  0.4678370000000 1.0
C      1  0.4663500000000  0.5209140000000  0.3890420000000 1.0
C      1  0.5548990000000  0.5218620000000  0.5537980000000 1.0
C      1  0.4407010000000  0.5142470000000  0.4975230000000 1.0
C      1  0.5844730000000  0.4258230000000  0.5152320000000 1.0
C      1  0.4447860000000  0.4878770000000  0.5966910000000 1.0
C      1  0.4726160000000  0.4168010000000  0.5575590000000 1.0
C      1  0.5842610000000  0.5027740000000  0.4496210000000 1.0
C      1  0.5250500000000  0.4329560000000  0.5754940000000 1.0
C      1  0.6163310000000  0.5232830000000  0.4950120000000 1.0
C      1  0.4754440000000  0.4379060000000  0.4682790000000 1.0
C      1  0.4334010000000  0.4843840000000  0.4147530000000 1.0
C      1  0.4297150000000  0.4464570000000  0.5849630000000 1.0
C      1  0.4009860000000  0.5276600000000  0.4890180000000 1.0
C      1  0.4128180000000  0.4500760000000  0.4884800000000 1.0
C      1  0.4692780000000  0.4040800000000  0.4358320000000 1.0
C      1  0.4643150000000  0.5857720000000  0.5653280000000 1.0
C      1  0.5301650000000  0.5621820000000  0.5267200000000 1.0
C      1  0.4736830000000  0.6109670000000  0.4984480000000 1.0
C      1  0.4705420000000  0.3968280000000  0.5059730000000 1.0
C      1  0.5013010000000  0.5341000000000  0.4026950000000 1.0
C      1  0.4905460000000  0.5074850000000  0.5942450000000 1.0
END
