TITL C-2778425-5191-111 0.00142318525158756 125000 -555.468213794077 0 0 95 (C1) n - 1
REM
REM in /home/nfs/bkarasulu/CARBON/AIRSS/Generating-Clusters/REBO/Only-C1/SD-CG/HFTN-CG
REM
REM
REM
REM
REM
REM ./C.cell (11c1c37f851c82e70ff6c80c92926a4b)
REM
REM compiler GCC version 9.2.1 20190827 (Red Hat 9.2.1-1)
REM options -cpp -mtune=generic -march=x86-64 -g -O0 -fpre-include=/usr/include/finclude/math-vector-fortran.h
REM seed 1668979522 656492031 120273531 880247674 909621641 -1456944638 -837577351 116481941 75086745 1027694668 -350860941 -310781738 2121548405 210767960 -1789889709 -867469412 -671222335 977110227 -491951587 -1865630916 -1128507340 -1959457122 1291880244 1848871014 -1863487660 -1500712938 968280073 754348060 -1190879446 1134627541 -1094634119 -527099148 -847473452
REM
CELL 1.54180   50.00000   50.00000   50.00000   90.00000   90.00000   90.00000
LATT -1
SFAC C  
C      1  0.5249640000000  0.4883320000000  0.4259170000000 1.0
C      1  0.4414380000000  0.4802000000000  0.4356430000000 1.0
C      1  0.5662950000000  0.5433560000000  0.5461800000000 1.0
C      1  0.5392530000000  0.4871670000000  0.4977520000000 1.0
C      1  0.4556040000000  0.4323090000000  0.4706070000000 1.0
C      1  0.5328230000000  0.4340130000000  0.5219030000000 1.0
C      1  0.5499290000000  0.5175380000000  0.4864410000000 1.0
C      1  0.5692770000000  0.4946670000000  0.5123420000000 1.0
C      1  0.5893260000000  0.4952420000000  0.4572930000000 1.0
C      1  0.4844150000000  0.5803090000000  0.4614420000000 1.0
C      1  0.4770590000000  0.4764000000000  0.5873770000000 1.0
C      1  0.4633140000000  0.4879820000000  0.5219330000000 1.0
C      1  0.4446900000000  0.4810620000000  0.4954710000000 1.0
C      1  0.5906650000000  0.4748170000000  0.4991050000000 1.0
C      1  0.4304140000000  0.5331380000000  0.5242380000000 1.0
C      1  0.5630720000000  0.5125290000000  0.4585650000000 1.0
C      1  0.4630030000000  0.4554780000000  0.4940780000000 1.0
C      1  0.4934940000000  0.5927490000000  0.5689540000000 1.0
C      1  0.4503320000000  0.4683780000000  0.5753110000000 1.0
C      1  0.5004620000000  0.4610970000000  0.4605970000000 1.0
C      1  0.5273550000000  0.5652030000000  0.5082150000000 1.0
C      1  0.4779740000000  0.5329710000000  0.4296520000000 1.0
C      1  0.4998850000000  0.5501850000000  0.5183560000000 1.0
C      1  0.4200750000000  0.4840400000000  0.5174400000000 1.0
C      1  0.4776290000000  0.4933730000000  0.4455240000000 1.0
C      1  0.4836100000000  0.4228180000000  0.4837790000000 1.0
C      1  0.4650800000000  0.5558360000000  0.4595360000000 1.0
C      1  0.5112530000000  0.4803790000000  0.4837160000000 1.0
C      1  0.5133630000000  0.5154250000000  0.5692090000000 1.0
C      1  0.5662820000000  0.5197770000000  0.5347760000000 1.0
C      1  0.5140230000000  0.5854190000000  0.4473750000000 1.0
C      1  0.4990500000000  0.4720040000000  0.4316770000000 1.0
C      1  0.4263800000000  0.4413860000000  0.4863450000000 1.0
C      1  0.4318140000000  0.5324060000000  0.4929510000000 1.0
C      1  0.5581840000000  0.4203340000000  0.5068780000000 1.0
C      1  0.5141500000000  0.4924600000000  0.5365080000000 1.0
C      1  0.4589820000000  0.5696550000000  0.5109360000000 1.0
C      1  0.5077650000000  0.5166810000000  0.4334600000000 1.0
C      1  0.4541430000000  0.5086390000000  0.5457820000000 1.0
C      1  0.5627720000000  0.5652680000000  0.4725660000000 1.0
C      1  0.5101600000000  0.5506550000000  0.4753860000000 1.0
C      1  0.5598260000000  0.4565390000000  0.4625530000000 1.0
C      1  0.4798360000000  0.4441900000000  0.5436310000000 1.0
C      1  0.5046280000000  0.5173240000000  0.5204180000000 1.0
C      1  0.5015270000000  0.4651060000000  0.5807200000000 1.0
C      1  0.4874000000000  0.5250310000000  0.5659660000000 1.0
C      1  0.4474770000000  0.5346070000000  0.4463010000000 1.0
C      1  0.5671810000000  0.4689160000000  0.5460130000000 1.0
C      1  0.4169980000000  0.5084310000000  0.5313050000000 1.0
C      1  0.5082790000000  0.4340150000000  0.4657530000000 1.0
C      1  0.5213640000000  0.5035660000000  0.4623220000000 1.0
C      1  0.5428940000000  0.5518530000000  0.4360680000000 1.0
C      1  0.4889580000000  0.5092520000000  0.4675210000000 1.0
C      1  0.4749770000000  0.5320940000000  0.4751280000000 1.0
C      1  0.4933200000000  0.4598950000000  0.4999250000000 1.0
C      1  0.4311600000000  0.5209390000000  0.4658290000000 1.0
C      1  0.4787600000000  0.4257230000000  0.5176880000000 1.0
C      1  0.5623170000000  0.5369400000000  0.4405990000000 1.0
C      1  0.5087290000000  0.4313600000000  0.5055940000000 1.0
C      1  0.4517160000000  0.4477260000000  0.5557370000000 1.0
C      1  0.4812700000000  0.5479370000000  0.5468040000000 1.0
C      1  0.5498280000000  0.4590570000000  0.5114970000000 1.0
C      1  0.4888030000000  0.4716070000000  0.5286870000000 1.0
C      1  0.5471300000000  0.4843770000000  0.4500650000000 1.0
C      1  0.4610810000000  0.5316250000000  0.4987770000000 1.0
C      1  0.4180130000000  0.4546780000000  0.5152070000000 1.0
C      1  0.5022690000000  0.4417000000000  0.5635530000000 1.0
C      1  0.4526030000000  0.5517580000000  0.5321640000000 1.0
C      1  0.5282600000000  0.4389670000000  0.5519560000000 1.0
C      1  0.5357770000000  0.4322170000000  0.4638960000000 1.0
C      1  0.4918210000000  0.5642740000000  0.4316900000000 1.0
C      1  0.4694180000000  0.4747890000000  0.4170630000000 1.0
C      1  0.4345570000000  0.4939390000000  0.5682990000000 1.0
C      1  0.5613810000000  0.4277620000000  0.4809240000000 1.0
C      1  0.4577990000000  0.5067410000000  0.4211400000000 1.0
C      1  0.5141120000000  0.5455790000000  0.4450030000000 1.0
C      1  0.5462350000000  0.4931820000000  0.5374950000000 1.0
C      1  0.4477880000000  0.4289300000000  0.5096640000000 1.0
C      1  0.5266240000000  0.5715940000000  0.5389050000000 1.0
C      1  0.5192410000000  0.5266720000000  0.4925910000000 1.0
C      1  0.5508600000000  0.5650870000000  0.5516870000000 1.0
C      1  0.5792200000000  0.4570730000000  0.5211190000000 1.0
C      1  0.4326670000000  0.4392400000000  0.5368650000000 1.0
C      1  0.5453170000000  0.5833070000000  0.4605910000000 1.0
C      1  0.4732960000000  0.5183330000000  0.5211970000000 1.0
C      1  0.5010990000000  0.5729480000000  0.5511880000000 1.0
C      1  0.4850210000000  0.5666490000000  0.4924440000000 1.0
C      1  0.5195530000000  0.5829270000000  0.4813210000000 1.0
C      1  0.4657170000000  0.5052530000000  0.5769890000000 1.0
C      1  0.5435460000000  0.4613410000000  0.5615120000000 1.0
C      1  0.5229940000000  0.4846620000000  0.5687550000000 1.0
C      1  0.5516000000000  0.5495620000000  0.4930500000000 1.0
C      1  0.4360430000000  0.4580790000000  0.4597300000000 1.0
C      1  0.5867250000000  0.4717760000000  0.4713190000000 1.0
C      1  0.4352270000000  0.4911970000000  0.4665640000000 1.0
END
