TITL C-2778424-3986-13 -0.00210781301635265 125000 -891.337050700585 0 0 155 (C1) n - 1
REM
REM in /home/nfs/bkarasulu/CARBON/AIRSS/Generating-Clusters/REBO/Only-C1/SD-CG/HFTN-CG
REM
REM
REM
REM
REM
REM ./C.cell (11c1c37f851c82e70ff6c80c92926a4b)
REM
REM compiler GCC version 9.2.1 20190827 (Red Hat 9.2.1-1)
REM options -cpp -mtune=generic -march=x86-64 -g -O0 -fpre-include=/usr/include/finclude/math-vector-fortran.h
REM seed -330717415 -602620411 180395354 -336283648 -494315366 -1988102928 -227008301 -1847437075 -671850787 -308164975 -1261643083 -1732956718 -1392699206 366397216 447514198 -978122620 -2069610026 -1172700992 -282514613 -428571987 1351026053 915498125 2029942465 1491248126 -947427333 -2061245278 1522146896 -823196041 -358648449 1212794155 864150557 -534446177 1949033825
REM
CELL 1.54180   50.00000   50.00000   50.00000   90.00000   90.00000   90.00000
LATT -1
SFAC C  
C      1  0.5199860000000  0.5802300000000  0.4246580000000 1.0
C      1  0.4542970000000  0.4925040000000  0.4894220000000 1.0
C      1  0.5251670000000  0.4926350000000  0.4315250000000 1.0
C      1  0.4971520000000  0.5733030000000  0.5967530000000 1.0
C      1  0.5618720000000  0.4107490000000  0.4956110000000 1.0
C      1  0.5034690000000  0.5529450000000  0.4183520000000 1.0
C      1  0.4520770000000  0.4257800000000  0.4955660000000 1.0
C      1  0.6046580000000  0.5136770000000  0.4544130000000 1.0
C      1  0.5572910000000  0.4933420000000  0.5902460000000 1.0
C      1  0.4639450000000  0.5523560000000  0.4203340000000 1.0
C      1  0.4810040000000  0.4592340000000  0.5156270000000 1.0
C      1  0.4335140000000  0.5240120000000  0.5516990000000 1.0
C      1  0.4638690000000  0.5240000000000  0.4883200000000 1.0
C      1  0.4484600000000  0.4692110000000  0.5110080000000 1.0
C      1  0.4810660000000  0.4781640000000  0.4022780000000 1.0
C      1  0.5472350000000  0.4682720000000  0.5266320000000 1.0
C      1  0.4161050000000  0.4589680000000  0.5338730000000 1.0
C      1  0.5630440000000  0.5130430000000  0.4169760000000 1.0
C      1  0.5487450000000  0.4292100000000  0.4439230000000 1.0
C      1  0.5080620000000  0.4582870000000  0.4081670000000 1.0
C      1  0.4876430000000  0.5875120000000  0.5589740000000 1.0
C      1  0.4677290000000  0.4487030000000  0.6035240000000 1.0
C      1  0.4218810000000  0.4891540000000  0.5329200000000 1.0
C      1  0.4719150000000  0.4492800000000  0.6287730000000 1.0
C      1  0.4557440000000  0.5745270000000  0.5006690000000 1.0
C      1  0.6007180000000  0.4986350000000  0.5049170000000 1.0
C      1  0.5337230000000  0.5554440000000  0.4104400000000 1.0
C      1  0.4467540000000  0.4443850000000  0.5780710000000 1.0
C      1  0.4195850000000  0.4742770000000  0.4942020000000 1.0
C      1  0.5618520000000  0.4389280000000  0.5372220000000 1.0
C      1  0.5729760000000  0.4709840000000  0.5773410000000 1.0
C      1  0.5248060000000  0.5009580000000  0.5510170000000 1.0
C      1  0.4817830000000  0.4792980000000  0.5568780000000 1.0
C      1  0.4588990000000  0.4060640000000  0.4698870000000 1.0
C      1  0.4682150000000  0.5835920000000  0.4774350000000 1.0
C      1  0.5600400000000  0.5203500000000  0.5611190000000 1.0
C      1  0.5648290000000  0.4856420000000  0.4822500000000 1.0
C      1  0.5233600000000  0.4817740000000  0.5063050000000 1.0
C      1  0.5067510000000  0.6108700000000  0.4956380000000 1.0
C      1  0.4945640000000  0.5726370000000  0.4580370000000 1.0
C      1  0.4782590000000  0.4193920000000  0.5175570000000 1.0
C      1  0.5612490000000  0.5017450000000  0.5099680000000 1.0
C      1  0.4943620000000  0.5177800000000  0.5400930000000 1.0
C      1  0.4428970000000  0.5480080000000  0.4031530000000 1.0
C      1  0.5598980000000  0.5591310000000  0.5513600000000 1.0
C      1  0.5407800000000  0.5471880000000  0.5185990000000 1.0
C      1  0.4950840000000  0.4677890000000  0.4378810000000 1.0
C      1  0.4819040000000  0.5238460000000  0.4593970000000 1.0
C      1  0.4967580000000  0.5016890000000  0.4170370000000 1.0
C      1  0.5404150000000  0.5030320000000  0.3736210000000 1.0
C      1  0.5978090000000  0.4722590000000  0.5204590000000 1.0
C      1  0.5431300000000  0.4783100000000  0.4569380000000 1.0
C      1  0.5315900000000  0.4581670000000  0.4821690000000 1.0
C      1  0.5684480000000  0.5600750000000  0.5030180000000 1.0
C      1  0.4847850000000  0.5282500000000  0.4275840000000 1.0
C      1  0.4369220000000  0.5604880000000  0.4486340000000 1.0
C      1  0.4364750000000  0.4844890000000  0.4266500000000 1.0
C      1  0.4037930000000  0.5344740000000  0.5420430000000 1.0
C      1  0.4539250000000  0.4611580000000  0.4138140000000 1.0
C      1  0.4500580000000  0.5065600000000  0.5309950000000 1.0
C      1  0.5836260000000  0.4359470000000  0.4882580000000 1.0
C      1  0.5292780000000  0.4458040000000  0.5783060000000 1.0
C      1  0.5747460000000  0.4768980000000  0.5381850000000 1.0
C      1  0.4058410000000  0.5195460000000  0.4888440000000 1.0
C      1  0.5306870000000  0.5901940000000  0.4524170000000 1.0
C      1  0.4944390000000  0.4783550000000  0.6060670000000 1.0
C      1  0.4706570000000  0.5311110000000  0.5878880000000 1.0
C      1  0.5567890000000  0.4489360000000  0.5675660000000 1.0
C      1  0.4784660000000  0.5066710000000  0.5680590000000 1.0
C      1  0.5849650000000  0.5154130000000  0.5302390000000 1.0
C      1  0.4877180000000  0.3949240000000  0.4680790000000 1.0
C      1  0.5481850000000  0.5606340000000  0.4548420000000 1.0
C      1  0.5746010000000  0.4710430000000  0.4460660000000 1.0
C      1  0.4799740000000  0.4430740000000  0.4209630000000 1.0
C      1  0.5542010000000  0.4340980000000  0.4734000000000 1.0
C      1  0.5595470000000  0.5917900000000  0.5058950000000 1.0
C      1  0.3868410000000  0.5051240000000  0.5049700000000 1.0
C      1  0.5208090000000  0.4226670000000  0.4432560000000 1.0
C      1  0.5098400000000  0.4760120000000  0.5372610000000 1.0
C      1  0.4660970000000  0.5718150000000  0.5496010000000 1.0
C      1  0.4217670000000  0.5589370000000  0.5365040000000 1.0
C      1  0.4928940000000  0.5506770000000  0.5816500000000 1.0
C      1  0.4137410000000  0.4933610000000  0.5717890000000 1.0
C      1  0.3874680000000  0.4892780000000  0.4327420000000 1.0
C      1  0.5026740000000  0.6051300000000  0.4647590000000 1.0
C      1  0.5470490000000  0.5787220000000  0.5308170000000 1.0
C      1  0.4675550000000  0.4877200000000  0.4402220000000 1.0
C      1  0.4794920000000  0.4517650000000  0.5723100000000 1.0
C      1  0.4206160000000  0.4977960000000  0.4704700000000 1.0
C      1  0.5822670000000  0.4987040000000  0.5597680000000 1.0
C      1  0.4432280000000  0.4492380000000  0.4441620000000 1.0
C      1  0.4069830000000  0.4380680000000  0.5194000000000 1.0
C      1  0.5106420000000  0.4279160000000  0.5652980000000 1.0
C      1  0.4396100000000  0.4406260000000  0.4674040000000 1.0
C      1  0.4694780000000  0.5317530000000  0.5187200000000 1.0
C      1  0.4709620000000  0.5750610000000  0.4345490000000 1.0
C      1  0.4426360000000  0.5379890000000  0.5799670000000 1.0
C      1  0.5157090000000  0.5781770000000  0.4911480000000 1.0
C      1  0.4539830000000  0.4643090000000  0.5442350000000 1.0
C      1  0.5168640000000  0.4704040000000  0.5899670000000 1.0
C      1  0.5451480000000  0.5181520000000  0.5319210000000 1.0
C      1  0.5302880000000  0.4430880000000  0.5131310000000 1.0
C      1  0.5835800000000  0.4990930000000  0.4354280000000 1.0
C      1  0.4804880000000  0.5009910000000  0.6002910000000 1.0
C      1  0.5069040000000  0.5910910000000  0.5382710000000 1.0
C      1  0.5136780000000  0.5262000000000  0.4669660000000 1.0
C      1  0.5569950000000  0.4519410000000  0.4284060000000 1.0
C      1  0.5721520000000  0.5568530000000  0.4732640000000 1.0
C      1  0.4912430000000  0.4378080000000  0.4932570000000 1.0
C      1  0.4577170000000  0.4217440000000  0.5579360000000 1.0
C      1  0.4887010000000  0.4927540000000  0.4898540000000 1.0
C      1  0.4791030000000  0.4458930000000  0.4668740000000 1.0
C      1  0.4273720000000  0.4663150000000  0.5651400000000 1.0
C      1  0.5978990000000  0.4892050000000  0.4735740000000 1.0
C      1  0.4703150000000  0.4742230000000  0.4683400000000 1.0
C      1  0.4954410000000  0.4453830000000  0.5424050000000 1.0
C      1  0.4717620000000  0.6037240000000  0.4503060000000 1.0
C      1  0.5376590000000  0.4684340000000  0.4117580000000 1.0
C      1  0.5933040000000  0.4572420000000  0.4679210000000 1.0
C      1  0.4479240000000  0.5106550000000  0.4544880000000 1.0
C      1  0.4427130000000  0.5408930000000  0.4672810000000 1.0
C      1  0.5095030000000  0.5406030000000  0.5612110000000 1.0
C      1  0.5870540000000  0.4450420000000  0.5174310000000 1.0
C      1  0.5024200000000  0.4057480000000  0.4896370000000 1.0
C      1  0.4292920000000  0.5628800000000  0.5083210000000 1.0
C      1  0.4136670000000  0.4905150000000  0.4411550000000 1.0
C      1  0.5784890000000  0.5454820000000  0.5315120000000 1.0
C      1  0.5101050000000  0.4475100000000  0.4593470000000 1.0
C      1  0.5308900000000  0.4940970000000  0.5798890000000 1.0
C      1  0.4739440000000  0.5615390000000  0.5216420000000 1.0
C      1  0.5120790000000  0.5328860000000  0.5152710000000 1.0
C      1  0.5378450000000  0.5418720000000  0.5637480000000 1.0
C      1  0.3942640000000  0.4779960000000  0.5063400000000 1.0
C      1  0.5651970000000  0.5113770000000  0.4604420000000 1.0
C      1  0.5138380000000  0.5111470000000  0.4934980000000 1.0
C      1  0.4789290000000  0.4932080000000  0.5202990000000 1.0
C      1  0.4226910000000  0.5132110000000  0.5885540000000 1.0
C      1  0.5804490000000  0.5213730000000  0.4894380000000 1.0
C      1  0.5509950000000  0.5399150000000  0.4294160000000 1.0
C      1  0.4217140000000  0.5423010000000  0.4901640000000 1.0
C      1  0.5954670000000  0.5394350000000  0.4658600000000 1.0
C      1  0.4518730000000  0.4338590000000  0.5288280000000 1.0
C      1  0.5000430000000  0.4033070000000  0.4412970000000 1.0
C      1  0.4837410000000  0.4131670000000  0.5629720000000 1.0
C      1  0.5187740000000  0.5557310000000  0.4684290000000 1.0
C      1  0.5483360000000  0.4960000000000  0.3991500000000 1.0
C      1  0.5458720000000  0.4147310000000  0.5221130000000 1.0
C      1  0.5072280000000  0.6154230000000  0.5226890000000 1.0
C      1  0.5055740000000  0.5659410000000  0.5172930000000 1.0
C      1  0.5416500000000  0.5978070000000  0.4838340000000 1.0
C      1  0.4726490000000  0.4221610000000  0.4432530000000 1.0
C      1  0.5121310000000  0.4158990000000  0.5191330000000 1.0
C      1  0.5361240000000  0.5166450000000  0.4484040000000 1.0
C      1  0.4411750000000  0.5625230000000  0.5579230000000 1.0
C      1  0.3993590000000  0.5045320000000  0.5466790000000 1.0
END
