TITL C-2778435-5768-1216 -0.00118504469286095 125000 -512.470410298903 0 0 89 (C1) n - 1
REM
REM in /home/nfs/bkarasulu/CARBON/AIRSS/Generating-Clusters/REBO/Only-C1/SD-CG/HFTN-CG
REM
REM
REM
REM
REM
REM ./C.cell (11c1c37f851c82e70ff6c80c92926a4b)
REM
REM compiler GCC version 9.2.1 20190827 (Red Hat 9.2.1-1)
REM options -cpp -mtune=generic -march=x86-64 -g -O0 -fpre-include=/usr/include/finclude/math-vector-fortran.h
REM seed -540193343 802483618 -860908627 -787592097 -1607868470 -216915349 752151537 288379759 1977810232 -450836897 -394884630 -365779346 -1410089303 -1375952989 -953017874 1083919094 805661291 571206080 -54080448 -1450423210 -380704573 514443366 1283579331 1875257959 -1998886018 -573608956 -17605065 639919959 -1117229529 95680695 562082710 1554588778 -1038430867
REM
CELL 1.54180   50.00000   50.00000   50.00000   90.00000   90.00000   90.00000
LATT -1
SFAC C  
C      1  0.5471610000000  0.4274990000000  0.4966200000000 1.0
C      1  0.6232620000000  0.4798760000000  0.4255570000000 1.0
C      1  0.5358990000000  0.4451320000000  0.5125840000000 1.0
C      1  0.4279200000000  0.5109750000000  0.4853780000000 1.0
C      1  0.5368820000000  0.4429250000000  0.4525600000000 1.0
C      1  0.4921030000000  0.4893430000000  0.4229020000000 1.0
C      1  0.4806910000000  0.5564730000000  0.5647580000000 1.0
C      1  0.5178510000000  0.5665520000000  0.5078160000000 1.0
C      1  0.4967470000000  0.5047140000000  0.5471610000000 1.0
C      1  0.5204060000000  0.4472050000000  0.4743730000000 1.0
C      1  0.5002840000000  0.4229740000000  0.4871910000000 1.0
C      1  0.4784780000000  0.4671680000000  0.4563530000000 1.0
C      1  0.4345720000000  0.5445560000000  0.5383750000000 1.0
C      1  0.5323970000000  0.5397800000000  0.5508390000000 1.0
C      1  0.4741780000000  0.4425560000000  0.4982290000000 1.0
C      1  0.4418190000000  0.5326530000000  0.4644010000000 1.0
C      1  0.4311950000000  0.5559650000000  0.5102990000000 1.0
C      1  0.5294240000000  0.4536830000000  0.4278150000000 1.0
C      1  0.5860620000000  0.5122780000000  0.4538120000000 1.0
C      1  0.5121720000000  0.4925350000000  0.5004520000000 1.0
C      1  0.4838460000000  0.4416270000000  0.4403560000000 1.0
C      1  0.5062970000000  0.4741970000000  0.4722100000000 1.0
C      1  0.4237950000000  0.4493400000000  0.4902390000000 1.0
C      1  0.4255790000000  0.4801050000000  0.4752830000000 1.0
C      1  0.5160600000000  0.5413280000000  0.4769820000000 1.0
C      1  0.4485020000000  0.4961200000000  0.5668380000000 1.0
C      1  0.5017940000000  0.4614790000000  0.4244670000000 1.0
C      1  0.5399730000000  0.4755890000000  0.5110700000000 1.0
C      1  0.5780080000000  0.4831680000000  0.5245330000000 1.0
C      1  0.4963750000000  0.4202460000000  0.5214770000000 1.0
C      1  0.5863390000000  0.4812580000000  0.4686000000000 1.0
C      1  0.4804580000000  0.4588460000000  0.5756930000000 1.0
C      1  0.5338990000000  0.5487860000000  0.4491590000000 1.0
C      1  0.5511980000000  0.5609590000000  0.5041970000000 1.0
C      1  0.4466600000000  0.4784090000000  0.4516850000000 1.0
C      1  0.5079620000000  0.5143140000000  0.4221960000000 1.0
C      1  0.5173380000000  0.3976600000000  0.4859260000000 1.0
C      1  0.4750870000000  0.4716670000000  0.5042960000000 1.0
C      1  0.4648700000000  0.4862750000000  0.4786820000000 1.0
C      1  0.4601830000000  0.5605580000000  0.5435890000000 1.0
C      1  0.5558460000000  0.5216590000000  0.5045700000000 1.0
C      1  0.5698860000000  0.5076860000000  0.4830440000000 1.0
C      1  0.5356790000000  0.5168390000000  0.4395390000000 1.0
C      1  0.4853510000000  0.4196220000000  0.4566850000000 1.0
C      1  0.4653550000000  0.4964940000000  0.4327530000000 1.0
C      1  0.5296980000000  0.4607780000000  0.5573590000000 1.0
C      1  0.5260050000000  0.5104290000000  0.5585780000000 1.0
C      1  0.4295140000000  0.5170350000000  0.5188480000000 1.0
C      1  0.5127210000000  0.5408330000000  0.5254070000000 1.0
C      1  0.4845020000000  0.5309710000000  0.5325510000000 1.0
C      1  0.5425110000000  0.4864290000000  0.5426200000000 1.0
C      1  0.4700130000000  0.5718870000000  0.5183330000000 1.0
C      1  0.4571680000000  0.5619170000000  0.4599640000000 1.0
C      1  0.4675680000000  0.5243550000000  0.5091930000000 1.0
C      1  0.4694810000000  0.5184180000000  0.5599510000000 1.0
C      1  0.5181930000000  0.4377320000000  0.5368250000000 1.0
C      1  0.5114440000000  0.4685840000000  0.5780280000000 1.0
C      1  0.5654060000000  0.5091540000000  0.5343870000000 1.0
C      1  0.5687770000000  0.4775220000000  0.4960990000000 1.0
C      1  0.5146560000000  0.5026330000000  0.4597210000000 1.0
C      1  0.4549460000000  0.4939680000000  0.5169120000000 1.0
C      1  0.4429200000000  0.4769340000000  0.5438240000000 1.0
C      1  0.4870600000000  0.5064380000000  0.5937630000000 1.0
C      1  0.4883430000000  0.5716440000000  0.4961490000000 1.0
C      1  0.4431610000000  0.4322180000000  0.5005650000000 1.0
C      1  0.5650630000000  0.5560520000000  0.4752670000000 1.0
C      1  0.5484500000000  0.5801440000000  0.4692180000000 1.0
C      1  0.5087040000000  0.5610060000000  0.5596230000000 1.0
C      1  0.4089680000000  0.4730820000000  0.5041820000000 1.0
C      1  0.4171020000000  0.4875480000000  0.5270290000000 1.0
C      1  0.4662560000000  0.5253780000000  0.4447140000000 1.0
C      1  0.5252700000000  0.5239930000000  0.5010640000000 1.0
C      1  0.4640250000000  0.4289210000000  0.5273450000000 1.0
C      1  0.5226270000000  0.5749940000000  0.4766690000000 1.0
C      1  0.6057280000000  0.4878440000000  0.4424350000000 1.0
C      1  0.4598140000000  0.4511220000000  0.5496600000000 1.0
C      1  0.4925300000000  0.4558380000000  0.5438950000000 1.0
C      1  0.5123400000000  0.4968360000000  0.5837640000000 1.0
C      1  0.5028340000000  0.5593920000000  0.4442200000000 1.0
C      1  0.4846270000000  0.5674440000000  0.4670140000000 1.0
C      1  0.4673960000000  0.4855840000000  0.5873330000000 1.0
C      1  0.4491720000000  0.5432770000000  0.4941690000000 1.0
C      1  0.4833270000000  0.5077450000000  0.4893090000000 1.0
C      1  0.5631940000000  0.5324030000000  0.4523840000000 1.0
C      1  0.5579640000000  0.5421810000000  0.5314410000000 1.0
C      1  0.4914870000000  0.5251760000000  0.4657850000000 1.0
C      1  0.4909680000000  0.5380880000000  0.4281160000000 1.0
C      1  0.4768020000000  0.5351010000000  0.5865790000000 1.0
C      1  0.4954200000000  0.4819040000000  0.5281620000000 1.0
END
