TITL C-2778435-5768-576 0.00030182394389707 125000 -490.997668535718 0 0 86 (C1) n - 1
REM
REM in /home/nfs/bkarasulu/CARBON/AIRSS/Generating-Clusters/REBO/Only-C1/SD-CG/HFTN-CG
REM
REM
REM
REM
REM
REM ./C.cell (11c1c37f851c82e70ff6c80c92926a4b)
REM
REM compiler GCC version 9.2.1 20190827 (Red Hat 9.2.1-1)
REM options -cpp -mtune=generic -march=x86-64 -g -O0 -fpre-include=/usr/include/finclude/math-vector-fortran.h
REM seed 692980777 1366150373 236151233 -585895453 373386550 1313796653 1610457968 -63196182 -875694817 -435906319 1425926008 -618265765 -1097684821 -1287470139 -48996301 178458171 972454496 932026041 910178536 2133212833 -2002565678 -2053940593 1901479454 1813909865 1013662471 -195266233 1521182086 -636454281 788346609 -1691931582 -738586363 897446325 1353949535
REM
CELL 1.54180   50.00000   50.00000   50.00000   90.00000   90.00000   90.00000
LATT -1
SFAC C  
C      1  0.5205090000000  0.4670020000000  0.5219270000000 1.0
C      1  0.4495170000000  0.5163900000000  0.4214140000000 1.0
C      1  0.4030030000000  0.4603430000000  0.4953750000000 1.0
C      1  0.5586920000000  0.4978770000000  0.4509980000000 1.0
C      1  0.4941330000000  0.4598010000000  0.6031540000000 1.0
C      1  0.4267890000000  0.4890750000000  0.5276750000000 1.0
C      1  0.4683940000000  0.5688550000000  0.5622280000000 1.0
C      1  0.4712360000000  0.4707930000000  0.4265080000000 1.0
C      1  0.4772220000000  0.4378500000000  0.5389360000000 1.0
C      1  0.5354390000000  0.5533800000000  0.5548160000000 1.0
C      1  0.4334930000000  0.5082410000000  0.4455860000000 1.0
C      1  0.4677670000000  0.5172250000000  0.5117970000000 1.0
C      1  0.5015390000000  0.4523160000000  0.4615100000000 1.0
C      1  0.4825840000000  0.5240390000000  0.4235780000000 1.0
C      1  0.4075550000000  0.4698830000000  0.5206190000000 1.0
C      1  0.4943740000000  0.4772100000000  0.4809130000000 1.0
C      1  0.4636400000000  0.4843490000000  0.4563520000000 1.0
C      1  0.5639800000000  0.4634510000000  0.5529290000000 1.0
C      1  0.4239800000000  0.5371970000000  0.5258520000000 1.0
C      1  0.5258190000000  0.5050540000000  0.4549690000000 1.0
C      1  0.5082540000000  0.4366950000000  0.5250870000000 1.0
C      1  0.4705500000000  0.5301730000000  0.5868740000000 1.0
C      1  0.5017030000000  0.5682090000000  0.5248830000000 1.0
C      1  0.5165330000000  0.4169340000000  0.4705680000000 1.0
C      1  0.4719550000000  0.5144890000000  0.4542100000000 1.0
C      1  0.4678940000000  0.4239270000000  0.5602060000000 1.0
C      1  0.5492990000000  0.4983170000000  0.5652500000000 1.0
C      1  0.5162760000000  0.4636540000000  0.4370180000000 1.0
C      1  0.5737630000000  0.4662020000000  0.4845730000000 1.0
C      1  0.5334360000000  0.5556520000000  0.4397960000000 1.0
C      1  0.5188120000000  0.5337630000000  0.5345760000000 1.0
C      1  0.5222190000000  0.5202810000000  0.4262870000000 1.0
C      1  0.4979270000000  0.5126230000000  0.5203680000000 1.0
C      1  0.4945730000000  0.5267770000000  0.5657620000000 1.0
C      1  0.5352180000000  0.4690060000000  0.5699050000000 1.0
C      1  0.5055460000000  0.4950500000000  0.5636330000000 1.0
C      1  0.4493320000000  0.4456130000000  0.4831500000000 1.0
C      1  0.5555210000000  0.5498350000000  0.4642730000000 1.0
C      1  0.4993380000000  0.5046320000000  0.4702480000000 1.0
C      1  0.5357390000000  0.5686210000000  0.5247190000000 1.0
C      1  0.5023920000000  0.5021880000000  0.4095350000000 1.0
C      1  0.5673000000000  0.5372630000000  0.4934930000000 1.0
C      1  0.5000070000000  0.4849410000000  0.5350620000000 1.0
C      1  0.5419800000000  0.4724610000000  0.4387020000000 1.0
C      1  0.5254900000000  0.5203720000000  0.5750980000000 1.0
C      1  0.4738760000000  0.4695720000000  0.5306800000000 1.0
C      1  0.5432340000000  0.5615070000000  0.4922510000000 1.0
C      1  0.5031010000000  0.5437120000000  0.4424140000000 1.0
C      1  0.4896730000000  0.5553840000000  0.5497270000000 1.0
C      1  0.5316530000000  0.5064370000000  0.5238310000000 1.0
C      1  0.4555750000000  0.5776070000000  0.4858030000000 1.0
C      1  0.4512060000000  0.4547270000000  0.4442480000000 1.0
C      1  0.5768750000000  0.4923370000000  0.4738210000000 1.0
C      1  0.4826180000000  0.5433410000000  0.5001080000000 1.0
C      1  0.5777080000000  0.4939310000000  0.5470290000000 1.0
C      1  0.4440240000000  0.5516190000000  0.4817510000000 1.0
C      1  0.4990130000000  0.5372370000000  0.4723930000000 1.0
C      1  0.4238270000000  0.4854980000000  0.4586470000000 1.0
C      1  0.4548040000000  0.4885610000000  0.5148110000000 1.0
C      1  0.5584430000000  0.5431730000000  0.5239800000000 1.0
C      1  0.5550490000000  0.5265780000000  0.5491520000000 1.0
C      1  0.4866470000000  0.4231980000000  0.4564660000000 1.0
C      1  0.4488340000000  0.5560530000000  0.4338990000000 1.0
C      1  0.5901950000000  0.5033370000000  0.5185100000000 1.0
C      1  0.4986650000000  0.4351140000000  0.4923520000000 1.0
C      1  0.4977550000000  0.4754290000000  0.4184210000000 1.0
C      1  0.5367850000000  0.5461370000000  0.5869980000000 1.0
C      1  0.5534010000000  0.5278440000000  0.4384260000000 1.0
C      1  0.4629060000000  0.4750280000000  0.4876620000000 1.0
C      1  0.5237220000000  0.4656180000000  0.4915450000000 1.0
C      1  0.5530770000000  0.4901260000000  0.5253070000000 1.0
C      1  0.5078000000000  0.4711350000000  0.5844300000000 1.0
C      1  0.4233000000000  0.4628240000000  0.4758890000000 1.0
C      1  0.5126520000000  0.5578120000000  0.4942510000000 1.0
C      1  0.5352040000000  0.4480890000000  0.5430960000000 1.0
C      1  0.4713960000000  0.4409620000000  0.5065370000000 1.0
C      1  0.4480220000000  0.5374870000000  0.4553140000000 1.0
C      1  0.4180540000000  0.5136090000000  0.5386350000000 1.0
C      1  0.4589360000000  0.4291120000000  0.4574480000000 1.0
C      1  0.5615710000000  0.4679300000000  0.5101390000000 1.0
C      1  0.5823500000000  0.5117020000000  0.4934950000000 1.0
C      1  0.4572760000000  0.5544170000000  0.5833920000000 1.0
C      1  0.5627310000000  0.4442500000000  0.4705010000000 1.0
C      1  0.4435560000000  0.5368110000000  0.5056490000000 1.0
C      1  0.5356340000000  0.4405180000000  0.4782120000000 1.0
C      1  0.4781310000000  0.5762260000000  0.5023710000000 1.0
END
