TITL C-2778430-5657-99 -0.00426009902913607 125000 -817.830268130017 0 0 140 (C1) n - 1
REM
REM in /home/nfs/bkarasulu/CARBON/AIRSS/Generating-Clusters/REBO/Only-C1/SD-CG/HFTN-CG
REM
REM
REM
REM
REM
REM ./C.cell (11c1c37f851c82e70ff6c80c92926a4b)
REM
REM compiler GCC version 9.2.1 20190827 (Red Hat 9.2.1-1)
REM options -cpp -mtune=generic -march=x86-64 -g -O0 -fpre-include=/usr/include/finclude/math-vector-fortran.h
REM seed 1696301193 -926614685 2008084606 842046738 -821278987 -1612864020 1383189935 366108118 -774459371 2106083430 466789024 1798276310 1778368791 95938346 806838953 246907349 747480955 -1473198535 1868730470 -1836261101 923625082 1555659499 -1610756628 -1248772929 84311930 -413899217 358708720 -905966518 -1231838412 1184286947 -1868526300 -1750664727 287951280
REM
CELL 1.54180   50.00000   50.00000   50.00000   90.00000   90.00000   90.00000
LATT -1
SFAC C  
C      1  0.5697580000000  0.5497860000000  0.4735790000000 1.0
C      1  0.4100540000000  0.5316310000000  0.5082300000000 1.0
C      1  0.5204110000000  0.5722370000000  0.4301160000000 1.0
C      1  0.4514720000000  0.4695170000000  0.5230910000000 1.0
C      1  0.5818170000000  0.5483410000000  0.5238670000000 1.0
C      1  0.4666780000000  0.4987410000000  0.5782360000000 1.0
C      1  0.4804210000000  0.4910250000000  0.4418150000000 1.0
C      1  0.4846280000000  0.5935220000000  0.5303560000000 1.0
C      1  0.4363590000000  0.5106450000000  0.5735800000000 1.0
C      1  0.4078820000000  0.4651240000000  0.5188020000000 1.0
C      1  0.4221880000000  0.4994560000000  0.4515320000000 1.0
C      1  0.4785940000000  0.5887580000000  0.4966010000000 1.0
C      1  0.4882220000000  0.4868620000000  0.5929820000000 1.0
C      1  0.5894000000000  0.5218640000000  0.4529620000000 1.0
C      1  0.6000950000000  0.4893180000000  0.5175650000000 1.0
C      1  0.3888100000000  0.4959030000000  0.5724330000000 1.0
C      1  0.5106820000000  0.5923830000000  0.5078120000000 1.0
C      1  0.4466690000000  0.5426520000000  0.5195790000000 1.0
C      1  0.4486990000000  0.5036510000000  0.4059800000000 1.0
C      1  0.4992530000000  0.5773020000000  0.4728450000000 1.0
C      1  0.4711920000000  0.4520530000000  0.4137170000000 1.0
C      1  0.5259920000000  0.5855470000000  0.4717250000000 1.0
C      1  0.4840670000000  0.4787230000000  0.5197210000000 1.0
C      1  0.4363620000000  0.5567220000000  0.4646100000000 1.0
C      1  0.3962140000000  0.4806120000000  0.4976380000000 1.0
C      1  0.5123500000000  0.5018780000000  0.4418990000000 1.0
C      1  0.5819570000000  0.5047440000000  0.4992630000000 1.0
C      1  0.5518010000000  0.5783360000000  0.5542930000000 1.0
C      1  0.5708250000000  0.5470080000000  0.4394760000000 1.0
C      1  0.5829070000000  0.5323380000000  0.4973190000000 1.0
C      1  0.5875870000000  0.5329530000000  0.5484230000000 1.0
C      1  0.4546600000000  0.4613830000000  0.4344270000000 1.0
C      1  0.4728050000000  0.5423170000000  0.4262810000000 1.0
C      1  0.5500580000000  0.4689560000000  0.4225480000000 1.0
C      1  0.5377240000000  0.5699880000000  0.5267050000000 1.0
C      1  0.5059320000000  0.5149920000000  0.5696400000000 1.0
C      1  0.5125940000000  0.5022400000000  0.4751320000000 1.0
C      1  0.4288730000000  0.4334650000000  0.5834230000000 1.0
C      1  0.5570190000000  0.5574140000000  0.5776380000000 1.0
C      1  0.5345580000000  0.5027260000000  0.5585070000000 1.0
C      1  0.5692370000000  0.4904170000000  0.5428930000000 1.0
C      1  0.4380600000000  0.4969830000000  0.4881080000000 1.0
C      1  0.5013790000000  0.4719840000000  0.4863940000000 1.0
C      1  0.4909390000000  0.5236130000000  0.4088740000000 1.0
C      1  0.5229750000000  0.4421150000000  0.4345090000000 1.0
C      1  0.5429120000000  0.5880490000000  0.4998580000000 1.0
C      1  0.4358380000000  0.4240990000000  0.4756130000000 1.0
C      1  0.5384760000000  0.4908820000000  0.5965030000000 1.0
C      1  0.4823030000000  0.4174940000000  0.5480540000000 1.0
C      1  0.5674620000000  0.4644730000000  0.5532360000000 1.0
C      1  0.5520840000000  0.4457450000000  0.4402550000000 1.0
C      1  0.4467150000000  0.4913480000000  0.4346080000000 1.0
C      1  0.4053940000000  0.4817020000000  0.4676430000000 1.0
C      1  0.5251530000000  0.5667090000000  0.5724210000000 1.0
C      1  0.4833530000000  0.4730080000000  0.3975140000000 1.0
C      1  0.4117650000000  0.5426050000000  0.4823620000000 1.0
C      1  0.5027020000000  0.5437960000000  0.5700770000000 1.0
C      1  0.5426840000000  0.5139690000000  0.3979590000000 1.0
C      1  0.4714080000000  0.5208110000000  0.4526450000000 1.0
C      1  0.5090640000000  0.5194810000000  0.5221400000000 1.0
C      1  0.4774830000000  0.5551040000000  0.5834590000000 1.0
C      1  0.4855150000000  0.4173450000000  0.4512710000000 1.0
C      1  0.5821970000000  0.4682210000000  0.4731310000000 1.0
C      1  0.4695080000000  0.4417920000000  0.5190170000000 1.0
C      1  0.5009350000000  0.4491390000000  0.5215850000000 1.0
C      1  0.5672640000000  0.4197760000000  0.4800630000000 1.0
C      1  0.4603630000000  0.5678540000000  0.4452530000000 1.0
C      1  0.4484540000000  0.4500370000000  0.4585130000000 1.0
C      1  0.4223340000000  0.5262680000000  0.4581450000000 1.0
C      1  0.5646030000000  0.5386980000000  0.4070280000000 1.0
C      1  0.5087250000000  0.4189070000000  0.4277500000000 1.0
C      1  0.4449340000000  0.5365160000000  0.5531020000000 1.0
C      1  0.5124200000000  0.5037960000000  0.5992480000000 1.0
C      1  0.4386880000000  0.5742580000000  0.5278560000000 1.0
C      1  0.4579150000000  0.5616120000000  0.5657110000000 1.0
C      1  0.5301580000000  0.4527660000000  0.5340160000000 1.0
C      1  0.4595920000000  0.5830620000000  0.5456390000000 1.0
C      1  0.5212670000000  0.5332280000000  0.4866560000000 1.0
C      1  0.4794240000000  0.4251880000000  0.4186920000000 1.0
C      1  0.5029110000000  0.5557830000000  0.5411970000000 1.0
C      1  0.4636040000000  0.5088960000000  0.5458210000000 1.0
C      1  0.5682960000000  0.5685540000000  0.5011470000000 1.0
C      1  0.5467210000000  0.5109310000000  0.5308410000000 1.0
C      1  0.4149280000000  0.4620280000000  0.5469090000000 1.0
C      1  0.5348650000000  0.5399730000000  0.5173230000000 1.0
C      1  0.5253500000000  0.4726770000000  0.5561470000000 1.0
C      1  0.5562330000000  0.4071270000000  0.5273990000000 1.0
C      1  0.4988040000000  0.4613740000000  0.5838310000000 1.0
C      1  0.5286630000000  0.4524970000000  0.4932520000000 1.0
C      1  0.5289020000000  0.4674450000000  0.4645640000000 1.0
C      1  0.4508260000000  0.4241950000000  0.5396840000000 1.0
C      1  0.5319540000000  0.4882750000000  0.4176540000000 1.0
C      1  0.5517250000000  0.5091300000000  0.4493200000000 1.0
C      1  0.4146060000000  0.5527230000000  0.5295570000000 1.0
C      1  0.4141200000000  0.4902600000000  0.5623610000000 1.0
C      1  0.5067340000000  0.4168330000000  0.5498830000000 1.0
C      1  0.4143910000000  0.4505740000000  0.4787700000000 1.0
C      1  0.4666180000000  0.5298970000000  0.5021920000000 1.0
C      1  0.5251750000000  0.4006920000000  0.4925260000000 1.0
C      1  0.5859060000000  0.4653430000000  0.5047200000000 1.0
C      1  0.5525290000000  0.4042310000000  0.4990410000000 1.0
C      1  0.5525010000000  0.4454610000000  0.5663190000000 1.0
C      1  0.4978540000000  0.4887710000000  0.5495430000000 1.0
C      1  0.5087440000000  0.4279540000000  0.4988320000000 1.0
C      1  0.4860880000000  0.4453820000000  0.4708870000000 1.0
C      1  0.5960490000000  0.5049790000000  0.5435790000000 1.0
C      1  0.4419720000000  0.4713050000000  0.4792160000000 1.0
C      1  0.4373220000000  0.6092180000000  0.4729780000000 1.0
C      1  0.5903630000000  0.4984080000000  0.4606920000000 1.0
C      1  0.4928110000000  0.5682530000000  0.4347390000000 1.0
C      1  0.4421650000000  0.4151470000000  0.5080420000000 1.0
C      1  0.5692540000000  0.4416360000000  0.4620930000000 1.0
C      1  0.4901790000000  0.5471680000000  0.4615400000000 1.0
C      1  0.5368070000000  0.5486880000000  0.4339160000000 1.0
C      1  0.5009100000000  0.5609230000000  0.5145010000000 1.0
C      1  0.4234940000000  0.5063940000000  0.5113580000000 1.0
C      1  0.4359840000000  0.4941610000000  0.5365370000000 1.0
C      1  0.5420270000000  0.5360420000000  0.4643550000000 1.0
C      1  0.5383860000000  0.4238080000000  0.5468780000000 1.0
C      1  0.4553710000000  0.5163250000000  0.4783110000000 1.0
C      1  0.4660990000000  0.4315870000000  0.4892200000000 1.0
C      1  0.5006230000000  0.4642360000000  0.4473230000000 1.0
C      1  0.5575270000000  0.5090030000000  0.5803360000000 1.0
C      1  0.4811690000000  0.5111960000000  0.5212020000000 1.0
C      1  0.5640780000000  0.5108570000000  0.4240980000000 1.0
C      1  0.4544060000000  0.5837850000000  0.4748300000000 1.0
C      1  0.4765620000000  0.5013630000000  0.3981680000000 1.0
C      1  0.5209050000000  0.5260520000000  0.4194920000000 1.0
C      1  0.5532000000000  0.4841410000000  0.4643370000000 1.0
C      1  0.5529900000000  0.4613880000000  0.5124640000000 1.0
C      1  0.4303810000000  0.4399370000000  0.5563940000000 1.0
C      1  0.4889730000000  0.4561220000000  0.5571950000000 1.0
C      1  0.5316660000000  0.4600470000000  0.5865730000000 1.0
C      1  0.5565320000000  0.4900330000000  0.4945750000000 1.0
C      1  0.4970930000000  0.4057350000000  0.4772910000000 1.0
C      1  0.5140400000000  0.5861750000000  0.5465930000000 1.0
C      1  0.5285320000000  0.4990390000000  0.5051180000000 1.0
C      1  0.5711220000000  0.5336510000000  0.5729950000000 1.0
C      1  0.4313130000000  0.4464140000000  0.5082350000000 1.0
C      1  0.4913940000000  0.5438170000000  0.4929540000000 1.0
END
