TITL C-2778426-5645-138 -0.00575419294082235 125000 -930.986242536166 0 0 159 (C1) n - 1
REM
REM in /home/nfs/bkarasulu/CARBON/AIRSS/Generating-Clusters/REBO/Only-C1/SD-CG/HFTN-CG
REM
REM
REM
REM
REM
REM ./C.cell (11c1c37f851c82e70ff6c80c92926a4b)
REM
REM compiler GCC version 9.2.1 20190827 (Red Hat 9.2.1-1)
REM options -cpp -mtune=generic -march=x86-64 -g -O0 -fpre-include=/usr/include/finclude/math-vector-fortran.h
REM seed -99874912 1569346381 150564 -495178495 -826707909 1245120091 -682486261 1571411343 -224523620 550979865 1427435932 -962319197 1589358330 -322218683 -1809911006 -1650976266 -1452383471 -1207457200 1567773310 -1363835874 223860700 1286808937 -525172384 -1343700663 451323888 1472364794 -568451233 1808126958 -980854906 1491960643 -1483606522 -1223636739 -1235675207
REM
CELL 1.54180   50.00000   50.00000   50.00000   90.00000   90.00000   90.00000
LATT -1
SFAC C  
C      1  0.5646280000000  0.5253370000000  0.4391740000000 1.0
C      1  0.5203130000000  0.4383080000000  0.4122710000000 1.0
C      1  0.5350770000000  0.4833090000000  0.6012910000000 1.0
C      1  0.5421250000000  0.5782340000000  0.5717270000000 1.0
C      1  0.5402010000000  0.4473660000000  0.5135840000000 1.0
C      1  0.5399460000000  0.4833370000000  0.4000070000000 1.0
C      1  0.5440340000000  0.5959080000000  0.4641240000000 1.0
C      1  0.5112010000000  0.4411010000000  0.5451700000000 1.0
C      1  0.5378200000000  0.4984780000000  0.4528840000000 1.0
C      1  0.5143560000000  0.5511690000000  0.4460780000000 1.0
C      1  0.5488530000000  0.4821270000000  0.4966920000000 1.0
C      1  0.4390990000000  0.4274930000000  0.4538930000000 1.0
C      1  0.4137910000000  0.5268570000000  0.5534590000000 1.0
C      1  0.4858030000000  0.6020390000000  0.5295740000000 1.0
C      1  0.5217330000000  0.5123950000000  0.5132350000000 1.0
C      1  0.4671860000000  0.5690990000000  0.5171620000000 1.0
C      1  0.4184670000000  0.4668670000000  0.5475670000000 1.0
C      1  0.5550090000000  0.4708170000000  0.4486980000000 1.0
C      1  0.4219550000000  0.5662800000000  0.5267790000000 1.0
C      1  0.4926950000000  0.4604190000000  0.5645860000000 1.0
C      1  0.5253280000000  0.5539720000000  0.4161770000000 1.0
C      1  0.5509690000000  0.5214170000000  0.4699230000000 1.0
C      1  0.5427970000000  0.4128530000000  0.4579930000000 1.0
C      1  0.5042250000000  0.5495670000000  0.3976100000000 1.0
C      1  0.4575110000000  0.4888960000000  0.5350020000000 1.0
C      1  0.5386200000000  0.6066390000000  0.5162960000000 1.0
C      1  0.4404110000000  0.5162690000000  0.4501170000000 1.0
C      1  0.4555600000000  0.5281420000000  0.4737550000000 1.0
C      1  0.4183280000000  0.4733160000000  0.4464560000000 1.0
C      1  0.4178390000000  0.4819190000000  0.4943210000000 1.0
C      1  0.5186410000000  0.5300220000000  0.5881920000000 1.0
C      1  0.5541600000000  0.5141440000000  0.5018410000000 1.0
C      1  0.5085900000000  0.5414530000000  0.5514250000000 1.0
C      1  0.5723940000000  0.4368560000000  0.4924250000000 1.0
C      1  0.4618280000000  0.4016030000000  0.5045570000000 1.0
C      1  0.4913170000000  0.4392200000000  0.4289250000000 1.0
C      1  0.4644130000000  0.5495680000000  0.5376620000000 1.0
C      1  0.5606500000000  0.5894010000000  0.5232830000000 1.0
C      1  0.4408120000000  0.4866910000000  0.5632610000000 1.0
C      1  0.5262440000000  0.4930260000000  0.5411080000000 1.0
C      1  0.5947100000000  0.4625140000000  0.5180620000000 1.0
C      1  0.4302270000000  0.5086590000000  0.5297250000000 1.0
C      1  0.4653330000000  0.4226920000000  0.4715470000000 1.0
C      1  0.5198480000000  0.3988740000000  0.4482790000000 1.0
C      1  0.4993710000000  0.5722710000000  0.5404840000000 1.0
C      1  0.5394390000000  0.4227970000000  0.5674960000000 1.0
C      1  0.5844610000000  0.5016710000000  0.5434450000000 1.0
C      1  0.5089280000000  0.4110890000000  0.4250420000000 1.0
C      1  0.5128000000000  0.5823480000000  0.4596430000000 1.0
C      1  0.4981080000000  0.4400550000000  0.4864040000000 1.0
C      1  0.5131120000000  0.5027860000000  0.3938850000000 1.0
C      1  0.5241080000000  0.4273320000000  0.4953280000000 1.0
C      1  0.5256220000000  0.5103850000000  0.4245910000000 1.0
C      1  0.4694700000000  0.4593140000000  0.5270030000000 1.0
C      1  0.4853960000000  0.5833880000000  0.5695960000000 1.0
C      1  0.5655610000000  0.5091520000000  0.5677360000000 1.0
C      1  0.5095570000000  0.5288580000000  0.3787860000000 1.0
C      1  0.4948570000000  0.4867720000000  0.4396860000000 1.0
C      1  0.4698580000000  0.4323180000000  0.5478970000000 1.0
C      1  0.4578020000000  0.5311070000000  0.5860680000000 1.0
C      1  0.5104300000000  0.4178220000000  0.5775820000000 1.0
C      1  0.4235210000000  0.4375760000000  0.4893050000000 1.0
C      1  0.5794060000000  0.4587880000000  0.5687800000000 1.0
C      1  0.5649340000000  0.4837860000000  0.5856740000000 1.0
C      1  0.4996840000000  0.6085340000000  0.5571900000000 1.0
C      1  0.5489240000000  0.5461710000000  0.5091390000000 1.0
C      1  0.5313330000000  0.4607530000000  0.5547640000000 1.0
C      1  0.4252720000000  0.5359670000000  0.4331550000000 1.0
C      1  0.4416520000000  0.5743110000000  0.5054500000000 1.0
C      1  0.5672120000000  0.5674370000000  0.5051320000000 1.0
C      1  0.4872170000000  0.4857090000000  0.4004600000000 1.0
C      1  0.4852520000000  0.5334540000000  0.4716130000000 1.0
C      1  0.4679900000000  0.5196170000000  0.5244520000000 1.0
C      1  0.5011310000000  0.3861510000000  0.4654540000000 1.0
C      1  0.4521710000000  0.5273070000000  0.4137930000000 1.0
C      1  0.4753720000000  0.4574980000000  0.4106090000000 1.0
C      1  0.5115090000000  0.4905320000000  0.4685050000000 1.0
C      1  0.4948430000000  0.4503960000000  0.4564010000000 1.0
C      1  0.4030570000000  0.4805870000000  0.5220550000000 1.0
C      1  0.4414620000000  0.5669720000000  0.4779720000000 1.0
C      1  0.4696360000000  0.4349230000000  0.5031210000000 1.0
C      1  0.5586120000000  0.4839340000000  0.5374830000000 1.0
C      1  0.5242090000000  0.4129130000000  0.5404000000000 1.0
C      1  0.4787970000000  0.4877910000000  0.4911360000000 1.0
C      1  0.4416150000000  0.4524690000000  0.5671790000000 1.0
C      1  0.4091650000000  0.5277300000000  0.4984770000000 1.0
C      1  0.5910240000000  0.4820680000000  0.4701340000000 1.0
C      1  0.4786290000000  0.5480040000000  0.4089540000000 1.0
C      1  0.4445230000000  0.4563700000000  0.4714280000000 1.0
C      1  0.5891240000000  0.5146100000000  0.4602270000000 1.0
C      1  0.4623240000000  0.5522300000000  0.4357320000000 1.0
C      1  0.5214220000000  0.4724660000000  0.5141570000000 1.0
C      1  0.4820920000000  0.6084070000000  0.5030580000000 1.0
C      1  0.5224930000000  0.6152550000000  0.5382760000000 1.0
C      1  0.5805030000000  0.4888000000000  0.4394390000000 1.0
C      1  0.4427450000000  0.5220970000000  0.5015310000000 1.0
C      1  0.4465590000000  0.4606770000000  0.4132890000000 1.0
C      1  0.4017240000000  0.5422390000000  0.5251680000000 1.0
C      1  0.4012720000000  0.5430370000000  0.4490340000000 1.0
C      1  0.5414820000000  0.4604470000000  0.5806070000000 1.0
C      1  0.5188070000000  0.5500300000000  0.5005900000000 1.0
C      1  0.4565190000000  0.4937290000000  0.4097170000000 1.0
C      1  0.4390030000000  0.5576470000000  0.5494760000000 1.0
C      1  0.5687120000000  0.4646040000000  0.4857170000000 1.0
C      1  0.5001240000000  0.5110000000000  0.4886890000000 1.0
C      1  0.5780970000000  0.4207090000000  0.5391000000000 1.0
C      1  0.5890820000000  0.5594140000000  0.4884310000000 1.0
C      1  0.4378250000000  0.4329510000000  0.5396360000000 1.0
C      1  0.4695230000000  0.4575030000000  0.5814010000000 1.0
C      1  0.4727370000000  0.4728950000000  0.4618320000000 1.0
C      1  0.5869630000000  0.5147720000000  0.5121040000000 1.0
C      1  0.5663740000000  0.4171370000000  0.5132220000000 1.0
C      1  0.4848440000000  0.4207720000000  0.5671140000000 1.0
C      1  0.4312980000000  0.4509160000000  0.4340910000000 1.0
C      1  0.4894530000000  0.5366020000000  0.5780790000000 1.0
C      1  0.3956050000000  0.5089550000000  0.5309630000000 1.0
C      1  0.4235720000000  0.4047520000000  0.4508420000000 1.0
C      1  0.4235330000000  0.5435130000000  0.4737460000000 1.0
C      1  0.5664010000000  0.4335130000000  0.5623330000000 1.0
C      1  0.5948430000000  0.4708210000000  0.5477800000000 1.0
C      1  0.3997170000000  0.4276590000000  0.4732920000000 1.0
C      1  0.5907730000000  0.5429650000000  0.5309820000000 1.0
C      1  0.5518690000000  0.5528130000000  0.4312580000000 1.0
C      1  0.5993820000000  0.4852610000000  0.5006050000000 1.0
C      1  0.5000490000000  0.5203090000000  0.4444720000000 1.0
C      1  0.5037700000000  0.4872800000000  0.5661650000000 1.0
C      1  0.5132370000000  0.4700730000000  0.4163250000000 1.0
C      1  0.5483560000000  0.4390160000000  0.4580510000000 1.0
C      1  0.5666230000000  0.5394570000000  0.5738650000000 1.0
C      1  0.5628490000000  0.5804990000000  0.5506890000000 1.0
C      1  0.4981090000000  0.5332620000000  0.5219910000000 1.0
C      1  0.4940410000000  0.4658960000000  0.5063420000000 1.0
C      1  0.4359100000000  0.4158340000000  0.5118220000000 1.0
C      1  0.4666640000000  0.4797680000000  0.5998720000000 1.0
C      1  0.5001950000000  0.6040290000000  0.4827320000000 1.0
C      1  0.4634350000000  0.5650350000000  0.4604950000000 1.0
C      1  0.4394140000000  0.4917090000000  0.4374720000000 1.0
C      1  0.5139770000000  0.4989170000000  0.5906970000000 1.0
C      1  0.4039840000000  0.4769760000000  0.4702500000000 1.0
C      1  0.4532220000000  0.5010260000000  0.5876310000000 1.0
C      1  0.5583850000000  0.5010830000000  0.4187580000000 1.0
C      1  0.4955010000000  0.5708970000000  0.5065590000000 1.0
C      1  0.5245850000000  0.4617020000000  0.4610760000000 1.0
C      1  0.5377760000000  0.4078140000000  0.5145690000000 1.0
C      1  0.5423350000000  0.5514320000000  0.5836490000000 1.0
C      1  0.4914740000000  0.5650790000000  0.4756680000000 1.0
C      1  0.5345420000000  0.5206520000000  0.5593940000000 1.0
C      1  0.5331270000000  0.5469640000000  0.4725490000000 1.0
C      1  0.4773500000000  0.3939600000000  0.4779950000000 1.0
C      1  0.4718620000000  0.5626310000000  0.5833190000000 1.0
C      1  0.5297060000000  0.6060240000000  0.4887050000000 1.0
C      1  0.5500210000000  0.5685760000000  0.4557110000000 1.0
C      1  0.4174550000000  0.4500040000000  0.5183360000000 1.0
C      1  0.4319070000000  0.5421500000000  0.5730530000000 1.0
C      1  0.5786870000000  0.5557350000000  0.5532930000000 1.0
C      1  0.3870520000000  0.5285910000000  0.4725330000000 1.0
C      1  0.5643440000000  0.4585400000000  0.5250040000000 1.0
C      1  0.5939400000000  0.5324850000000  0.4843000000000 1.0
C      1  0.4472450000000  0.4835290000000  0.4903570000000 1.0
END
