TITL C-2778427-5640-1208 4.37926681713422e-07 125000 -192.339621594477 0 0 34 (C1) n - 1
REM
REM in /home/nfs/bkarasulu/CARBON/AIRSS/Generating-Clusters/REBO/Only-C1/SD-CG/HFTN-CG
REM
REM
REM
REM
REM
REM ./C.cell (11c1c37f851c82e70ff6c80c92926a4b)
REM
REM compiler GCC version 9.2.1 20190827 (Red Hat 9.2.1-1)
REM options -cpp -mtune=generic -march=x86-64 -g -O0 -fpre-include=/usr/include/finclude/math-vector-fortran.h
REM seed 1340747755 -1424764466 37810570 1797396833 -1736753218 1886582450 983345411 1017950322 -131631881 -1975210183 1776029030 1472152971 -1404088379 -2003854509 1764753674 -1846667143 -231312654 935573168 2109499333 878152693 -1568497181 -1519582101 214135233 -267970228 959946446 -333506695 1074101939 233131788 1828975282 1633912156 -2031689736 -1168485622 188984326
REM
CELL 1.54180   50.00000   50.00000   50.00000   90.00000   90.00000   90.00000
LATT -1
SFAC C  
C      1  0.5288480000000  0.3751720000000  0.5347550000000 1.0
C      1  0.6346120000000  0.5455850000000  0.5868690000000 1.0
C      1  0.4169970000000  0.4666200000000  0.4937550000000 1.0
C      1  0.5190870000000  0.5505810000000  0.4943360000000 1.0
C      1  0.5492420000000  0.4801980000000  0.5221880000000 1.0
C      1  0.4305110000000  0.5297660000000  0.4666460000000 1.0
C      1  0.6169190000000  0.5363120000000  0.5699040000000 1.0
C      1  0.4092030000000  0.4902470000000  0.4841740000000 1.0
C      1  0.5037510000000  0.4203250000000  0.5186400000000 1.0
C      1  0.5180900000000  0.4437330000000  0.5130840000000 1.0
C      1  0.5166940000000  0.3970390000000  0.5269510000000 1.0
C      1  0.5465320000000  0.5493690000000  0.5003790000000 1.0
C      1  0.4513650000000  0.4300830000000  0.5100860000000 1.0
C      1  0.5215160000000  0.5081210000000  0.4711750000000 1.0
C      1  0.5800430000000  0.5169860000000  0.5345490000000 1.0
C      1  0.4528170000000  0.5636810000000  0.4405080000000 1.0
C      1  0.3592780000000  0.5146880000000  0.4777710000000 1.0
C      1  0.4311320000000  0.4458070000000  0.5026230000000 1.0
C      1  0.5639290000000  0.5299480000000  0.4815160000000 1.0
C      1  0.4071360000000  0.5161370000000  0.4738180000000 1.0
C      1  0.5791150000000  0.4757440000000  0.5592130000000 1.0
C      1  0.3817170000000  0.5284340000000  0.4706170000000 1.0
C      1  0.5051100000000  0.5312940000000  0.4783690000000 1.0
C      1  0.3803320000000  0.5537060000000  0.4604640000000 1.0
C      1  0.4516330000000  0.5832670000000  0.4231360000000 1.0
C      1  0.4540820000000  0.5427600000000  0.4590630000000 1.0
C      1  0.5180930000000  0.4840390000000  0.4854870000000 1.0
C      1  0.5285130000000  0.4689140000000  0.5069130000000 1.0
C      1  0.4759380000000  0.4211840000000  0.5155360000000 1.0
C      1  0.5694300000000  0.4907860000000  0.5385480000000 1.0
C      1  0.4789430000000  0.5353260000000  0.4696050000000 1.0
C      1  0.5486010000000  0.5143130000000  0.4637650000000 1.0
C      1  0.5989390000000  0.5268900000000  0.5526660000000 1.0
C      1  0.5718490000000  0.5329440000000  0.5128890000000 1.0
END
