TITL C-2778423-5760-60 -0.000853537471407678 125000 -546.995148826837 0 0 94 (C1) n - 1
REM
REM in /home/nfs/bkarasulu/CARBON/AIRSS/Generating-Clusters/REBO/Only-C1/SD-CG/HFTN-CG
REM
REM
REM
REM
REM
REM ./C.cell (11c1c37f851c82e70ff6c80c92926a4b)
REM
REM compiler GCC version 9.2.1 20190827 (Red Hat 9.2.1-1)
REM options -cpp -mtune=generic -march=x86-64 -g -O0 -fpre-include=/usr/include/finclude/math-vector-fortran.h
REM seed 40637255 474929383 1684468454 -916231736 1260487749 989939571 -376270175 -1195080944 2147460379 913699853 -1525740938 -1595432008 2028922282 -505632810 305957545 1169380392 -1380827278 834641577 -118946040 -2130788191 -1651815117 -1350477496 495061417 -895809416 -1935025356 -2027714568 98255321 -1981663730 1095738965 1442015195 -1224259961 638083283 17848368
REM
CELL 1.54180   50.00000   50.00000   50.00000   90.00000   90.00000   90.00000
LATT -1
SFAC C  
C      1  0.5300250000000  0.4618190000000  0.5715700000000 1.0
C      1  0.5541320000000  0.4522230000000  0.4680820000000 1.0
C      1  0.4706510000000  0.4255330000000  0.4876780000000 1.0
C      1  0.5823120000000  0.4915020000000  0.4592190000000 1.0
C      1  0.5145640000000  0.5338800000000  0.4284870000000 1.0
C      1  0.5146680000000  0.5170990000000  0.5858730000000 1.0
C      1  0.4409840000000  0.5489230000000  0.4623500000000 1.0
C      1  0.4267430000000  0.4557200000000  0.4852450000000 1.0
C      1  0.4923870000000  0.4270900000000  0.5117630000000 1.0
C      1  0.4922920000000  0.5021690000000  0.4935010000000 1.0
C      1  0.5018250000000  0.4795430000000  0.4707770000000 1.0
C      1  0.5317560000000  0.4973770000000  0.4900250000000 1.0
C      1  0.4691350000000  0.5357110000000  0.4966550000000 1.0
C      1  0.4603890000000  0.5542110000000  0.5504380000000 1.0
C      1  0.5309810000000  0.4251510000000  0.4861120000000 1.0
C      1  0.4000570000000  0.5236010000000  0.4472260000000 1.0
C      1  0.4203870000000  0.4253810000000  0.4710630000000 1.0
C      1  0.4339620000000  0.5631480000000  0.4860010000000 1.0
C      1  0.5815750000000  0.4903640000000  0.4875110000000 1.0
C      1  0.4507330000000  0.5408920000000  0.5254300000000 1.0
C      1  0.5871550000000  0.5062810000000  0.5100000000000 1.0
C      1  0.5041270000000  0.5411160000000  0.5724210000000 1.0
C      1  0.5353600000000  0.4803670000000  0.4636300000000 1.0
C      1  0.4906870000000  0.4754540000000  0.4326430000000 1.0
C      1  0.5635130000000  0.4304490000000  0.4927070000000 1.0
C      1  0.4642450000000  0.5148370000000  0.4217590000000 1.0
C      1  0.4263610000000  0.5455290000000  0.5073990000000 1.0
C      1  0.4750890000000  0.4346980000000  0.5619140000000 1.0
C      1  0.5496100000000  0.5357190000000  0.5162760000000 1.0
C      1  0.5442420000000  0.5842030000000  0.5142360000000 1.0
C      1  0.4656720000000  0.4925170000000  0.5433300000000 1.0
C      1  0.4131200000000  0.4961740000000  0.5041850000000 1.0
C      1  0.5410720000000  0.5067910000000  0.5881130000000 1.0
C      1  0.5477580000000  0.4846350000000  0.5714910000000 1.0
C      1  0.5149450000000  0.5624390000000  0.5556390000000 1.0
C      1  0.4534520000000  0.4501160000000  0.5651730000000 1.0
C      1  0.4747490000000  0.5006050000000  0.4659650000000 1.0
C      1  0.5031390000000  0.4709340000000  0.5699830000000 1.0
C      1  0.5593260000000  0.4600570000000  0.5423210000000 1.0
C      1  0.4258070000000  0.5235770000000  0.4556860000000 1.0
C      1  0.5567710000000  0.4706280000000  0.4205790000000 1.0
C      1  0.4678050000000  0.4878650000000  0.4208140000000 1.0
C      1  0.5182240000000  0.4977370000000  0.5292720000000 1.0
C      1  0.5357110000000  0.4886340000000  0.4166760000000 1.0
C      1  0.5537870000000  0.5609890000000  0.4487650000000 1.0
C      1  0.4088660000000  0.5238530000000  0.5054940000000 1.0
C      1  0.5012610000000  0.5222970000000  0.5160890000000 1.0
C      1  0.4845460000000  0.4247160000000  0.4599580000000 1.0
C      1  0.4428980000000  0.4280230000000  0.4947430000000 1.0
C      1  0.5336930000000  0.5597220000000  0.5345350000000 1.0
C      1  0.4912410000000  0.4752200000000  0.5090790000000 1.0
C      1  0.5318810000000  0.5622070000000  0.4923820000000 1.0
C      1  0.5421520000000  0.4248520000000  0.5187210000000 1.0
C      1  0.4939880000000  0.5386300000000  0.4773400000000 1.0
C      1  0.4695930000000  0.5809310000000  0.5459220000000 1.0
C      1  0.5308190000000  0.5679030000000  0.4621380000000 1.0
C      1  0.4638120000000  0.5902290000000  0.5169960000000 1.0
C      1  0.5662070000000  0.5130640000000  0.5263710000000 1.0
C      1  0.4941040000000  0.4957300000000  0.5835600000000 1.0
C      1  0.4648870000000  0.5298040000000  0.4516780000000 1.0
C      1  0.4941530000000  0.4777650000000  0.5412210000000 1.0
C      1  0.4250000000000  0.4842100000000  0.4809640000000 1.0
C      1  0.5048070000000  0.5516690000000  0.5050020000000 1.0
C      1  0.4336290000000  0.4506890000000  0.5181560000000 1.0
C      1  0.5322300000000  0.5282520000000  0.4879870000000 1.0
C      1  0.4899090000000  0.5771790000000  0.5117860000000 1.0
C      1  0.4832090000000  0.4137180000000  0.5388890000000 1.0
C      1  0.4958690000000  0.4502700000000  0.4442870000000 1.0
C      1  0.4686940000000  0.5142730000000  0.5230460000000 1.0
C      1  0.5310760000000  0.4734150000000  0.5113320000000 1.0
C      1  0.5611710000000  0.5363520000000  0.4406520000000 1.0
C      1  0.4922640000000  0.4518800000000  0.4881950000000 1.0
C      1  0.5665200000000  0.5632460000000  0.5122570000000 1.0
C      1  0.4749360000000  0.5364730000000  0.5677370000000 1.0
C      1  0.4445080000000  0.4705600000000  0.5435520000000 1.0
C      1  0.5121120000000  0.4948110000000  0.4352290000000 1.0
C      1  0.4448000000000  0.5876250000000  0.4960940000000 1.0
C      1  0.5548300000000  0.5037420000000  0.4482520000000 1.0
C      1  0.4172260000000  0.4791870000000  0.5265270000000 1.0
C      1  0.5604900000000  0.4701330000000  0.4945540000000 1.0
C      1  0.4968190000000  0.5850100000000  0.5546060000000 1.0
C      1  0.5185610000000  0.4474360000000  0.5178950000000 1.0
C      1  0.4834620000000  0.5423690000000  0.4273060000000 1.0
C      1  0.5496880000000  0.4924650000000  0.5410340000000 1.0
C      1  0.5403140000000  0.5198570000000  0.4219590000000 1.0
C      1  0.5157140000000  0.4305690000000  0.4638590000000 1.0
C      1  0.4707540000000  0.5075500000000  0.5703990000000 1.0
C      1  0.5040980000000  0.5558570000000  0.4511530000000 1.0
C      1  0.5702740000000  0.4670230000000  0.4451080000000 1.0
C      1  0.4407010000000  0.5006340000000  0.4645350000000 1.0
C      1  0.5056050000000  0.4376780000000  0.5479060000000 1.0
C      1  0.5716060000000  0.4517380000000  0.5172020000000 1.0
C      1  0.5385140000000  0.4369410000000  0.5506650000000 1.0
C      1  0.5152260000000  0.5185580000000  0.4596620000000 1.0
END
