TITL C-2778427-5640-392 -0.00132941236627537 125000 -539.204147136797 0 0 94 (C1) n - 1
REM
REM in /home/nfs/bkarasulu/CARBON/AIRSS/Generating-Clusters/REBO/Only-C1/SD-CG/HFTN-CG
REM
REM
REM
REM
REM
REM ./C.cell (11c1c37f851c82e70ff6c80c92926a4b)
REM
REM compiler GCC version 9.2.1 20190827 (Red Hat 9.2.1-1)
REM options -cpp -mtune=generic -march=x86-64 -g -O0 -fpre-include=/usr/include/finclude/math-vector-fortran.h
REM seed -1217735155 2136887017 -1167272264 2069848742 1176388861 425638085 1745456864 -630045371 678744282 403172735 -850031800 793146598 151801568 -1922514452 -279877114 1248173241 1887160672 -2118774982 -2071608113 -1160143229 1101434856 -1080201106 -485881357 -1740735652 79268355 1833481841 -1456229528 -1557425644 1825797851 -2401545 405115517 -2099522746 -257948186
REM
CELL 1.54180   50.00000   50.00000   50.00000   90.00000   90.00000   90.00000
LATT -1
SFAC C  
C      1  0.5060800000000  0.5439330000000  0.5386660000000 1.0
C      1  0.4827340000000  0.4332210000000  0.5402740000000 1.0
C      1  0.5075530000000  0.5547040000000  0.4279770000000 1.0
C      1  0.4415570000000  0.4501540000000  0.4685700000000 1.0
C      1  0.4500370000000  0.5391220000000  0.5542590000000 1.0
C      1  0.5173570000000  0.4633910000000  0.4347000000000 1.0
C      1  0.4989270000000  0.4814960000000  0.4887300000000 1.0
C      1  0.5232950000000  0.5241130000000  0.4854020000000 1.0
C      1  0.4752570000000  0.5734790000000  0.5085420000000 1.0
C      1  0.5275100000000  0.5092290000000  0.5748350000000 1.0
C      1  0.5472220000000  0.5168520000000  0.5560100000000 1.0
C      1  0.4994840000000  0.5753230000000  0.4857190000000 1.0
C      1  0.5295250000000  0.4905440000000  0.5298280000000 1.0
C      1  0.5374040000000  0.4341550000000  0.4744530000000 1.0
C      1  0.5715100000000  0.5084980000000  0.5338430000000 1.0
C      1  0.4122600000000  0.5069740000000  0.4902590000000 1.0
C      1  0.4669190000000  0.5101630000000  0.5119630000000 1.0
C      1  0.4953160000000  0.5639250000000  0.4586680000000 1.0
C      1  0.4967690000000  0.5235710000000  0.5716980000000 1.0
C      1  0.5365310000000  0.4897810000000  0.4456400000000 1.0
C      1  0.5465470000000  0.5631210000000  0.5189030000000 1.0
C      1  0.5067700000000  0.5142880000000  0.4351780000000 1.0
C      1  0.4396390000000  0.5027930000000  0.4510210000000 1.0
C      1  0.4671160000000  0.4736180000000  0.4929460000000 1.0
C      1  0.4452490000000  0.5314130000000  0.5243910000000 1.0
C      1  0.5173100000000  0.5884730000000  0.5095280000000 1.0
C      1  0.5029660000000  0.4772540000000  0.5193330000000 1.0
C      1  0.5126090000000  0.5771040000000  0.5345420000000 1.0
C      1  0.4628160000000  0.4599490000000  0.5183380000000 1.0
C      1  0.4858360000000  0.4875720000000  0.4312270000000 1.0
C      1  0.4278560000000  0.4966360000000  0.5609210000000 1.0
C      1  0.4623550000000  0.4114790000000  0.4432660000000 1.0
C      1  0.5359210000000  0.4383920000000  0.5294890000000 1.0
C      1  0.4274670000000  0.5222520000000  0.4679030000000 1.0
C      1  0.5729260000000  0.4984280000000  0.4610580000000 1.0
C      1  0.4570780000000  0.4262390000000  0.5184950000000 1.0
C      1  0.4807600000000  0.5505310000000  0.5582990000000 1.0
C      1  0.4713190000000  0.5271230000000  0.4689650000000 1.0
C      1  0.4365060000000  0.4410520000000  0.4955230000000 1.0
C      1  0.4990290000000  0.4648610000000  0.5826030000000 1.0
C      1  0.4750200000000  0.4784090000000  0.5775120000000 1.0
C      1  0.5545490000000  0.5493050000000  0.4533690000000 1.0
C      1  0.5026710000000  0.5305310000000  0.4589810000000 1.0
C      1  0.5642710000000  0.4713910000000  0.4489430000000 1.0
C      1  0.4300610000000  0.4542310000000  0.5266130000000 1.0
C      1  0.5235110000000  0.4912150000000  0.4771730000000 1.0
C      1  0.5340800000000  0.5553030000000  0.4905140000000 1.0
C      1  0.5928860000000  0.4810880000000  0.4750320000000 1.0
C      1  0.5070190000000  0.4345560000000  0.4898210000000 1.0
C      1  0.5470100000000  0.4783060000000  0.4914270000000 1.0
C      1  0.4881780000000  0.4546570000000  0.4750190000000 1.0
C      1  0.4463380000000  0.5146940000000  0.5705600000000 1.0
C      1  0.4637280000000  0.4706550000000  0.5506370000000 1.0
C      1  0.5371160000000  0.5168450000000  0.5156830000000 1.0
C      1  0.5056240000000  0.5103000000000  0.5416460000000 1.0
C      1  0.4895830000000  0.5235340000000  0.4957680000000 1.0
C      1  0.4343220000000  0.4758710000000  0.4582260000000 1.0
C      1  0.4280480000000  0.5058520000000  0.5194050000000 1.0
C      1  0.4623940000000  0.5618280000000  0.4518450000000 1.0
C      1  0.5492850000000  0.4482490000000  0.5023640000000 1.0
C      1  0.4612460000000  0.4379290000000  0.4509610000000 1.0
C      1  0.3931030000000  0.4892480000000  0.5117350000000 1.0
C      1  0.4457690000000  0.5470880000000  0.4758770000000 1.0
C      1  0.5483170000000  0.4675860000000  0.5388150000000 1.0
C      1  0.4159300000000  0.4796770000000  0.5350930000000 1.0
C      1  0.5333990000000  0.4574150000000  0.5645150000000 1.0
C      1  0.5465130000000  0.5411640000000  0.5359200000000 1.0
C      1  0.5343740000000  0.5432120000000  0.4288740000000 1.0
C      1  0.5488110000000  0.5186330000000  0.4628530000000 1.0
C      1  0.5046120000000  0.4465100000000  0.5218510000000 1.0
C      1  0.4504280000000  0.4392320000000  0.5496900000000 1.0
C      1  0.5368290000000  0.5126230000000  0.4198220000000 1.0
C      1  0.5257940000000  0.4817170000000  0.5832930000000 1.0
C      1  0.5683890000000  0.4960330000000  0.5023530000000 1.0
C      1  0.5467180000000  0.5915200000000  0.4997010000000 1.0
C      1  0.5485720000000  0.5760190000000  0.4712910000000 1.0
C      1  0.5683990000000  0.5280640000000  0.5053860000000 1.0
C      1  0.4795670000000  0.4929590000000  0.5329370000000 1.0
C      1  0.5140700000000  0.4890070000000  0.4126510000000 1.0
C      1  0.5323440000000  0.4398180000000  0.4429000000000 1.0
C      1  0.4447350000000  0.4951930000000  0.4916000000000 1.0
C      1  0.5262840000000  0.4161340000000  0.5082790000000 1.0
C      1  0.4714100000000  0.5059970000000  0.5811580000000 1.0
C      1  0.5813500000000  0.4587560000000  0.4971560000000 1.0
C      1  0.4767430000000  0.5424570000000  0.4310560000000 1.0
C      1  0.5669360000000  0.4497280000000  0.4673630000000 1.0
C      1  0.4988420000000  0.5501350000000  0.5085860000000 1.0
C      1  0.4858230000000  0.4582840000000  0.4440570000000 1.0
C      1  0.5716780000000  0.5444930000000  0.4826040000000 1.0
C      1  0.4598610000000  0.5663690000000  0.5363170000000 1.0
C      1  0.5759640000000  0.4750390000000  0.5267780000000 1.0
C      1  0.4475250000000  0.5566820000000  0.5050540000000 1.0
C      1  0.5055120000000  0.4417660000000  0.5619620000000 1.0
C      1  0.4671400000000  0.5114920000000  0.4390080000000 1.0
END
