TITL C-2778422-5617-445 0.00269443117947726 125000 -989.53919428744 0 0 168 (C1) n - 1
REM
REM in /home/nfs/bkarasulu/CARBON/AIRSS/Generating-Clusters/REBO/Only-C1/SD-CG/HFTN-CG
REM
REM
REM
REM
REM
REM ./C.cell (11c1c37f851c82e70ff6c80c92926a4b)
REM
REM compiler GCC version 9.2.1 20190827 (Red Hat 9.2.1-1)
REM options -cpp -mtune=generic -march=x86-64 -g -O0 -fpre-include=/usr/include/finclude/math-vector-fortran.h
REM seed -629509856 -1306466188 -144279651 410930013 -863440386 -2067451362 1051252099 446763982 -1670638638 -1020508697 -1530994773 1308525583 -97465806 26723621 726286867 528827981 -1937819926 559595891 -1902738177 732233532 -547393843 941976382 -1136548849 754715013 -821485208 -631484229 -435975590 1102682553 705911035 -337152791 338731780 -465982932 1512117790
REM
CELL 1.54180   50.00000   50.00000   50.00000   90.00000   90.00000   90.00000
LATT -1
SFAC C  
C      1  0.4078260000000  0.4927670000000  0.4507680000000 1.0
C      1  0.4301940000000  0.5170530000000  0.5139870000000 1.0
C      1  0.4248760000000  0.5515030000000  0.5619900000000 1.0
C      1  0.5087950000000  0.5081070000000  0.3847540000000 1.0
C      1  0.4387080000000  0.5445180000000  0.4978230000000 1.0
C      1  0.4525170000000  0.5558980000000  0.5667620000000 1.0
C      1  0.4998570000000  0.4250960000000  0.5184220000000 1.0
C      1  0.5504700000000  0.5745540000000  0.5772040000000 1.0
C      1  0.4416510000000  0.4858040000000  0.4196990000000 1.0
C      1  0.4620960000000  0.4601030000000  0.5457620000000 1.0
C      1  0.4841750000000  0.4621210000000  0.5919730000000 1.0
C      1  0.5156640000000  0.5209990000000  0.4115810000000 1.0
C      1  0.5837410000000  0.5395300000000  0.4852450000000 1.0
C      1  0.4045160000000  0.5178160000000  0.5358250000000 1.0
C      1  0.5651470000000  0.4676930000000  0.4304700000000 1.0
C      1  0.4204470000000  0.4250160000000  0.5119980000000 1.0
C      1  0.5900010000000  0.5049070000000  0.5203680000000 1.0
C      1  0.4413010000000  0.4237050000000  0.5339570000000 1.0
C      1  0.3954290000000  0.4974430000000  0.5132950000000 1.0
C      1  0.5476840000000  0.4849240000000  0.3994100000000 1.0
C      1  0.4572700000000  0.4502290000000  0.5781960000000 1.0
C      1  0.5407490000000  0.4504710000000  0.5201250000000 1.0
C      1  0.5120730000000  0.4471530000000  0.5973490000000 1.0
C      1  0.5031650000000  0.4371300000000  0.5470930000000 1.0
C      1  0.4708480000000  0.5357220000000  0.5584890000000 1.0
C      1  0.4039670000000  0.4688330000000  0.5190680000000 1.0
C      1  0.5394530000000  0.5489580000000  0.4860010000000 1.0
C      1  0.4708250000000  0.5395020000000  0.5982450000000 1.0
C      1  0.5618570000000  0.4932960000000  0.4949400000000 1.0
C      1  0.4437830000000  0.4429440000000  0.4990130000000 1.0
C      1  0.5769300000000  0.4279080000000  0.5223010000000 1.0
C      1  0.5435160000000  0.4158460000000  0.5600840000000 1.0
C      1  0.5032990000000  0.4543550000000  0.4090830000000 1.0
C      1  0.5203220000000  0.4815800000000  0.4144160000000 1.0
C      1  0.4681620000000  0.4711580000000  0.4178890000000 1.0
C      1  0.5903100000000  0.4774160000000  0.5321660000000 1.0
C      1  0.4242860000000  0.4732770000000  0.4372090000000 1.0
C      1  0.4724510000000  0.4929240000000  0.5253590000000 1.0
C      1  0.5073760000000  0.5468610000000  0.4799660000000 1.0
C      1  0.4688360000000  0.5803670000000  0.4165780000000 1.0
C      1  0.4918420000000  0.4881890000000  0.4312840000000 1.0
C      1  0.5100780000000  0.4760330000000  0.4577320000000 1.0
C      1  0.4653860000000  0.4413550000000  0.4305880000000 1.0
C      1  0.4652410000000  0.5569490000000  0.5039940000000 1.0
C      1  0.5744230000000  0.4753870000000  0.5791340000000 1.0
C      1  0.5295410000000  0.5047070000000  0.4382960000000 1.0
C      1  0.4828150000000  0.4664590000000  0.3892400000000 1.0
C      1  0.4927630000000  0.5524990000000  0.5873300000000 1.0
C      1  0.4959410000000  0.5924940000000  0.5363650000000 1.0
C      1  0.5380680000000  0.3934340000000  0.5146340000000 1.0
C      1  0.5813460000000  0.4351930000000  0.4530400000000 1.0
C      1  0.5540090000000  0.4514930000000  0.4650860000000 1.0
C      1  0.4167310000000  0.5232180000000  0.5634130000000 1.0
C      1  0.5175150000000  0.5135640000000  0.5566650000000 1.0
C      1  0.5138060000000  0.4005800000000  0.4994610000000 1.0
C      1  0.5118020000000  0.4904410000000  0.5316200000000 1.0
C      1  0.5780490000000  0.5391380000000  0.5575980000000 1.0
C      1  0.5354130000000  0.5247760000000  0.4623920000000 1.0
C      1  0.5793760000000  0.5292980000000  0.4344910000000 1.0
C      1  0.5426900000000  0.5499400000000  0.5860660000000 1.0
C      1  0.5642910000000  0.5070400000000  0.4156320000000 1.0
C      1  0.5168930000000  0.5344710000000  0.5835200000000 1.0
C      1  0.4197250000000  0.4293620000000  0.4703730000000 1.0
C      1  0.4980170000000  0.4128990000000  0.5655790000000 1.0
C      1  0.5069870000000  0.4884370000000  0.5710450000000 1.0
C      1  0.5530390000000  0.5406470000000  0.5108050000000 1.0
C      1  0.5184850000000  0.5639840000000  0.5519320000000 1.0
C      1  0.5719370000000  0.4651830000000  0.4876200000000 1.0
C      1  0.4107280000000  0.5451230000000  0.5172970000000 1.0
C      1  0.4867390000000  0.4942900000000  0.5991090000000 1.0
C      1  0.4495550000000  0.5994740000000  0.5465460000000 1.0
C      1  0.4046030000000  0.4483440000000  0.4934180000000 1.0
C      1  0.5049130000000  0.5151270000000  0.4754600000000 1.0
C      1  0.4725920000000  0.4296830000000  0.4901880000000 1.0
C      1  0.4381080000000  0.5873260000000  0.4996780000000 1.0
C      1  0.4883960000000  0.5612970000000  0.4643580000000 1.0
C      1  0.4312930000000  0.4717050000000  0.5734510000000 1.0
C      1  0.4962190000000  0.5915750000000  0.4239270000000 1.0
C      1  0.4323230000000  0.5878180000000  0.5269850000000 1.0
C      1  0.5040540000000  0.4324490000000  0.4318930000000 1.0
C      1  0.5300080000000  0.5891990000000  0.5320330000000 1.0
C      1  0.4076440000000  0.4602710000000  0.5518030000000 1.0
C      1  0.4319760000000  0.4378560000000  0.5590740000000 1.0
C      1  0.4845180000000  0.5125630000000  0.4508190000000 1.0
C      1  0.5421650000000  0.5597020000000  0.4286430000000 1.0
C      1  0.4953410000000  0.5090470000000  0.5078750000000 1.0
C      1  0.4674000000000  0.5501640000000  0.4122840000000 1.0
C      1  0.5435960000000  0.4723750000000  0.5698890000000 1.0
C      1  0.5629060000000  0.5293050000000  0.5807930000000 1.0
C      1  0.4434610000000  0.4920490000000  0.5122730000000 1.0
C      1  0.4367690000000  0.4722210000000  0.4898100000000 1.0
C      1  0.4151820000000  0.5254640000000  0.4449910000000 1.0
C      1  0.4884670000000  0.4543650000000  0.4516630000000 1.0
C      1  0.5155080000000  0.5965230000000  0.5019050000000 1.0
C      1  0.5859210000000  0.4901940000000  0.4362990000000 1.0
C      1  0.5505840000000  0.5062510000000  0.5939980000000 1.0
C      1  0.5708920000000  0.5715270000000  0.5525020000000 1.0
C      1  0.5798770000000  0.5688980000000  0.5022640000000 1.0
C      1  0.5331800000000  0.4294560000000  0.4746860000000 1.0
C      1  0.5803940000000  0.5685320000000  0.4682670000000 1.0
C      1  0.4630650000000  0.5130650000000  0.5946240000000 1.0
C      1  0.4592250000000  0.5889560000000  0.4729360000000 1.0
C      1  0.4355760000000  0.5092130000000  0.4751520000000 1.0
C      1  0.5397920000000  0.4739020000000  0.4482390000000 1.0
C      1  0.4562360000000  0.5110300000000  0.4625950000000 1.0
C      1  0.4360960000000  0.4530750000000  0.4547640000000 1.0
C      1  0.4382360000000  0.5019110000000  0.5740440000000 1.0
C      1  0.4672510000000  0.4217330000000  0.5230780000000 1.0
C      1  0.5315750000000  0.4276890000000  0.4421700000000 1.0
C      1  0.5800770000000  0.4103630000000  0.4727430000000 1.0
C      1  0.4922210000000  0.4081670000000  0.4781150000000 1.0
C      1  0.4931610000000  0.5794990000000  0.5677750000000 1.0
C      1  0.5364760000000  0.5213020000000  0.5320240000000 1.0
C      1  0.4640610000000  0.5069860000000  0.5551930000000 1.0
C      1  0.5179580000000  0.5073580000000  0.6040390000000 1.0
C      1  0.5501000000000  0.5749720000000  0.4741090000000 1.0
C      1  0.5224360000000  0.4625840000000  0.5451370000000 1.0
C      1  0.5488460000000  0.4034130000000  0.4779990000000 1.0
C      1  0.4926560000000  0.4886430000000  0.3747850000000 1.0
C      1  0.5335100000000  0.3928730000000  0.5434190000000 1.0
C      1  0.4599530000000  0.5694910000000  0.4465050000000 1.0
C      1  0.5024540000000  0.5671950000000  0.5138070000000 1.0
C      1  0.4796840000000  0.4156370000000  0.4489120000000 1.0
C      1  0.5063920000000  0.3879970000000  0.5531320000000 1.0
C      1  0.4627080000000  0.5823540000000  0.5647390000000 1.0
C      1  0.5627890000000  0.5846900000000  0.5241590000000 1.0
C      1  0.5629340000000  0.4314050000000  0.5473700000000 1.0
C      1  0.5684840000000  0.4048930000000  0.5045980000000 1.0
C      1  0.6012060000000  0.4973710000000  0.4654690000000 1.0
C      1  0.4944520000000  0.5442530000000  0.5455020000000 1.0
C      1  0.5344880000000  0.4978730000000  0.5071900000000 1.0
C      1  0.5580290000000  0.4349330000000  0.4288990000000 1.0
C      1  0.4352600000000  0.5124810000000  0.4199720000000 1.0
C      1  0.5441370000000  0.5347420000000  0.4168650000000 1.0
C      1  0.4975610000000  0.5611730000000  0.4359140000000 1.0
C      1  0.5252940000000  0.4753560000000  0.5947290000000 1.0
C      1  0.4135550000000  0.5422070000000  0.4748720000000 1.0
C      1  0.4422300000000  0.5401730000000  0.4181940000000 1.0
C      1  0.4771070000000  0.5885630000000  0.5081560000000 1.0
C      1  0.5350370000000  0.5794920000000  0.4488460000000 1.0
C      1  0.4909410000000  0.5381540000000  0.5151360000000 1.0
C      1  0.4163310000000  0.5662550000000  0.5378200000000 1.0
C      1  0.4344970000000  0.4698470000000  0.5337480000000 1.0
C      1  0.5620390000000  0.4640790000000  0.5428940000000 1.0
C      1  0.5239400000000  0.4390120000000  0.5019130000000 1.0
C      1  0.5448530000000  0.5530980000000  0.5406290000000 1.0
C      1  0.5109380000000  0.5954720000000  0.4508390000000 1.0
C      1  0.5941230000000  0.4758470000000  0.5636590000000 1.0
C      1  0.5911510000000  0.4658520000000  0.4604280000000 1.0
C      1  0.5604180000000  0.4537830000000  0.4004890000000 1.0
C      1  0.4294730000000  0.5564580000000  0.4417860000000 1.0
C      1  0.5760080000000  0.5268130000000  0.5320640000000 1.0
C      1  0.4785610000000  0.4799700000000  0.5627020000000 1.0
C      1  0.4914040000000  0.5984700000000  0.4785160000000 1.0
C      1  0.4459900000000  0.4211690000000  0.4500870000000 1.0
C      1  0.4289080000000  0.5724450000000  0.4711910000000 1.0
C      1  0.4916280000000  0.5328180000000  0.4251600000000 1.0
C      1  0.4893480000000  0.4594030000000  0.4910690000000 1.0
C      1  0.4030720000000  0.5116850000000  0.4852610000000 1.0
C      1  0.5119580000000  0.4803130000000  0.4891530000000 1.0
C      1  0.4075440000000  0.4791750000000  0.4799180000000 1.0
C      1  0.5656660000000  0.5396360000000  0.4573770000000 1.0
C      1  0.4682590000000  0.4608230000000  0.5147000000000 1.0
C      1  0.5464910000000  0.5944900000000  0.4965200000000 1.0
C      1  0.5217230000000  0.4262330000000  0.5807280000000 1.0
C      1  0.5848080000000  0.4532450000000  0.5118490000000 1.0
C      1  0.5888570000000  0.5109150000000  0.4896300000000 1.0
C      1  0.4626680000000  0.4626960000000  0.4699860000000 1.0
END
