TITL C-2778429-3646-1444 -0.00639448446520671 125000 -656.870514382613 0 0 114 (C1) n - 1
REM
REM in /home/nfs/bkarasulu/CARBON/AIRSS/Generating-Clusters/REBO/Only-C1/SD-CG/HFTN-CG
REM
REM
REM
REM
REM
REM ./C.cell (11c1c37f851c82e70ff6c80c92926a4b)
REM
REM compiler GCC version 9.2.1 20190827 (Red Hat 9.2.1-1)
REM options -cpp -mtune=generic -march=x86-64 -g -O0 -fpre-include=/usr/include/finclude/math-vector-fortran.h
REM seed -88988860 -1516904304 -1382652105 -205201402 1111218025 -1846347053 1451209255 -64967867 -1671200145 1694289723 -390632513 -1116088833 -723114605 1857674606 1306147367 -1713593659 -870381479 2004150968 1314296619 1956474899 48723058 827118974 1251872077 1017020756 -809337713 -1729639764 -597705224 -778716973 -1123032368 319559752 1707543106 -1944598808 2077280288
REM
CELL 1.54180   50.00000   50.00000   50.00000   90.00000   90.00000   90.00000
LATT -1
SFAC C  
C      1  0.4299730000000  0.4920020000000  0.5470660000000 1.0
C      1  0.5358010000000  0.5721380000000  0.5004770000000 1.0
C      1  0.5323700000000  0.5322230000000  0.4855950000000 1.0
C      1  0.5832900000000  0.4886960000000  0.4655170000000 1.0
C      1  0.4572150000000  0.5346300000000  0.4647520000000 1.0
C      1  0.5218920000000  0.5061820000000  0.5959900000000 1.0
C      1  0.4812150000000  0.5561570000000  0.4413150000000 1.0
C      1  0.4158920000000  0.5396890000000  0.5345740000000 1.0
C      1  0.4732590000000  0.4959360000000  0.5498290000000 1.0
C      1  0.4850560000000  0.5623590000000  0.5152730000000 1.0
C      1  0.4970450000000  0.4822450000000  0.4495390000000 1.0
C      1  0.5115490000000  0.4660170000000  0.5394660000000 1.0
C      1  0.3990740000000  0.5741370000000  0.4668190000000 1.0
C      1  0.5104740000000  0.4757430000000  0.5941290000000 1.0
C      1  0.5697910000000  0.5571330000000  0.4418440000000 1.0
C      1  0.5137480000000  0.4695980000000  0.4232200000000 1.0
C      1  0.4994800000000  0.4619860000000  0.4976310000000 1.0
C      1  0.4836020000000  0.4140540000000  0.4787110000000 1.0
C      1  0.5660800000000  0.5649340000000  0.4933480000000 1.0
C      1  0.4647560000000  0.5385800000000  0.5292250000000 1.0
C      1  0.4661870000000  0.5136360000000  0.4164910000000 1.0
C      1  0.5334930000000  0.4185200000000  0.4769820000000 1.0
C      1  0.4053740000000  0.5551970000000  0.4837990000000 1.0
C      1  0.4748990000000  0.5436660000000  0.5727550000000 1.0
C      1  0.5103100000000  0.4234100000000  0.4615950000000 1.0
C      1  0.4374180000000  0.5107120000000  0.5837650000000 1.0
C      1  0.4874960000000  0.4917140000000  0.4994330000000 1.0
C      1  0.5623930000000  0.4266390000000  0.4716780000000 1.0
C      1  0.4901940000000  0.4460740000000  0.5465650000000 1.0
C      1  0.5827080000000  0.5047280000000  0.5411580000000 1.0
C      1  0.5177420000000  0.4656480000000  0.4697770000000 1.0
C      1  0.4915810000000  0.3960100000000  0.5620150000000 1.0
C      1  0.5646020000000  0.4599460000000  0.5337460000000 1.0
C      1  0.5239650000000  0.5980840000000  0.5061310000000 1.0
C      1  0.5134530000000  0.5221060000000  0.4183970000000 1.0
C      1  0.5026070000000  0.5485110000000  0.5564000000000 1.0
C      1  0.5621070000000  0.4365610000000  0.5180400000000 1.0
C      1  0.5033790000000  0.4975360000000  0.5433710000000 1.0
C      1  0.4362650000000  0.5097170000000  0.4326340000000 1.0
C      1  0.5039820000000  0.5325100000000  0.5862140000000 1.0
C      1  0.4832420000000  0.5423030000000  0.4792790000000 1.0
C      1  0.4825920000000  0.4713490000000  0.5936510000000 1.0
C      1  0.4697130000000  0.4400700000000  0.5195250000000 1.0
C      1  0.5859800000000  0.5308750000000  0.5288390000000 1.0
C      1  0.5020810000000  0.4416700000000  0.4390120000000 1.0
C      1  0.4686290000000  0.4600820000000  0.5669060000000 1.0
C      1  0.5286060000000  0.4578890000000  0.5135420000000 1.0
C      1  0.5463640000000  0.5282870000000  0.5520620000000 1.0
C      1  0.4500260000000  0.4578710000000  0.4549840000000 1.0
C      1  0.5408950000000  0.4756430000000  0.5471980000000 1.0
C      1  0.4841830000000  0.5237140000000  0.5055910000000 1.0
C      1  0.5331260000000  0.4249250000000  0.5098040000000 1.0
C      1  0.4944900000000  0.4953030000000  0.4120030000000 1.0
C      1  0.5073680000000  0.5832810000000  0.5261500000000 1.0
C      1  0.4175440000000  0.5040190000000  0.4939750000000 1.0
C      1  0.4881770000000  0.4141240000000  0.5433860000000 1.0
C      1  0.4960300000000  0.5692340000000  0.4675160000000 1.0
C      1  0.5150610000000  0.5489600000000  0.5060290000000 1.0
C      1  0.4481830000000  0.5497010000000  0.5557400000000 1.0
C      1  0.5406160000000  0.4828580000000  0.5792430000000 1.0
C      1  0.4810810000000  0.4091590000000  0.5123290000000 1.0
C      1  0.4594590000000  0.4295570000000  0.4689490000000 1.0
C      1  0.5036350000000  0.5295110000000  0.5314740000000 1.0
C      1  0.4521830000000  0.5401250000000  0.4332440000000 1.0
C      1  0.6060800000000  0.4275960000000  0.4958640000000 1.0
C      1  0.5435890000000  0.5054010000000  0.5000890000000 1.0
C      1  0.4359510000000  0.5661790000000  0.5299530000000 1.0
C      1  0.5474600000000  0.5556520000000  0.5405030000000 1.0
C      1  0.4563270000000  0.4958680000000  0.4990980000000 1.0
C      1  0.4552810000000  0.5740540000000  0.5119890000000 1.0
C      1  0.5354290000000  0.5460660000000  0.4580840000000 1.0
C      1  0.4529870000000  0.5072540000000  0.5266140000000 1.0
C      1  0.5031820000000  0.4303780000000  0.5002070000000 1.0
C      1  0.4334810000000  0.4744740000000  0.4873670000000 1.0
C      1  0.4117630000000  0.5359870000000  0.5010220000000 1.0
C      1  0.4533260000000  0.4531650000000  0.4154120000000 1.0
C      1  0.5518440000000  0.5337910000000  0.4302540000000 1.0
C      1  0.5225390000000  0.5685040000000  0.5453140000000 1.0
C      1  0.5198570000000  0.5821820000000  0.4653200000000 1.0
C      1  0.4508290000000  0.5057400000000  0.4696150000000 1.0
C      1  0.4709020000000  0.4375380000000  0.4377350000000 1.0
C      1  0.4466470000000  0.4449600000000  0.4948340000000 1.0
C      1  0.4490960000000  0.4799440000000  0.4219850000000 1.0
C      1  0.4665450000000  0.5127400000000  0.5744220000000 1.0
C      1  0.5503850000000  0.5027300000000  0.4557080000000 1.0
C      1  0.5177720000000  0.4950450000000  0.4851140000000 1.0
C      1  0.4599420000000  0.4688080000000  0.5350990000000 1.0
C      1  0.4668790000000  0.4860060000000  0.4506540000000 1.0
C      1  0.5223020000000  0.5054570000000  0.4467940000000 1.0
C      1  0.4131740000000  0.5073550000000  0.5273350000000 1.0
C      1  0.5420620000000  0.5034610000000  0.5313640000000 1.0
C      1  0.5211280000000  0.5140160000000  0.5637550000000 1.0
C      1  0.5509010000000  0.5090320000000  0.4162760000000 1.0
C      1  0.4996510000000  0.5166060000000  0.4694490000000 1.0
C      1  0.5468760000000  0.4539640000000  0.4645140000000 1.0
C      1  0.5141440000000  0.5505270000000  0.4346810000000 1.0
C      1  0.4374820000000  0.4744010000000  0.5674030000000 1.0
C      1  0.4197280000000  0.4673770000000  0.4575440000000 1.0
C      1  0.5620100000000  0.4722750000000  0.4462340000000 1.0
C      1  0.4871690000000  0.5227280000000  0.4400490000000 1.0
C      1  0.5514800000000  0.5754320000000  0.4641450000000 1.0
C      1  0.5494990000000  0.4664400000000  0.4938820000000 1.0
C      1  0.5782190000000  0.5466420000000  0.4694270000000 1.0
C      1  0.4245650000000  0.5301330000000  0.5662060000000 1.0
C      1  0.5742910000000  0.5195130000000  0.4706310000000 1.0
C      1  0.5698080000000  0.5538570000000  0.5225240000000 1.0
C      1  0.4341860000000  0.4572470000000  0.5228040000000 1.0
C      1  0.5790650000000  0.4292030000000  0.4953850000000 1.0
C      1  0.5638490000000  0.5030710000000  0.5647140000000 1.0
C      1  0.4199410000000  0.5001820000000  0.4601450000000 1.0
C      1  0.5440940000000  0.4824520000000  0.4219570000000 1.0
C      1  0.4522520000000  0.4823550000000  0.5953710000000 1.0
C      1  0.5715110000000  0.4885360000000  0.4955690000000 1.0
C      1  0.5815410000000  0.4818000000000  0.5238910000000 1.0
END
