TITL C-2778430-5657-913 8.72657478269121 125000 -742.945915011915 0 0 128 (C1) n - 1
REM
REM in /home/nfs/bkarasulu/CARBON/AIRSS/Generating-Clusters/REBO/Only-C1/SD-CG/HFTN-CG
REM
REM
REM
REM
REM
REM ./C.cell (11c1c37f851c82e70ff6c80c92926a4b)
REM
REM compiler GCC version 9.2.1 20190827 (Red Hat 9.2.1-1)
REM options -cpp -mtune=generic -march=x86-64 -g -O0 -fpre-include=/usr/include/finclude/math-vector-fortran.h
REM seed -982678329 18839578 1991209804 -1005996912 -1213783650 -728035648 710146687 -371524163 -1845244185 1347208718 654681109 -532125141 1317392012 -2081210557 1656525402 134718506 2040998324 -358843834 1447572457 -476566267 1773554582 -1455902946 742962242 -1707697018 742411854 -1902395900 -163794564 -1096481702 1320097536 -1415354156 1304460768 1168035632 -1225804529
REM
CELL 1.54180   50.00000   50.00000   50.00000   90.00000   90.00000   90.00000
LATT -1
SFAC C  
C      1  0.5475700000000  0.4233070000000  0.4604970000000 1.0
C      1  0.4592070000000  0.4049080000000  0.5038650000000 1.0
C      1  0.5898110000000  0.5175650000000  0.4966060000000 1.0
C      1  0.4713920000000  0.4903270000000  0.4153190000000 1.0
C      1  0.4788290000000  0.4662680000000  0.5400460000000 1.0
C      1  0.4158120000000  0.5126430000000  0.5487230000000 1.0
C      1  0.4623190000000  0.4858090000000  0.4793470000000 1.0
C      1  0.5087240000000  0.4572000000000  0.5269810000000 1.0
C      1  0.5802100000000  0.5501980000000  0.4935740000000 1.0
C      1  0.4982470000000  0.5527030000000  0.5378440000000 1.0
C      1  0.5243090000000  0.5739080000000  0.5609210000000 1.0
C      1  0.3957040000000  0.5309970000000  0.5348070000000 1.0
C      1  0.4924380000000  0.4722860000000  0.5017610000000 1.0
C      1  0.5367430000000  0.4521130000000  0.4858530000000 1.0
C      1  0.4828790000000  0.4372210000000  0.4346520000000 1.0
C      1  0.5038510000000  0.4685900000000  0.4528340000000 1.0
C      1  0.5765830000000  0.5477950000000  0.5471830000000 1.0
C      1  0.5526650000000  0.5710700000000  0.4547960000000 1.0
C      1  0.4646240000000  0.5465300000000  0.4567840000000 1.0
C      1  0.5603760000000  0.4543030000000  0.5536150000000 1.0
C      1  0.5817020000000  0.4984040000000  0.5651050000000 1.0
C      1  0.5370780000000  0.4995220000000  0.5913820000000 1.0
C      1  0.5427000000000  0.5228280000000  0.5777900000000 1.0
C      1  0.5386360000000  0.4114090000000  0.5124580000000 1.0
C      1  0.5361560000000  0.5754980000000  0.5370240000000 1.0
C      1  0.5563750000000  0.4803550000000  0.5615600000000 1.0
C      1  0.5863310000000  0.4838920000000  0.5016650000000 1.0
C      1  0.4482450000000  0.4193540000000  0.4801220000000 1.0
C      1  0.4655610000000  0.5772680000000  0.4962650000000 1.0
C      1  0.3939460000000  0.4766560000000  0.4881560000000 1.0
C      1  0.4831390000000  0.5451590000000  0.5787180000000 1.0
C      1  0.5839950000000  0.5169810000000  0.4589210000000 1.0
C      1  0.5031070000000  0.5649750000000  0.5755940000000 1.0
C      1  0.4764200000000  0.5106820000000  0.4697250000000 1.0
C      1  0.5353960000000  0.4122390000000  0.4842850000000 1.0
C      1  0.5463360000000  0.5364380000000  0.5407320000000 1.0
C      1  0.4163140000000  0.5199840000000  0.4791310000000 1.0
C      1  0.5790440000000  0.5125030000000  0.5281030000000 1.0
C      1  0.4824660000000  0.4436370000000  0.5727830000000 1.0
C      1  0.4135630000000  0.5521670000000  0.5184870000000 1.0
C      1  0.4421920000000  0.5657620000000  0.5155950000000 1.0
C      1  0.5716030000000  0.5462620000000  0.4513770000000 1.0
C      1  0.4264140000000  0.4289530000000  0.4678960000000 1.0
C      1  0.5000230000000  0.4966440000000  0.3978760000000 1.0
C      1  0.5255210000000  0.5686460000000  0.5074270000000 1.0
C      1  0.5281280000000  0.4298470000000  0.4406610000000 1.0
C      1  0.5095910000000  0.5648020000000  0.4268050000000 1.0
C      1  0.5184950000000  0.5336680000000  0.5560800000000 1.0
C      1  0.5442270000000  0.4840810000000  0.4813780000000 1.0
C      1  0.4566200000000  0.5463600000000  0.5630340000000 1.0
C      1  0.5020190000000  0.5860980000000  0.4525880000000 1.0
C      1  0.5361090000000  0.5234820000000  0.4108210000000 1.0
C      1  0.5738340000000  0.4884980000000  0.4702850000000 1.0
C      1  0.4978130000000  0.4274230000000  0.5329640000000 1.0
C      1  0.4245230000000  0.4421770000000  0.5177630000000 1.0
C      1  0.4677190000000  0.5335000000000  0.4882060000000 1.0
C      1  0.5120290000000  0.5372230000000  0.4111050000000 1.0
C      1  0.4620790000000  0.5410850000000  0.4239670000000 1.0
C      1  0.4770750000000  0.4598840000000  0.4670930000000 1.0
C      1  0.5747770000000  0.4513900000000  0.5242710000000 1.0
C      1  0.5080930000000  0.4774940000000  0.5534170000000 1.0
C      1  0.4396690000000  0.4657630000000  0.5328870000000 1.0
C      1  0.5562690000000  0.4750950000000  0.4443470000000 1.0
C      1  0.5197170000000  0.4748010000000  0.5841530000000 1.0
C      1  0.5250950000000  0.5114330000000  0.4855740000000 1.0
C      1  0.4246760000000  0.5450190000000  0.4593680000000 1.0
C      1  0.4464480000000  0.4866720000000  0.4299500000000 1.0
C      1  0.5631320000000  0.5638370000000  0.5201650000000 1.0
C      1  0.4637960000000  0.4884240000000  0.5106900000000 1.0
C      1  0.4909810000000  0.4886180000000  0.5877960000000 1.0
C      1  0.4819200000000  0.5224980000000  0.4110280000000 1.0
C      1  0.5482740000000  0.5544750000000  0.4907830000000 1.0
C      1  0.4911420000000  0.5889130000000  0.5064800000000 1.0
C      1  0.4851760000000  0.5660510000000  0.4736910000000 1.0
C      1  0.4848550000000  0.3967870000000  0.4981180000000 1.0
C      1  0.5640470000000  0.4499460000000  0.4640060000000 1.0
C      1  0.4094710000000  0.4518990000000  0.4958300000000 1.0
C      1  0.4484510000000  0.4698440000000  0.4545660000000 1.0
C      1  0.4963860000000  0.5189500000000  0.4481510000000 1.0
C      1  0.5511360000000  0.5191970000000  0.4588620000000 1.0
C      1  0.4639600000000  0.4479190000000  0.5169140000000 1.0
C      1  0.4912400000000  0.4663510000000  0.4221000000000 1.0
C      1  0.5145750000000  0.5908240000000  0.4840500000000 1.0
C      1  0.4305730000000  0.5269910000000  0.5709630000000 1.0
C      1  0.5697010000000  0.4563650000000  0.4945670000000 1.0
C      1  0.5132590000000  0.4055790000000  0.5248220000000 1.0
C      1  0.5344530000000  0.5448480000000  0.4651630000000 1.0
C      1  0.4994950000000  0.5066160000000  0.5511950000000 1.0
C      1  0.4210520000000  0.4604710000000  0.4644780000000 1.0
C      1  0.5405890000000  0.4982210000000  0.4280530000000 1.0
C      1  0.4745800000000  0.4387850000000  0.4894050000000 1.0
C      1  0.5525440000000  0.4275970000000  0.5343560000000 1.0
C      1  0.5263650000000  0.5111400000000  0.5202130000000 1.0
C      1  0.5869960000000  0.4810170000000  0.5358940000000 1.0
C      1  0.5029620000000  0.4128310000000  0.4785170000000 1.0
C      1  0.4483260000000  0.4209430000000  0.5299200000000 1.0
C      1  0.5146970000000  0.5378440000000  0.5046970000000 1.0
C      1  0.5331020000000  0.4822270000000  0.5115240000000 1.0
C      1  0.4554980000000  0.5136340000000  0.5535850000000 1.0
C      1  0.4966320000000  0.5797020000000  0.5327300000000 1.0
C      1  0.4389160000000  0.5445350000000  0.4892070000000 1.0
C      1  0.5083800000000  0.4447340000000  0.4890530000000 1.0
C      1  0.4915450000000  0.5182480000000  0.5812550000000 1.0
C      1  0.4519360000000  0.5698650000000  0.5446710000000 1.0
C      1  0.4562060000000  0.5945200000000  0.5534790000000 1.0
C      1  0.5290990000000  0.4603200000000  0.4332570000000 1.0
C      1  0.5018780000000  0.4905070000000  0.4764840000000 1.0
C      1  0.5120190000000  0.4444520000000  0.5754950000000 1.0
C      1  0.5307990000000  0.4310550000000  0.5604280000000 1.0
C      1  0.5956380000000  0.5406240000000  0.5216900000000 1.0
C      1  0.4337750000000  0.4966150000000  0.5246970000000 1.0
C      1  0.4712680000000  0.4700360000000  0.5790140000000 1.0
C      1  0.5096080000000  0.5009490000000  0.4301650000000 1.0
C      1  0.5709250000000  0.5250960000000  0.5697400000000 1.0
C      1  0.5065520000000  0.5466560000000  0.4551050000000 1.0
C      1  0.5190820000000  0.4692070000000  0.4034240000000 1.0
C      1  0.5507960000000  0.5035340000000  0.5403580000000 1.0
C      1  0.4256960000000  0.5051790000000  0.4357440000000 1.0
C      1  0.5400450000000  0.5940650000000  0.4628660000000 1.0
C      1  0.4765390000000  0.5105480000000  0.5302020000000 1.0
C      1  0.4544290000000  0.4827770000000  0.5560250000000 1.0
C      1  0.5016140000000  0.4220570000000  0.4478290000000 1.0
C      1  0.4838030000000  0.5349410000000  0.5132050000000 1.0
C      1  0.4154830000000  0.5193740000000  0.5095500000000 1.0
C      1  0.4102830000000  0.4932010000000  0.4632800000000 1.0
C      1  0.4775830000000  0.5693440000000  0.4348660000000 1.0
C      1  0.4741840000000  0.4277730000000  0.5497880000000 1.0
C      1  0.4329890000000  0.5326950000000  0.4349100000000 1.0
END
