TITL C-2778422-5617-1243 0.00115330147998633 125000 -509.949271815908 0 0 88 (C1) n - 1
REM
REM in /home/nfs/bkarasulu/CARBON/AIRSS/Generating-Clusters/REBO/Only-C1/SD-CG/HFTN-CG
REM
REM
REM
REM
REM
REM ./C.cell (11c1c37f851c82e70ff6c80c92926a4b)
REM
REM compiler GCC version 9.2.1 20190827 (Red Hat 9.2.1-1)
REM options -cpp -mtune=generic -march=x86-64 -g -O0 -fpre-include=/usr/include/finclude/math-vector-fortran.h
REM seed 1896570288 395462177 -1388078378 581291441 1773726778 1492127048 -746769623 -1467399834 514397296 1933210716 1029018496 -397176889 -904127255 -1320931793 259045519 290244599 -1520279514 -810621111 2108408588 732884691 -2069633052 -1150801243 -1961588498 -1376421118 280490462 1007237637 642903881 812237576 -1086005902 645029428 1178355859 736320119 -1808234896
REM
CELL 1.54180   50.00000   50.00000   50.00000   90.00000   90.00000   90.00000
LATT -1
SFAC C  
C      1  0.4695670000000  0.5290300000000  0.5860630000000 1.0
C      1  0.5032650000000  0.4569960000000  0.4453930000000 1.0
C      1  0.5155190000000  0.5740810000000  0.5227590000000 1.0
C      1  0.4489870000000  0.5264350000000  0.5227310000000 1.0
C      1  0.5231480000000  0.5580990000000  0.5685970000000 1.0
C      1  0.5258640000000  0.5288530000000  0.5056730000000 1.0
C      1  0.5315860000000  0.4798450000000  0.4910180000000 1.0
C      1  0.5198100000000  0.5839990000000  0.4904050000000 1.0
C      1  0.5005080000000  0.5372740000000  0.5267380000000 1.0
C      1  0.4678160000000  0.4975620000000  0.4232830000000 1.0
C      1  0.4899450000000  0.4609260000000  0.4962630000000 1.0
C      1  0.5467500000000  0.4890590000000  0.4282560000000 1.0
C      1  0.4550580000000  0.4420820000000  0.4998410000000 1.0
C      1  0.4518030000000  0.5315210000000  0.5641120000000 1.0
C      1  0.5504240000000  0.4256080000000  0.5322520000000 1.0
C      1  0.5192830000000  0.5167170000000  0.4568790000000 1.0
C      1  0.5258800000000  0.4179300000000  0.5209080000000 1.0
C      1  0.5487570000000  0.4402770000000  0.5563660000000 1.0
C      1  0.4675080000000  0.5439660000000  0.4354790000000 1.0
C      1  0.5748190000000  0.5147230000000  0.5448680000000 1.0
C      1  0.4803500000000  0.5234510000000  0.4227470000000 1.0
C      1  0.4607520000000  0.4549740000000  0.4692970000000 1.0
C      1  0.5159350000000  0.4545150000000  0.4916130000000 1.0
C      1  0.4847350000000  0.5658060000000  0.5259990000000 1.0
C      1  0.4316850000000  0.4693460000000  0.4588800000000 1.0
C      1  0.4193150000000  0.4798450000000  0.5150770000000 1.0
C      1  0.5206050000000  0.5087760000000  0.5462460000000 1.0
C      1  0.4695530000000  0.5777590000000  0.5017290000000 1.0
C      1  0.5058770000000  0.4831830000000  0.5347030000000 1.0
C      1  0.4386410000000  0.4913300000000  0.4339170000000 1.0
C      1  0.5108370000000  0.4668560000000  0.5708630000000 1.0
C      1  0.5152300000000  0.4977210000000  0.5084720000000 1.0
C      1  0.5570370000000  0.5119140000000  0.4446130000000 1.0
C      1  0.4166090000000  0.4963610000000  0.4688360000000 1.0
C      1  0.5776310000000  0.5025890000000  0.4915410000000 1.0
C      1  0.5380410000000  0.5983780000000  0.5137220000000 1.0
C      1  0.5671460000000  0.5623960000000  0.5440820000000 1.0
C      1  0.4566670000000  0.5436240000000  0.4662350000000 1.0
C      1  0.5654500000000  0.5243890000000  0.4751690000000 1.0
C      1  0.4575240000000  0.5234600000000  0.4912500000000 1.0
C      1  0.4606850000000  0.4575580000000  0.5550140000000 1.0
C      1  0.4948440000000  0.5183410000000  0.5793030000000 1.0
C      1  0.5101110000000  0.5227680000000  0.4251870000000 1.0
C      1  0.5111130000000  0.4531800000000  0.5337170000000 1.0
C      1  0.5541260000000  0.4876580000000  0.5487720000000 1.0
C      1  0.5274850000000  0.4905310000000  0.4629620000000 1.0
C      1  0.5421210000000  0.5327370000000  0.4283580000000 1.0
C      1  0.4629120000000  0.5469250000000  0.5410550000000 1.0
C      1  0.3760450000000  0.5185750000000  0.4433700000000 1.0
C      1  0.4290780000000  0.5058680000000  0.4950340000000 1.0
C      1  0.4860870000000  0.4767510000000  0.4353030000000 1.0
C      1  0.4951970000000  0.4232040000000  0.5313200000000 1.0
C      1  0.4667920000000  0.4879550000000  0.4619080000000 1.0
C      1  0.4285910000000  0.4605190000000  0.4916530000000 1.0
C      1  0.5801450000000  0.5430380000000  0.5530990000000 1.0
C      1  0.5233150000000  0.4253680000000  0.4928430000000 1.0
C      1  0.4951770000000  0.4217000000000  0.4821860000000 1.0
C      1  0.5206370000000  0.5366840000000  0.4762820000000 1.0
C      1  0.5157890000000  0.5640820000000  0.4715760000000 1.0
C      1  0.5588630000000  0.5510360000000  0.4958730000000 1.0
C      1  0.4747970000000  0.4874020000000  0.4920450000000 1.0
C      1  0.4594330000000  0.4959180000000  0.5201210000000 1.0
C      1  0.3961800000000  0.5075480000000  0.4560110000000 1.0
C      1  0.5346940000000  0.4639110000000  0.4446140000000 1.0
C      1  0.5456730000000  0.5144090000000  0.5281970000000 1.0
C      1  0.5712550000000  0.4293930000000  0.5142840000000 1.0
C      1  0.4877760000000  0.4403390000000  0.4620460000000 1.0
C      1  0.4540820000000  0.4622590000000  0.5224220000000 1.0
C      1  0.5490960000000  0.5667350000000  0.5196990000000 1.0
C      1  0.5489020000000  0.5583380000000  0.4386540000000 1.0
C      1  0.4895380000000  0.4433800000000  0.5582110000000 1.0
C      1  0.5543310000000  0.5553750000000  0.4656880000000 1.0
C      1  0.5607820000000  0.4747520000000  0.4965890000000 1.0
C      1  0.5282320000000  0.4999210000000  0.4101870000000 1.0
C      1  0.4949000000000  0.4912560000000  0.5721380000000 1.0
C      1  0.5101290000000  0.5357750000000  0.5586970000000 1.0
C      1  0.5757360000000  0.4891540000000  0.5223640000000 1.0
C      1  0.5551890000000  0.4451850000000  0.4589750000000 1.0
C      1  0.4346170000000  0.4781180000000  0.5456960000000 1.0
C      1  0.4755580000000  0.4861730000000  0.5459720000000 1.0
C      1  0.4487640000000  0.5141490000000  0.4540310000000 1.0
C      1  0.4772320000000  0.4218640000000  0.5052090000000 1.0
C      1  0.4597390000000  0.5707420000000  0.4801640000000 1.0
C      1  0.5669780000000  0.4484250000000  0.4816130000000 1.0
C      1  0.4351100000000  0.5096790000000  0.5568810000000 1.0
C      1  0.4200100000000  0.5106030000000  0.5276490000000 1.0
C      1  0.4880620000000  0.5170120000000  0.5023780000000 1.0
C      1  0.5381740000000  0.4660490000000  0.5617770000000 1.0
END
