TITL C-2778436-5916-478 0.00262333873945473 125000 -495.576067223685 0 0 84 (C1) n - 1
REM
REM in /home/nfs/bkarasulu/CARBON/AIRSS/Generating-Clusters/REBO/Only-C1/SD-CG/HFTN-CG
REM
REM
REM
REM
REM
REM ./C.cell (11c1c37f851c82e70ff6c80c92926a4b)
REM
REM compiler GCC version 9.2.1 20190827 (Red Hat 9.2.1-1)
REM options -cpp -mtune=generic -march=x86-64 -g -O0 -fpre-include=/usr/include/finclude/math-vector-fortran.h
REM seed -1670723840 95041553 839747149 -760326652 -2056175215 1119573716 -50561382 81655293 -958638129 1718943994 1363886132 -604032595 -1757581421 1841864944 -594176428 1270625517 802169696 -1499357336 -17103395 -595102630 -969269973 1746318659 1293767046 -1573882668 916067410 700232588 1464826119 958982470 599727882 507276943 557984189 1050210045 1889855475
REM
CELL 1.54180   50.00000   50.00000   50.00000   90.00000   90.00000   90.00000
LATT -1
SFAC C  
C      1  0.4764150000000  0.4765320000000  0.4699030000000 1.0
C      1  0.4951760000000  0.5743570000000  0.5349320000000 1.0
C      1  0.4664650000000  0.4914190000000  0.5159870000000 1.0
C      1  0.4717210000000  0.5298930000000  0.5957980000000 1.0
C      1  0.5166480000000  0.5091020000000  0.4732460000000 1.0
C      1  0.4619090000000  0.4555530000000  0.4504760000000 1.0
C      1  0.5050480000000  0.5275430000000  0.4962660000000 1.0
C      1  0.4781970000000  0.4822420000000  0.6049030000000 1.0
C      1  0.4965440000000  0.5818430000000  0.5016490000000 1.0
C      1  0.4281150000000  0.5426380000000  0.4953190000000 1.0
C      1  0.5468050000000  0.4460750000000  0.4484860000000 1.0
C      1  0.5559390000000  0.5664430000000  0.4891510000000 1.0
C      1  0.5229020000000  0.5871650000000  0.5206190000000 1.0
C      1  0.5522680000000  0.5099210000000  0.5597420000000 1.0
C      1  0.4916280000000  0.5408610000000  0.5322570000000 1.0
C      1  0.4755500000000  0.4766010000000  0.5637300000000 1.0
C      1  0.5063250000000  0.5742830000000  0.4523690000000 1.0
C      1  0.5408000000000  0.4795440000000  0.4851940000000 1.0
C      1  0.5689580000000  0.5174140000000  0.4927300000000 1.0
C      1  0.5027890000000  0.4089980000000  0.4887860000000 1.0
C      1  0.4906740000000  0.4626760000000  0.5294700000000 1.0
C      1  0.5113780000000  0.5561940000000  0.4873770000000 1.0
C      1  0.4740330000000  0.5557380000000  0.5860030000000 1.0
C      1  0.5305030000000  0.4666100000000  0.5452550000000 1.0
C      1  0.5199080000000  0.5236990000000  0.5235940000000 1.0
C      1  0.4950720000000  0.5291890000000  0.4577060000000 1.0
C      1  0.5747310000000  0.5449010000000  0.4890420000000 1.0
C      1  0.4272020000000  0.4967290000000  0.4499660000000 1.0
C      1  0.4299230000000  0.5214760000000  0.4711400000000 1.0
C      1  0.4864560000000  0.5826180000000  0.4712540000000 1.0
C      1  0.4372140000000  0.4819710000000  0.5015790000000 1.0
C      1  0.4865980000000  0.4938640000000  0.5414220000000 1.0
C      1  0.4494950000000  0.5470130000000  0.4598420000000 1.0
C      1  0.5488350000000  0.4277220000000  0.4836580000000 1.0
C      1  0.5397240000000  0.4283960000000  0.5109020000000 1.0
C      1  0.5343880000000  0.4643150000000  0.4307780000000 1.0
C      1  0.5164710000000  0.4931840000000  0.5292910000000 1.0
C      1  0.4674660000000  0.4302850000000  0.5264620000000 1.0
C      1  0.4920270000000  0.5610920000000  0.5660600000000 1.0
C      1  0.4993400000000  0.4897750000000  0.4545420000000 1.0
C      1  0.5319410000000  0.4210270000000  0.4587060000000 1.0
C      1  0.5446310000000  0.5462550000000  0.5293490000000 1.0
C      1  0.4736550000000  0.4093770000000  0.4734560000000 1.0
C      1  0.4700230000000  0.4347360000000  0.4958780000000 1.0
C      1  0.5399030000000  0.5355370000000  0.5560510000000 1.0
C      1  0.4282770000000  0.5327560000000  0.5237960000000 1.0
C      1  0.4968670000000  0.4997510000000  0.4289900000000 1.0
C      1  0.4550970000000  0.4986800000000  0.4784690000000 1.0
C      1  0.4969790000000  0.4234910000000  0.5343320000000 1.0
C      1  0.4391260000000  0.4762920000000  0.4426760000000 1.0
C      1  0.5352780000000  0.5658750000000  0.4653210000000 1.0
C      1  0.4687290000000  0.5245100000000  0.4634490000000 1.0
C      1  0.5097070000000  0.5342440000000  0.5607080000000 1.0
C      1  0.5312280000000  0.4911220000000  0.5663040000000 1.0
C      1  0.5478390000000  0.5070400000000  0.4724200000000 1.0
C      1  0.4521370000000  0.4605390000000  0.5203640000000 1.0
C      1  0.5740180000000  0.4986030000000  0.5135600000000 1.0
C      1  0.4632750000000  0.4527880000000  0.5510120000000 1.0
C      1  0.5731320000000  0.5039850000000  0.5413010000000 1.0
C      1  0.4852940000000  0.5049200000000  0.5917270000000 1.0
C      1  0.4873950000000  0.4617230000000  0.4956270000000 1.0
C      1  0.4597240000000  0.5731440000000  0.4698440000000 1.0
C      1  0.5448380000000  0.5703440000000  0.5149620000000 1.0
C      1  0.5006160000000  0.4195530000000  0.4561940000000 1.0
C      1  0.5140820000000  0.4157540000000  0.5131290000000 1.0
C      1  0.5477450000000  0.5465000000000  0.4437980000000 1.0
C      1  0.5071420000000  0.5062750000000  0.5738550000000 1.0
C      1  0.4758670000000  0.5189440000000  0.5030850000000 1.0
C      1  0.5494190000000  0.4518600000000  0.5254720000000 1.0
C      1  0.5452420000000  0.4891960000000  0.4260760000000 1.0
C      1  0.4606130000000  0.5422730000000  0.5183330000000 1.0
C      1  0.5648780000000  0.4703780000000  0.5058380000000 1.0
C      1  0.4103650000000  0.5123310000000  0.5297020000000 1.0
C      1  0.4484190000000  0.5647010000000  0.4956940000000 1.0
C      1  0.4976680000000  0.5253590000000  0.4181000000000 1.0
C      1  0.4512060000000  0.4329630000000  0.4684740000000 1.0
C      1  0.5073670000000  0.4577900000000  0.4249730000000 1.0
C      1  0.4890920000000  0.4432290000000  0.4389080000000 1.0
C      1  0.5152730000000  0.4773200000000  0.5015680000000 1.0
C      1  0.5522050000000  0.5212890000000  0.4448190000000 1.0
C      1  0.5082700000000  0.4451690000000  0.5518100000000 1.0
C      1  0.5620630000000  0.4561110000000  0.4754470000000 1.0
C      1  0.4104500000000  0.4902170000000  0.5135400000000 1.0
C      1  0.5012850000000  0.5501700000000  0.4359950000000 1.0
END
