TITL C-2778423-5760-874 -0.000921420698775827 125000 -665.365217658887 0 0 116 (C1) n - 1
REM
REM in /home/nfs/bkarasulu/CARBON/AIRSS/Generating-Clusters/REBO/Only-C1/SD-CG/HFTN-CG
REM
REM
REM
REM
REM
REM ./C.cell (11c1c37f851c82e70ff6c80c92926a4b)
REM
REM compiler GCC version 9.2.1 20190827 (Red Hat 9.2.1-1)
REM options -cpp -mtune=generic -march=x86-64 -g -O0 -fpre-include=/usr/include/finclude/math-vector-fortran.h
REM seed -609162834 -809269951 -941967347 -1320013715 -957818230 1319020629 -2107671749 1493235677 -2124698933 -1372526263 -825035331 -2142776262 848952737 1627107745 763329420 2132489178 2141199906 -1406993435 -817642260 1218011988 1850207197 -1121754722 -1748468461 1102250368 1601415219 -1172454811 501432743 1591035958 -1339287309 -952633654 593357948 -1511250725 -1074219099
REM
CELL 1.54180   50.00000   50.00000   50.00000   90.00000   90.00000   90.00000
LATT -1
SFAC C  
C      1  0.5666500000000  0.4448470000000  0.4726880000000 1.0
C      1  0.5235080000000  0.4547760000000  0.4881410000000 1.0
C      1  0.5399650000000  0.5091850000000  0.5160570000000 1.0
C      1  0.5384280000000  0.4306100000000  0.4601310000000 1.0
C      1  0.4483120000000  0.5747290000000  0.4665710000000 1.0
C      1  0.4096540000000  0.5347660000000  0.5300300000000 1.0
C      1  0.5271210000000  0.4873810000000  0.5353000000000 1.0
C      1  0.4379650000000  0.5423020000000  0.4634090000000 1.0
C      1  0.4665620000000  0.4987740000000  0.4480420000000 1.0
C      1  0.4486180000000  0.4928980000000  0.5830480000000 1.0
C      1  0.4722670000000  0.4597320000000  0.5100250000000 1.0
C      1  0.4680030000000  0.4327090000000  0.5418640000000 1.0
C      1  0.5242340000000  0.4432460000000  0.5807540000000 1.0
C      1  0.5134630000000  0.5744600000000  0.4553700000000 1.0
C      1  0.5796010000000  0.5138110000000  0.5433690000000 1.0
C      1  0.4737830000000  0.4516440000000  0.5676810000000 1.0
C      1  0.4701050000000  0.5521550000000  0.4565790000000 1.0
C      1  0.4964800000000  0.4586930000000  0.5898130000000 1.0
C      1  0.4911910000000  0.5667020000000  0.4729350000000 1.0
C      1  0.5424780000000  0.4286070000000  0.4991760000000 1.0
C      1  0.4316590000000  0.5540210000000  0.5455550000000 1.0
C      1  0.4618320000000  0.5465980000000  0.5473830000000 1.0
C      1  0.5424710000000  0.5035670000000  0.4823510000000 1.0
C      1  0.4480000000000  0.4680780000000  0.5715140000000 1.0
C      1  0.4130570000000  0.5009060000000  0.5307350000000 1.0
C      1  0.4138630000000  0.4539610000000  0.4794780000000 1.0
C      1  0.4542200000000  0.5923560000000  0.4879640000000 1.0
C      1  0.5615060000000  0.5375520000000  0.5541260000000 1.0
C      1  0.5106070000000  0.4892690000000  0.5835140000000 1.0
C      1  0.4870630000000  0.4176070000000  0.4548030000000 1.0
C      1  0.5114730000000  0.4840660000000  0.4251650000000 1.0
C      1  0.5152110000000  0.4139430000000  0.5096110000000 1.0
C      1  0.4937970000000  0.4630630000000  0.5435670000000 1.0
C      1  0.4369220000000  0.4384440000000  0.5283920000000 1.0
C      1  0.4885250000000  0.4675650000000  0.4736170000000 1.0
C      1  0.4223440000000  0.5620090000000  0.5136470000000 1.0
C      1  0.5180120000000  0.5658120000000  0.5375270000000 1.0
C      1  0.5405470000000  0.4354590000000  0.5560100000000 1.0
C      1  0.4226020000000  0.4845040000000  0.4927690000000 1.0
C      1  0.6017490000000  0.5058110000000  0.4960660000000 1.0
C      1  0.4742430000000  0.5414910000000  0.5220670000000 1.0
C      1  0.5982650000000  0.5285920000000  0.5188380000000 1.0
C      1  0.4703030000000  0.4946150000000  0.4802280000000 1.0
C      1  0.4371630000000  0.5896350000000  0.5099870000000 1.0
C      1  0.4732060000000  0.4054350000000  0.5278360000000 1.0
C      1  0.4377460000000  0.4374100000000  0.4635080000000 1.0
C      1  0.5179470000000  0.5151220000000  0.5498750000000 1.0
C      1  0.5428300000000  0.4967520000000  0.5751600000000 1.0
C      1  0.4618230000000  0.4159950000000  0.4673660000000 1.0
C      1  0.5832730000000  0.5162260000000  0.4690870000000 1.0
C      1  0.5135610000000  0.5840280000000  0.5111410000000 1.0
C      1  0.4987680000000  0.5108570000000  0.4896790000000 1.0
C      1  0.5904810000000  0.5530960000000  0.5061400000000 1.0
C      1  0.4629720000000  0.5261280000000  0.4192440000000 1.0
C      1  0.4089990000000  0.4823700000000  0.4627040000000 1.0
C      1  0.5173990000000  0.4842160000000  0.4953510000000 1.0
C      1  0.4405830000000  0.5164590000000  0.4414610000000 1.0
C      1  0.4553500000000  0.4703730000000  0.5376290000000 1.0
C      1  0.5685280000000  0.5180100000000  0.4395710000000 1.0
C      1  0.4038690000000  0.5164560000000  0.5019020000000 1.0
C      1  0.4208630000000  0.5399990000000  0.4897800000000 1.0
C      1  0.5134800000000  0.5571580000000  0.4281570000000 1.0
C      1  0.5191930000000  0.4690400000000  0.5594700000000 1.0
C      1  0.5597080000000  0.4814920000000  0.5105270000000 1.0
C      1  0.5608740000000  0.4549470000000  0.5021420000000 1.0
C      1  0.6024210000000  0.4881050000000  0.4685820000000 1.0
C      1  0.4730460000000  0.5863490000000  0.5481050000000 1.0
C      1  0.5815300000000  0.5553260000000  0.4759080000000 1.0
C      1  0.5586690000000  0.5600030000000  0.5083760000000 1.0
C      1  0.4806940000000  0.4836590000000  0.4209980000000 1.0
C      1  0.4939900000000  0.5685720000000  0.5563060000000 1.0
C      1  0.5548760000000  0.4543760000000  0.4420460000000 1.0
C      1  0.4992350000000  0.4357600000000  0.5274710000000 1.0
C      1  0.5560780000000  0.5268460000000  0.4172540000000 1.0
C      1  0.5611920000000  0.5308760000000  0.4905470000000 1.0
C      1  0.4896500000000  0.4397410000000  0.4362720000000 1.0
C      1  0.5314000000000  0.4148760000000  0.5386820000000 1.0
C      1  0.4886620000000  0.5612890000000  0.5062470000000 1.0
C      1  0.5621050000000  0.4862650000000  0.5545010000000 1.0
C      1  0.4693910000000  0.4575860000000  0.4275010000000 1.0
C      1  0.5548290000000  0.4924420000000  0.4541890000000 1.0
C      1  0.5213580000000  0.5361620000000  0.5253960000000 1.0
C      1  0.4435480000000  0.4589300000000  0.4968840000000 1.0
C      1  0.4464610000000  0.5024580000000  0.5375480000000 1.0
C      1  0.4241810000000  0.4700590000000  0.5298820000000 1.0
C      1  0.4485360000000  0.4980090000000  0.5037660000000 1.0
C      1  0.4370620000000  0.4264360000000  0.4965250000000 1.0
C      1  0.4470640000000  0.5824140000000  0.5374620000000 1.0
C      1  0.4770200000000  0.5132400000000  0.5144910000000 1.0
C      1  0.4873380000000  0.4374090000000  0.4894580000000 1.0
C      1  0.5412290000000  0.5262090000000  0.5699290000000 1.0
C      1  0.5286810000000  0.5300220000000  0.4137730000000 1.0
C      1  0.5394040000000  0.5802660000000  0.4954620000000 1.0
C      1  0.5265940000000  0.4562030000000  0.5223710000000 1.0
C      1  0.5591080000000  0.5598270000000  0.4573760000000 1.0
C      1  0.4603670000000  0.5108660000000  0.5650260000000 1.0
C      1  0.5379370000000  0.4771070000000  0.4289750000000 1.0
C      1  0.4926480000000  0.5140930000000  0.5697810000000 1.0
C      1  0.4295270000000  0.4848840000000  0.4425320000000 1.0
C      1  0.5383490000000  0.5784550000000  0.4675450000000 1.0
C      1  0.5513080000000  0.5588990000000  0.5381260000000 1.0
C      1  0.5848610000000  0.4921250000000  0.5195320000000 1.0
C      1  0.5154390000000  0.5335260000000  0.4959190000000 1.0
C      1  0.5118300000000  0.4174880000000  0.4762510000000 1.0
C      1  0.5111390000000  0.5203520000000  0.4419390000000 1.0
C      1  0.5126120000000  0.4517120000000  0.4560020000000 1.0
C      1  0.4916880000000  0.4838010000000  0.5177880000000 1.0
C      1  0.4442200000000  0.4595210000000  0.4407080000000 1.0
C      1  0.5797030000000  0.4709240000000  0.4581320000000 1.0
C      1  0.5362900000000  0.5421810000000  0.4501020000000 1.0
C      1  0.5542230000000  0.4594940000000  0.5432290000000 1.0
C      1  0.4838810000000  0.5935070000000  0.4968860000000 1.0
C      1  0.4665620000000  0.4117990000000  0.4986410000000 1.0
C      1  0.4999620000000  0.4934010000000  0.4541240000000 1.0
C      1  0.4822270000000  0.5438780000000  0.5689690000000 1.0
C      1  0.4846010000000  0.5397460000000  0.4328620000000 1.0
END
