TITL C-2778431-5191-1461 0.00497489257933465 125000 -1109.04150389411 0 0 192 (C1) n - 1
REM
REM in /home/nfs/bkarasulu/CARBON/AIRSS/Generating-Clusters/REBO/Only-C1/SD-CG/HFTN-CG
REM
REM
REM
REM
REM
REM ./C.cell (11c1c37f851c82e70ff6c80c92926a4b)
REM
REM compiler GCC version 9.2.1 20190827 (Red Hat 9.2.1-1)
REM options -cpp -mtune=generic -march=x86-64 -g -O0 -fpre-include=/usr/include/finclude/math-vector-fortran.h
REM seed -792661868 -1033116602 1417278398 941226475 -1383764734 -1975127914 -1295675289 -511301750 -885198190 -475580005 -1841343073 225110647 310710631 1264712677 -674608872 75342855 -910428641 1707373320 -681950797 615449752 1098536593 1695459269 1038347373 -1813738406 1902086593 479636328 756190258 777635310 -2005314175 443017398 -997020967 2117243358 1297265548
REM
CELL 1.54180   50.00000   50.00000   50.00000   90.00000   90.00000   90.00000
LATT -1
SFAC C  
C      1  0.5080880000000  0.4639150000000  0.6156560000000 1.0
C      1  0.5688930000000  0.5236840000000  0.4165020000000 1.0
C      1  0.4858680000000  0.5450340000000  0.5572100000000 1.0
C      1  0.4965130000000  0.4545140000000  0.4411120000000 1.0
C      1  0.5806790000000  0.5636740000000  0.5416580000000 1.0
C      1  0.4709790000000  0.5261680000000  0.5770460000000 1.0
C      1  0.4738030000000  0.5741150000000  0.4435020000000 1.0
C      1  0.4691650000000  0.4678660000000  0.5021210000000 1.0
C      1  0.5319930000000  0.4814990000000  0.4224400000000 1.0
C      1  0.5600260000000  0.5429010000000  0.5796070000000 1.0
C      1  0.4883030000000  0.5597280000000  0.5058020000000 1.0
C      1  0.4811700000000  0.5472640000000  0.6014680000000 1.0
C      1  0.5343390000000  0.5557220000000  0.5925900000000 1.0
C      1  0.4784010000000  0.4944770000000  0.4627720000000 1.0
C      1  0.4326210000000  0.5245060000000  0.5399610000000 1.0
C      1  0.5460770000000  0.5453150000000  0.5472960000000 1.0
C      1  0.5052610000000  0.5956560000000  0.5330990000000 1.0
C      1  0.4334810000000  0.4377700000000  0.5521490000000 1.0
C      1  0.5168400000000  0.5486590000000  0.5529960000000 1.0
C      1  0.5956450000000  0.4877220000000  0.4570770000000 1.0
C      1  0.5575920000000  0.5828440000000  0.5362420000000 1.0
C      1  0.5133180000000  0.5440550000000  0.4672030000000 1.0
C      1  0.5727080000000  0.5316030000000  0.4766400000000 1.0
C      1  0.5033330000000  0.5666300000000  0.5289360000000 1.0
C      1  0.5613500000000  0.4182320000000  0.5401530000000 1.0
C      1  0.4446640000000  0.5045130000000  0.4181340000000 1.0
C      1  0.5712070000000  0.4886490000000  0.4220960000000 1.0
C      1  0.5712670000000  0.5104220000000  0.5193950000000 1.0
C      1  0.5064250000000  0.4391150000000  0.5327270000000 1.0
C      1  0.5335170000000  0.4816870000000  0.4524020000000 1.0
C      1  0.5832960000000  0.4359200000000  0.5365990000000 1.0
C      1  0.4985410000000  0.4719570000000  0.4688160000000 1.0
C      1  0.3930320000000  0.4766920000000  0.5107030000000 1.0
C      1  0.4241170000000  0.4191190000000  0.4731720000000 1.0
C      1  0.4824460000000  0.4834180000000  0.4344440000000 1.0
C      1  0.5191580000000  0.5350530000000  0.5106470000000 1.0
C      1  0.4936670000000  0.4595080000000  0.5522210000000 1.0
C      1  0.4616010000000  0.5246190000000  0.5224860000000 1.0
C      1  0.4406810000000  0.5815470000000  0.5615480000000 1.0
C      1  0.4093170000000  0.5705960000000  0.4452780000000 1.0
C      1  0.4480690000000  0.5333540000000  0.4449730000000 1.0
C      1  0.4629910000000  0.4555790000000  0.5522710000000 1.0
C      1  0.4538000000000  0.4204980000000  0.5123800000000 1.0
C      1  0.4547640000000  0.5618830000000  0.4181490000000 1.0
C      1  0.3933460000000  0.4662720000000  0.4641620000000 1.0
C      1  0.5183790000000  0.4762790000000  0.4940080000000 1.0
C      1  0.5428530000000  0.4000240000000  0.4562100000000 1.0
C      1  0.4300350000000  0.5393410000000  0.5029830000000 1.0
C      1  0.4662060000000  0.4370300000000  0.4219040000000 1.0
C      1  0.5302290000000  0.5873850000000  0.5521480000000 1.0
C      1  0.4742550000000  0.5098350000000  0.4876380000000 1.0
C      1  0.5743190000000  0.4326060000000  0.4556050000000 1.0
C      1  0.4219550000000  0.5781110000000  0.5384520000000 1.0
C      1  0.5822480000000  0.5325950000000  0.5556210000000 1.0
C      1  0.5472510000000  0.5496170000000  0.5168110000000 1.0
C      1  0.6008930000000  0.5407080000000  0.4591990000000 1.0
C      1  0.4920570000000  0.4435750000000  0.4955820000000 1.0
C      1  0.5612330000000  0.4815700000000  0.5523390000000 1.0
C      1  0.4998540000000  0.5633320000000  0.4024870000000 1.0
C      1  0.5413750000000  0.5101120000000  0.5161410000000 1.0
C      1  0.4402680000000  0.5723960000000  0.5095230000000 1.0
C      1  0.5136150000000  0.5153780000000  0.4871310000000 1.0
C      1  0.4560310000000  0.5642610000000  0.5868630000000 1.0
C      1  0.4195610000000  0.5172650000000  0.4340220000000 1.0
C      1  0.4474840000000  0.4687430000000  0.4765510000000 1.0
C      1  0.4287230000000  0.5956900000000  0.4575890000000 1.0
C      1  0.4872010000000  0.4154710000000  0.5712340000000 1.0
C      1  0.3966930000000  0.5360700000000  0.5024680000000 1.0
C      1  0.5376590000000  0.5704930000000  0.4284380000000 1.0
C      1  0.4750410000000  0.4153910000000  0.4425090000000 1.0
C      1  0.5164440000000  0.4092080000000  0.5375310000000 1.0
C      1  0.4919630000000  0.5283130000000  0.5300690000000 1.0
C      1  0.4799420000000  0.4663990000000  0.6178810000000 1.0
C      1  0.4275690000000  0.4640010000000  0.4336280000000 1.0
C      1  0.4898200000000  0.3961880000000  0.5486800000000 1.0
C      1  0.5170930000000  0.5304600000000  0.6012550000000 1.0
C      1  0.4837090000000  0.4205630000000  0.5177650000000 1.0
C      1  0.4454770000000  0.4762160000000  0.4147000000000 1.0
C      1  0.5735310000000  0.4653990000000  0.5306950000000 1.0
C      1  0.5740790000000  0.4594850000000  0.4753080000000 1.0
C      1  0.4360890000000  0.4872970000000  0.6040150000000 1.0
C      1  0.5253360000000  0.5904530000000  0.4491740000000 1.0
C      1  0.5758960000000  0.4989020000000  0.4816880000000 1.0
C      1  0.4884380000000  0.6064250000000  0.5109270000000 1.0
C      1  0.4815770000000  0.4984360000000  0.4046550000000 1.0
C      1  0.5427460000000  0.5624480000000  0.4869250000000 1.0
C      1  0.5251080000000  0.3926950000000  0.5109450000000 1.0
C      1  0.4724930000000  0.5518040000000  0.3977190000000 1.0
C      1  0.5033620000000  0.4909550000000  0.5968100000000 1.0
C      1  0.5146320000000  0.4707980000000  0.5746480000000 1.0
C      1  0.4948990000000  0.4955380000000  0.5080070000000 1.0
C      1  0.5519020000000  0.4329540000000  0.4952770000000 1.0
C      1  0.4594700000000  0.5051910000000  0.6210420000000 1.0
C      1  0.4277010000000  0.4934770000000  0.4781330000000 1.0
C      1  0.4073540000000  0.4311700000000  0.4960790000000 1.0
C      1  0.4328300000000  0.5692200000000  0.4769270000000 1.0
C      1  0.4656190000000  0.4774960000000  0.5931330000000 1.0
C      1  0.4008470000000  0.5026450000000  0.4971430000000 1.0
C      1  0.5821950000000  0.4631460000000  0.4420330000000 1.0
C      1  0.4269560000000  0.4391980000000  0.4455810000000 1.0
C      1  0.6006990000000  0.5130560000000  0.5372600000000 1.0
C      1  0.5995160000000  0.5235390000000  0.5051750000000 1.0
C      1  0.4461990000000  0.4141410000000  0.4476890000000 1.0
C      1  0.4896390000000  0.4902010000000  0.5414030000000 1.0
C      1  0.3938700000000  0.4558410000000  0.4909090000000 1.0
C      1  0.5261990000000  0.5223380000000  0.5726080000000 1.0
C      1  0.4122890000000  0.5483660000000  0.5298800000000 1.0
C      1  0.5831870000000  0.4946430000000  0.5739040000000 1.0
C      1  0.4665720000000  0.4337070000000  0.4770110000000 1.0
C      1  0.4251570000000  0.4297990000000  0.5244390000000 1.0
C      1  0.4798030000000  0.4976470000000  0.5731540000000 1.0
C      1  0.5595190000000  0.5929880000000  0.5056990000000 1.0
C      1  0.5068030000000  0.6164140000000  0.4890310000000 1.0
C      1  0.5367150000000  0.6132150000000  0.4958370000000 1.0
C      1  0.5948070000000  0.4858390000000  0.5172750000000 1.0
C      1  0.5051890000000  0.4159580000000  0.4529390000000 1.0
C      1  0.4581980000000  0.4314710000000  0.5749680000000 1.0
C      1  0.5993790000000  0.4379700000000  0.5116310000000 1.0
C      1  0.5707610000000  0.5766230000000  0.4777370000000 1.0
C      1  0.4298080000000  0.4930780000000  0.5419250000000 1.0
C      1  0.4135340000000  0.5032020000000  0.5912310000000 1.0
C      1  0.5542410000000  0.4615960000000  0.4098520000000 1.0
C      1  0.4129020000000  0.4884400000000  0.4490490000000 1.0
C      1  0.4733090000000  0.5759950000000  0.5534790000000 1.0
C      1  0.5299400000000  0.4800380000000  0.5484220000000 1.0
C      1  0.5242590000000  0.4617870000000  0.5242530000000 1.0
C      1  0.5881580000000  0.5169470000000  0.4429130000000 1.0
C      1  0.5207950000000  0.5416740000000  0.3988370000000 1.0
C      1  0.3961020000000  0.4722920000000  0.5373060000000 1.0
C      1  0.5226540000000  0.5108060000000  0.3838190000000 1.0
C      1  0.5753170000000  0.5469260000000  0.5038820000000 1.0
C      1  0.5005020000000  0.5680190000000  0.4792530000000 1.0
C      1  0.4020870000000  0.5198490000000  0.4677430000000 1.0
C      1  0.5060280000000  0.4367160000000  0.4189260000000 1.0
C      1  0.4975300000000  0.5278740000000  0.4416220000000 1.0
C      1  0.5394010000000  0.5097500000000  0.4121160000000 1.0
C      1  0.5428950000000  0.4257170000000  0.5607840000000 1.0
C      1  0.5661530000000  0.5118120000000  0.5923160000000 1.0
C      1  0.5575330000000  0.4030360000000  0.5108240000000 1.0
C      1  0.4893550000000  0.5748180000000  0.5834700000000 1.0
C      1  0.4564400000000  0.5556230000000  0.5326920000000 1.0
C      1  0.5332930000000  0.4786180000000  0.3883530000000 1.0
C      1  0.4939480000000  0.3880440000000  0.4650610000000 1.0
C      1  0.4846500000000  0.4432920000000  0.3978910000000 1.0
C      1  0.4880760000000  0.5165660000000  0.6118220000000 1.0
C      1  0.5027020000000  0.5762910000000  0.4305430000000 1.0
C      1  0.5427220000000  0.4533510000000  0.5807990000000 1.0
C      1  0.4692570000000  0.4691510000000  0.3984280000000 1.0
C      1  0.5176020000000  0.5071630000000  0.5385610000000 1.0
C      1  0.4465210000000  0.5422210000000  0.5627180000000 1.0
C      1  0.5513410000000  0.4587010000000  0.5081990000000 1.0
C      1  0.4104640000000  0.5044480000000  0.5664540000000 1.0
C      1  0.5335270000000  0.5899660000000  0.4754830000000 1.0
C      1  0.5678420000000  0.4080220000000  0.4781970000000 1.0
C      1  0.5507000000000  0.4399710000000  0.4336800000000 1.0
C      1  0.4727750000000  0.5409800000000  0.4879630000000 1.0
C      1  0.4402820000000  0.4590640000000  0.5849130000000 1.0
C      1  0.5280930000000  0.5326110000000  0.4310490000000 1.0
C      1  0.5422690000000  0.4550620000000  0.4633670000000 1.0
C      1  0.5452420000000  0.5352020000000  0.4602980000000 1.0
C      1  0.5504790000000  0.4879420000000  0.4937050000000 1.0
C      1  0.4047430000000  0.5520690000000  0.4734200000000 1.0
C      1  0.6076750000000  0.5125990000000  0.4772720000000 1.0
C      1  0.5557350000000  0.5049090000000  0.4483040000000 1.0
C      1  0.5162290000000  0.5058280000000  0.4581490000000 1.0
C      1  0.4769800000000  0.3856460000000  0.4871540000000 1.0
C      1  0.4929850000000  0.5946050000000  0.4723160000000 1.0
C      1  0.4249630000000  0.5506100000000  0.4275260000000 1.0
C      1  0.5288150000000  0.4094010000000  0.4842980000000 1.0
C      1  0.4605540000000  0.5958970000000  0.4661150000000 1.0
C      1  0.4915890000000  0.3884210000000  0.5151630000000 1.0
C      1  0.5204870000000  0.5777510000000  0.5797780000000 1.0
C      1  0.5496400000000  0.4847580000000  0.5922420000000 1.0
C      1  0.4415920000000  0.4499500000000  0.5033540000000 1.0
C      1  0.5995700000000  0.5644690000000  0.5187930000000 1.0
C      1  0.4538760000000  0.4760650000000  0.5307650000000 1.0
C      1  0.4191440000000  0.4660180000000  0.5596900000000 1.0
C      1  0.5204990000000  0.4430850000000  0.6028410000000 1.0
C      1  0.4639900000000  0.4526500000000  0.4519560000000 1.0
C      1  0.5536200000000  0.5129960000000  0.5547130000000 1.0
C      1  0.5945310000000  0.4612020000000  0.4970780000000 1.0
C      1  0.5622580000000  0.5546600000000  0.4298490000000 1.0
C      1  0.5142750000000  0.4254710000000  0.5784670000000 1.0
C      1  0.5796200000000  0.5631170000000  0.4530630000000 1.0
C      1  0.5293720000000  0.4168780000000  0.4301890000000 1.0
C      1  0.4725270000000  0.5213750000000  0.4282120000000 1.0
C      1  0.4522780000000  0.4043440000000  0.4855460000000 1.0
C      1  0.4443190000000  0.5138430000000  0.4952050000000 1.0
C      1  0.4920580000000  0.5249200000000  0.3900300000000 1.0
C      1  0.4573410000000  0.5539430000000  0.4654890000000 1.0
C      1  0.4641000000000  0.5947770000000  0.4999860000000 1.0
C      1  0.5165630000000  0.4376210000000  0.4766240000000 1.0
END
