TITL C-2778429-3646-218 0.00258558840826645 125000 -1051.35421099563 0 0 180 (C1) n - 1
REM
REM in /home/nfs/bkarasulu/CARBON/AIRSS/Generating-Clusters/REBO/Only-C1/SD-CG/HFTN-CG
REM
REM
REM
REM
REM
REM ./C.cell (11c1c37f851c82e70ff6c80c92926a4b)
REM
REM compiler GCC version 9.2.1 20190827 (Red Hat 9.2.1-1)
REM options -cpp -mtune=generic -march=x86-64 -g -O0 -fpre-include=/usr/include/finclude/math-vector-fortran.h
REM seed -1617777114 -1997741436 -1052573672 1194982721 1259802498 823572304 1979552698 -1061640178 -513741722 162329557 926198533 731525499 -1783416894 -133455810 553470025 -413085136 1033564097 -69111279 1104903432 108238052 1276907199 774744483 723461472 -1557469628 1712906673 -225412550 -161030140 2008153007 1091631515 -1361736267 -647441366 -1801473353 -1565805792
REM
CELL 1.54180   50.00000   50.00000   50.00000   90.00000   90.00000   90.00000
LATT -1
SFAC C  
C      1  0.5003990000000  0.4888470000000  0.5988700000000 1.0
C      1  0.4200070000000  0.5086820000000  0.5901350000000 1.0
C      1  0.5366960000000  0.5050410000000  0.4989100000000 1.0
C      1  0.6002060000000  0.5009850000000  0.4699270000000 1.0
C      1  0.5192820000000  0.5668790000000  0.4375030000000 1.0
C      1  0.5514200000000  0.5195000000000  0.4647700000000 1.0
C      1  0.4294040000000  0.4563690000000  0.5719190000000 1.0
C      1  0.4211050000000  0.5176300000000  0.4256610000000 1.0
C      1  0.5136510000000  0.4436650000000  0.5881520000000 1.0
C      1  0.4650800000000  0.5312150000000  0.5350930000000 1.0
C      1  0.5356920000000  0.6000760000000  0.5015010000000 1.0
C      1  0.4086610000000  0.5283890000000  0.5700650000000 1.0
C      1  0.5012030000000  0.4312800000000  0.5248830000000 1.0
C      1  0.5503210000000  0.4731930000000  0.5917260000000 1.0
C      1  0.4777120000000  0.4261000000000  0.4117370000000 1.0
C      1  0.5704440000000  0.5291590000000  0.5631490000000 1.0
C      1  0.4201060000000  0.4386200000000  0.5436860000000 1.0
C      1  0.4450760000000  0.5334660000000  0.4115600000000 1.0
C      1  0.5471920000000  0.4308590000000  0.4778830000000 1.0
C      1  0.4418350000000  0.4821450000000  0.5905800000000 1.0
C      1  0.5911550000000  0.4466280000000  0.4672820000000 1.0
C      1  0.4944650000000  0.6049060000000  0.5363630000000 1.0
C      1  0.4782410000000  0.5232360000000  0.4586470000000 1.0
C      1  0.4397470000000  0.5906760000000  0.4668110000000 1.0
C      1  0.4343400000000  0.4814090000000  0.5501700000000 1.0
C      1  0.5380370000000  0.5686830000000  0.5699080000000 1.0
C      1  0.4756090000000  0.5349340000000  0.5991210000000 1.0
C      1  0.5733240000000  0.4647910000000  0.5041610000000 1.0
C      1  0.5405670000000  0.5712820000000  0.4212690000000 1.0
C      1  0.4606760000000  0.4819570000000  0.4061150000000 1.0
C      1  0.4042270000000  0.4688850000000  0.5438360000000 1.0
C      1  0.3954070000000  0.5061990000000  0.5065880000000 1.0
C      1  0.4058630000000  0.5609220000000  0.4960050000000 1.0
C      1  0.5286100000000  0.5091160000000  0.4451220000000 1.0
C      1  0.5814010000000  0.5215690000000  0.4519590000000 1.0
C      1  0.4987000000000  0.5846230000000  0.4880920000000 1.0
C      1  0.5053010000000  0.4687910000000  0.5185020000000 1.0
C      1  0.5404120000000  0.5994360000000  0.4701990000000 1.0
C      1  0.5070020000000  0.4947350000000  0.4653070000000 1.0
C      1  0.5081370000000  0.5293160000000  0.5116650000000 1.0
C      1  0.4840720000000  0.5626320000000  0.4190260000000 1.0
C      1  0.4677760000000  0.3909420000000  0.5002770000000 1.0
C      1  0.5584310000000  0.5455400000000  0.4130240000000 1.0
C      1  0.5025800000000  0.5393040000000  0.4140750000000 1.0
C      1  0.4842760000000  0.4822870000000  0.5359660000000 1.0
C      1  0.5328480000000  0.5102990000000  0.5415350000000 1.0
C      1  0.5637220000000  0.5872720000000  0.4995960000000 1.0
C      1  0.5563660000000  0.4143890000000  0.5297520000000 1.0
C      1  0.5043410000000  0.5667480000000  0.5719140000000 1.0
C      1  0.5349140000000  0.5395870000000  0.5277080000000 1.0
C      1  0.4506360000000  0.4245870000000  0.5355790000000 1.0
C      1  0.5292260000000  0.5323790000000  0.4012060000000 1.0
C      1  0.5687950000000  0.5810940000000  0.4658590000000 1.0
C      1  0.4444830000000  0.5199470000000  0.5553280000000 1.0
C      1  0.4721260000000  0.4574660000000  0.4179280000000 1.0
C      1  0.4356850000000  0.5395580000000  0.5207130000000 1.0
C      1  0.5655900000000  0.4501090000000  0.5813030000000 1.0
C      1  0.4481660000000  0.4018750000000  0.4835070000000 1.0
C      1  0.4356190000000  0.4567720000000  0.4811190000000 1.0
C      1  0.4716940000000  0.5354380000000  0.4960990000000 1.0
C      1  0.5874230000000  0.4948420000000  0.4986700000000 1.0
C      1  0.5053330000000  0.5263240000000  0.4776370000000 1.0
C      1  0.4702100000000  0.5041620000000  0.5041380000000 1.0
C      1  0.5342820000000  0.5096400000000  0.6025600000000 1.0
C      1  0.5763080000000  0.5216680000000  0.4207300000000 1.0
C      1  0.5675180000000  0.5697990000000  0.5267020000000 1.0
C      1  0.4024990000000  0.5299110000000  0.4491600000000 1.0
C      1  0.5050280000000  0.4021330000000  0.4657990000000 1.0
C      1  0.4967490000000  0.5879850000000  0.4357100000000 1.0
C      1  0.4456500000000  0.4395810000000  0.4310570000000 1.0
C      1  0.4562940000000  0.4703120000000  0.5270040000000 1.0
C      1  0.4169720000000  0.4808370000000  0.5141640000000 1.0
C      1  0.4325910000000  0.5319890000000  0.4896280000000 1.0
C      1  0.4422570000000  0.5858690000000  0.5445940000000 1.0
C      1  0.4588830000000  0.4732960000000  0.4950550000000 1.0
C      1  0.4920830000000  0.4324510000000  0.4741670000000 1.0
C      1  0.5208370000000  0.5946350000000  0.5254090000000 1.0
C      1  0.4216510000000  0.4211660000000  0.4918160000000 1.0
C      1  0.5473940000000  0.5035280000000  0.4219390000000 1.0
C      1  0.4690050000000  0.4433180000000  0.4551550000000 1.0
C      1  0.4796890000000  0.4737480000000  0.4672890000000 1.0
C      1  0.4427650000000  0.5669450000000  0.5712370000000 1.0
C      1  0.4477330000000  0.4182280000000  0.4073560000000 1.0
C      1  0.5226340000000  0.5424510000000  0.5834640000000 1.0
C      1  0.3962380000000  0.4611710000000  0.4864720000000 1.0
C      1  0.5210050000000  0.4671770000000  0.4351740000000 1.0
C      1  0.5229330000000  0.6045690000000  0.4500500000000 1.0
C      1  0.4169820000000  0.5495960000000  0.4663570000000 1.0
C      1  0.5036890000000  0.4973870000000  0.5046890000000 1.0
C      1  0.5007630000000  0.5219040000000  0.4367870000000 1.0
C      1  0.4392990000000  0.5054650000000  0.5186240000000 1.0
C      1  0.5771930000000  0.4888180000000  0.4294650000000 1.0
C      1  0.4122630000000  0.4769850000000  0.4680540000000 1.0
C      1  0.5200270000000  0.5164080000000  0.5660200000000 1.0
C      1  0.5037390000000  0.5223290000000  0.6019890000000 1.0
C      1  0.4837290000000  0.5949650000000  0.5104970000000 1.0
C      1  0.4944380000000  0.4674720000000  0.4366840000000 1.0
C      1  0.5419010000000  0.5372880000000  0.4887870000000 1.0
C      1  0.4170080000000  0.5746150000000  0.5245130000000 1.0
C      1  0.5682270000000  0.5700250000000  0.4355320000000 1.0
C      1  0.5266730000000  0.4732800000000  0.3901690000000 1.0
C      1  0.3870730000000  0.4953840000000  0.5356380000000 1.0
C      1  0.5945170000000  0.4508350000000  0.5271180000000 1.0
C      1  0.4118540000000  0.4469300000000  0.5117240000000 1.0
C      1  0.4590170000000  0.4989980000000  0.4576470000000 1.0
C      1  0.5049660000000  0.4036490000000  0.5446810000000 1.0
C      1  0.5557700000000  0.4617090000000  0.4781720000000 1.0
C      1  0.6012710000000  0.5254210000000  0.5233270000000 1.0
C      1  0.4628420000000  0.4948910000000  0.5577020000000 1.0
C      1  0.4737080000000  0.4064810000000  0.5400970000000 1.0
C      1  0.5417410000000  0.4293910000000  0.4240650000000 1.0
C      1  0.5478480000000  0.4133950000000  0.4519980000000 1.0
C      1  0.4390980000000  0.5045970000000  0.4787410000000 1.0
C      1  0.5769950000000  0.4289930000000  0.4869850000000 1.0
C      1  0.5522680000000  0.4254280000000  0.5615340000000 1.0
C      1  0.4993320000000  0.4015140000000  0.4982840000000 1.0
C      1  0.5269250000000  0.4485720000000  0.4003230000000 1.0
C      1  0.4318610000000  0.4304060000000  0.4607060000000 1.0
C      1  0.4590570000000  0.4106980000000  0.4550280000000 1.0
C      1  0.5187300000000  0.5626000000000  0.4872270000000 1.0
C      1  0.4560140000000  0.5567010000000  0.4232110000000 1.0
C      1  0.5299590000000  0.4782140000000  0.4816530000000 1.0
C      1  0.5236100000000  0.4183980000000  0.5690860000000 1.0
C      1  0.5864130000000  0.4994590000000  0.5616890000000 1.0
C      1  0.5267640000000  0.4017390000000  0.5185730000000 1.0
C      1  0.5320760000000  0.5005890000000  0.3953190000000 1.0
C      1  0.4494080000000  0.4356810000000  0.5047970000000 1.0
C      1  0.4423150000000  0.5647370000000  0.4500070000000 1.0
C      1  0.5307180000000  0.4836380000000  0.5321560000000 1.0
C      1  0.4470990000000  0.4983000000000  0.4299850000000 1.0
C      1  0.4618470000000  0.5122710000000  0.3994090000000 1.0
C      1  0.4938140000000  0.5654110000000  0.5402640000000 1.0
C      1  0.5606710000000  0.4881900000000  0.4582820000000 1.0
C      1  0.5191300000000  0.5496570000000  0.4588290000000 1.0
C      1  0.4546120000000  0.5827450000000  0.5144600000000 1.0
C      1  0.4613360000000  0.6071280000000  0.4650540000000 1.0
C      1  0.5699810000000  0.4826360000000  0.5396390000000 1.0
C      1  0.4505690000000  0.5125670000000  0.6035580000000 1.0
C      1  0.5675410000000  0.5479500000000  0.5017300000000 1.0
C      1  0.5855690000000  0.5581060000000  0.4804560000000 1.0
C      1  0.4215680000000  0.5520310000000  0.5491370000000 1.0
C      1  0.6124340000000  0.5377320000000  0.5019680000000 1.0
C      1  0.5669400000000  0.4406010000000  0.4444940000000 1.0
C      1  0.4304280000000  0.5839280000000  0.4942550000000 1.0
C      1  0.4101080000000  0.4980560000000  0.4515340000000 1.0
C      1  0.5578060000000  0.4520140000000  0.5427830000000 1.0
C      1  0.5043800000000  0.4596870000000  0.4875620000000 1.0
C      1  0.5473920000000  0.4658320000000  0.4393990000000 1.0
C      1  0.4468390000000  0.5366640000000  0.5805000000000 1.0
C      1  0.5288240000000  0.4328870000000  0.5048450000000 1.0
C      1  0.5301170000000  0.3923900000000  0.4573460000000 1.0
C      1  0.5037120000000  0.4418410000000  0.5556700000000 1.0
C      1  0.4141330000000  0.5135980000000  0.5410750000000 1.0
C      1  0.6112090000000  0.4739810000000  0.5113580000000 1.0
C      1  0.6075820000000  0.4685500000000  0.4776410000000 1.0
C      1  0.5682590000000  0.5299250000000  0.5291530000000 1.0
C      1  0.6062630000000  0.4985460000000  0.5344030000000 1.0
C      1  0.4744470000000  0.5651930000000  0.5834610000000 1.0
C      1  0.4883520000000  0.4117240000000  0.4401750000000 1.0
C      1  0.4567760000000  0.4491280000000  0.5538630000000 1.0
C      1  0.5270590000000  0.5664260000000  0.5391050000000 1.0
C      1  0.4799920000000  0.4554430000000  0.5700510000000 1.0
C      1  0.4789550000000  0.4291110000000  0.5033030000000 1.0
C      1  0.5610050000000  0.5036680000000  0.5839250000000 1.0
C      1  0.4733030000000  0.5573200000000  0.5184380000000 1.0
C      1  0.6053690000000  0.5346700000000  0.4705690000000 1.0
C      1  0.5434580000000  0.4576530000000  0.5158820000000 1.0
C      1  0.5097220000000  0.4240930000000  0.4165220000000 1.0
C      1  0.5638330000000  0.5607400000000  0.5540160000000 1.0
C      1  0.4902260000000  0.5155740000000  0.5373290000000 1.0
C      1  0.4564030000000  0.5441730000000  0.4691030000000 1.0
C      1  0.5231840000000  0.4687320000000  0.5974850000000 1.0
C      1  0.4738230000000  0.5875410000000  0.5572030000000 1.0
C      1  0.5782520000000  0.4265990000000  0.5149230000000 1.0
C      1  0.4926410000000  0.5025330000000  0.5691680000000 1.0
C      1  0.5626300000000  0.5012540000000  0.5163810000000 1.0
C      1  0.4741520000000  0.4736110000000  0.5895110000000 1.0
C      1  0.3936770000000  0.5315220000000  0.4986470000000 1.0
C      1  0.5876360000000  0.4590880000000  0.5579440000000 1.0
C      1  0.4868300000000  0.5952410000000  0.4640710000000 1.0
END
