TITL C-2778429-3646-816 0.00052445522499986 125000 -217.306930254565 0 0 39 (C1) n - 1
REM
REM in /home/nfs/bkarasulu/CARBON/AIRSS/Generating-Clusters/REBO/Only-C1/SD-CG/HFTN-CG
REM
REM
REM
REM
REM
REM ./C.cell (11c1c37f851c82e70ff6c80c92926a4b)
REM
REM compiler GCC version 9.2.1 20190827 (Red Hat 9.2.1-1)
REM options -cpp -mtune=generic -march=x86-64 -g -O0 -fpre-include=/usr/include/finclude/math-vector-fortran.h
REM seed -1476390471 -935670529 -941041610 250552080 -668076084 1940168376 -2135499389 609725814 485062302 -1008617669 -590183587 -1889625433 1319146427 1705725049 1015904530 1352679628 -301252818 1903791562 598929874 205471125 -581963797 -221618603 1419630247 741934449 2121617047 -1100338406 -271003994 -483393218 1449555562 1367358293 -1659586402 350990459 -2106925407
REM
CELL 1.54180   50.00000   50.00000   50.00000   90.00000   90.00000   90.00000
LATT -1
SFAC C  
C      1  0.5315020000000  0.5337690000000  0.5063830000000 1.0
C      1  0.4095850000000  0.4925700000000  0.4902290000000 1.0
C      1  0.5007980000000  0.5100440000000  0.5158290000000 1.0
C      1  0.4942890000000  0.5291190000000  0.5336180000000 1.0
C      1  0.4819980000000  0.5073140000000  0.4812590000000 1.0
C      1  0.4542600000000  0.5003390000000  0.4726420000000 1.0
C      1  0.4366540000000  0.4921200000000  0.4932880000000 1.0
C      1  0.4631370000000  0.5269860000000  0.4307130000000 1.0
C      1  0.4616920000000  0.4967880000000  0.5383570000000 1.0
C      1  0.4642270000000  0.5660220000000  0.5259780000000 1.0
C      1  0.5569660000000  0.4856310000000  0.5078970000000 1.0
C      1  0.5039220000000  0.5552140000000  0.5330180000000 1.0
C      1  0.5030710000000  0.5728850000000  0.4844380000000 1.0
C      1  0.4595600000000  0.4550250000000  0.5155110000000 1.0
C      1  0.4491590000000  0.5091530000000  0.4462430000000 1.0
C      1  0.5187760000000  0.5621360000000  0.5083060000000 1.0
C      1  0.5373070000000  0.4218970000000  0.4610070000000 1.0
C      1  0.4997850000000  0.4664880000000  0.5577060000000 1.0
C      1  0.5181320000000  0.4563300000000  0.5015690000000 1.0
C      1  0.5558610000000  0.5126580000000  0.5176120000000 1.0
C      1  0.5392590000000  0.4667860000000  0.5209100000000 1.0
C      1  0.4773690000000  0.5602990000000  0.5036040000000 1.0
C      1  0.5565110000000  0.4842460000000  0.4794540000000 1.0
C      1  0.5283600000000  0.4379640000000  0.4799350000000 1.0
C      1  0.4484510000000  0.4814080000000  0.5180390000000 1.0
C      1  0.4944050000000  0.5536000000000  0.4588290000000 1.0
C      1  0.5563760000000  0.4884030000000  0.4472960000000 1.0
C      1  0.5461930000000  0.4059400000000  0.4422120000000 1.0
C      1  0.4862600000000  0.4945940000000  0.5521550000000 1.0
C      1  0.5153080000000  0.5153070000000  0.4849940000000 1.0
C      1  0.4886970000000  0.4435280000000  0.5663400000000 1.0
C      1  0.5287370000000  0.4720540000000  0.5469140000000 1.0
C      1  0.5177050000000  0.5013280000000  0.5509610000000 1.0
C      1  0.4852490000000  0.4536650000000  0.5079480000000 1.0
C      1  0.5331030000000  0.5205770000000  0.5376830000000 1.0
C      1  0.4834850000000  0.5451270000000  0.4343570000000 1.0
C      1  0.4973610000000  0.4820880000000  0.4974630000000 1.0
C      1  0.4831150000000  0.5387230000000  0.4832620000000 1.0
C      1  0.5333790000000  0.5018740000000  0.4660420000000 1.0
END
