TITL C-2778435-5768-364 0.00144315149114959 125000 -318.916525577958 0 0 56 (C1) n - 1
REM
REM in /home/nfs/bkarasulu/CARBON/AIRSS/Generating-Clusters/REBO/Only-C1/SD-CG/HFTN-CG
REM
REM
REM
REM
REM
REM ./C.cell (11c1c37f851c82e70ff6c80c92926a4b)
REM
REM compiler GCC version 9.2.1 20190827 (Red Hat 9.2.1-1)
REM options -cpp -mtune=generic -march=x86-64 -g -O0 -fpre-include=/usr/include/finclude/math-vector-fortran.h
REM seed 596172364 -1515276198 -1845315810 1332316072 590484736 926518846 -373191346 -1367775270 1759276513 -585807933 2011411667 2003274109 -1478511028 1301436332 -284706864 -962820178 2109446891 1946709903 456443545 -170922790 -1285104338 -288115591 113392090 -108553239 1893062843 -177731548 -1344501000 1435991147 -138513942 1920588170 1869355272 -2107726995 -52478483
REM
CELL 1.54180   50.00000   50.00000   50.00000   90.00000   90.00000   90.00000
LATT -1
SFAC C  
C      1  0.5330830000000  0.4529080000000  0.5034710000000 1.0
C      1  0.4686320000000  0.5653480000000  0.4564840000000 1.0
C      1  0.5592440000000  0.4672560000000  0.4945720000000 1.0
C      1  0.5361710000000  0.4380470000000  0.5290220000000 1.0
C      1  0.5546680000000  0.4820220000000  0.4716670000000 1.0
C      1  0.5159930000000  0.5260930000000  0.5245410000000 1.0
C      1  0.4859310000000  0.4815890000000  0.4422680000000 1.0
C      1  0.5301850000000  0.5050990000000  0.4734310000000 1.0
C      1  0.4701580000000  0.4958870000000  0.4769600000000 1.0
C      1  0.4430090000000  0.5356120000000  0.4955070000000 1.0
C      1  0.4657170000000  0.4232770000000  0.5304870000000 1.0
C      1  0.4650770000000  0.5346110000000  0.4455260000000 1.0
C      1  0.5302800000000  0.5427690000000  0.4602860000000 1.0
C      1  0.5125070000000  0.4395500000000  0.5501940000000 1.0
C      1  0.4863230000000  0.5136120000000  0.4451830000000 1.0
C      1  0.5653640000000  0.5044880000000  0.5308260000000 1.0
C      1  0.4997430000000  0.5101790000000  0.5486400000000 1.0
C      1  0.4848040000000  0.4379900000000  0.4668620000000 1.0
C      1  0.4478870000000  0.4516560000000  0.4734340000000 1.0
C      1  0.5136630000000  0.4439210000000  0.4521610000000 1.0
C      1  0.5415930000000  0.4569050000000  0.5536350000000 1.0
C      1  0.4664150000000  0.5376560000000  0.5146350000000 1.0
C      1  0.4990730000000  0.4898920000000  0.5228820000000 1.0
C      1  0.4339690000000  0.5449090000000  0.5530520000000 1.0
C      1  0.5130090000000  0.4699150000000  0.4398730000000 1.0
C      1  0.4899580000000  0.5160040000000  0.5051400000000 1.0
C      1  0.5549050000000  0.5594670000000  0.4938170000000 1.0
C      1  0.4821730000000  0.4425360000000  0.4996390000000 1.0
C      1  0.5005630000000  0.5096110000000  0.4755550000000 1.0
C      1  0.5476310000000  0.5296220000000  0.4858330000000 1.0
C      1  0.4294460000000  0.5102730000000  0.4977090000000 1.0
C      1  0.5267400000000  0.4843600000000  0.5103410000000 1.0
C      1  0.4815250000000  0.4669110000000  0.5233410000000 1.0
C      1  0.4579930000000  0.5348150000000  0.5439100000000 1.0
C      1  0.5069150000000  0.5745010000000  0.4973260000000 1.0
C      1  0.5129080000000  0.4414350000000  0.4860000000000 1.0
C      1  0.5418260000000  0.5125030000000  0.5127700000000 1.0
C      1  0.5191360000000  0.5673110000000  0.4664740000000 1.0
C      1  0.4111700000000  0.5544890000000  0.5617280000000 1.0
C      1  0.5161640000000  0.5268440000000  0.4430240000000 1.0
C      1  0.4898650000000  0.5787400000000  0.4681470000000 1.0
C      1  0.5834460000000  0.4758170000000  0.5705180000000 1.0
C      1  0.4968970000000  0.5524110000000  0.5144790000000 1.0
C      1  0.4469500000000  0.5458090000000  0.4698420000000 1.0
C      1  0.4525120000000  0.4671880000000  0.5099180000000 1.0
C      1  0.5648560000000  0.4759720000000  0.5496140000000 1.0
C      1  0.5828200000000  0.5268020000000  0.5409040000000 1.0
C      1  0.5352650000000  0.4861630000000  0.4468150000000 1.0
C      1  0.4479070000000  0.4889100000000  0.4927470000000 1.0
C      1  0.4773380000000  0.5211130000000  0.5593330000000 1.0
C      1  0.4037090000000  0.5071990000000  0.5055700000000 1.0
C      1  0.5745030000000  0.4759770000000  0.5170420000000 1.0
C      1  0.4491360000000  0.4348390000000  0.5031000000000 1.0
C      1  0.5389390000000  0.5780210000000  0.4994700000000 1.0
C      1  0.4862070000000  0.4403910000000  0.5395430000000 1.0
C      1  0.4681020000000  0.4627740000000  0.4547520000000 1.0
END
