TITL C-2778425-5191-100 -0.00107098871229076 125000 -308.45582753112 0 0 53 (C1) n - 1
REM
REM in /home/nfs/bkarasulu/CARBON/AIRSS/Generating-Clusters/REBO/Only-C1/SD-CG/HFTN-CG
REM
REM
REM
REM
REM
REM ./C.cell (11c1c37f851c82e70ff6c80c92926a4b)
REM
REM compiler GCC version 9.2.1 20190827 (Red Hat 9.2.1-1)
REM options -cpp -mtune=generic -march=x86-64 -g -O0 -fpre-include=/usr/include/finclude/math-vector-fortran.h
REM seed -1923747742 -1174908091 -806230496 669915401 -1002858500 1102136405 1732548049 1314701090 672371841 -657900703 1223338813 799555288 143661530 1361559432 1850729507 1143128937 1924715134 284957376 579306714 1519747140 134309634 894569106 1990606341 -989455919 -837943174 1358421968 -793512927 -1085034526 1294605953 690143206 -1228633842 99729426 -12727468
REM
CELL 1.54180   50.00000   50.00000   50.00000   90.00000   90.00000   90.00000
LATT -1
SFAC C  
C      1  0.4222920000000  0.5106380000000  0.5031770000000 1.0
C      1  0.4717410000000  0.4517790000000  0.4681870000000 1.0
C      1  0.4918430000000  0.4428630000000  0.5369560000000 1.0
C      1  0.5228420000000  0.5562100000000  0.5180660000000 1.0
C      1  0.5138270000000  0.4374510000000  0.5199290000000 1.0
C      1  0.5502630000000  0.4687120000000  0.4816790000000 1.0
C      1  0.5527200000000  0.4649510000000  0.5403540000000 1.0
C      1  0.4703360000000  0.4577210000000  0.5481110000000 1.0
C      1  0.4714800000000  0.5477270000000  0.5294300000000 1.0
C      1  0.4729110000000  0.4908510000000  0.4953080000000 1.0
C      1  0.5193330000000  0.5431730000000  0.4496720000000 1.0
C      1  0.5392630000000  0.4758280000000  0.5638160000000 1.0
C      1  0.5413120000000  0.4459230000000  0.5223800000000 1.0
C      1  0.4665190000000  0.5479970000000  0.4799060000000 1.0
C      1  0.5328440000000  0.5185490000000  0.4592580000000 1.0
C      1  0.4224650000000  0.4867380000000  0.5167990000000 1.0
C      1  0.5651960000000  0.5098130000000  0.5477470000000 1.0
C      1  0.4588330000000  0.4681030000000  0.4872150000000 1.0
C      1  0.5174190000000  0.4668070000000  0.4588730000000 1.0
C      1  0.5164270000000  0.5179850000000  0.5517990000000 1.0
C      1  0.5406170000000  0.5050120000000  0.5629770000000 1.0
C      1  0.4849430000000  0.5212380000000  0.5344790000000 1.0
C      1  0.4895160000000  0.5064810000000  0.5087840000000 1.0
C      1  0.3964880000000  0.5605430000000  0.4993210000000 1.0
C      1  0.5738930000000  0.4939710000000  0.5014320000000 1.0
C      1  0.5650840000000  0.4776600000000  0.4456820000000 1.0
C      1  0.4438590000000  0.4597950000000  0.5367480000000 1.0
C      1  0.4997340000000  0.4466640000000  0.4697120000000 1.0
C      1  0.4767430000000  0.5601160000000  0.5042960000000 1.0
C      1  0.5811530000000  0.4919340000000  0.4713730000000 1.0
C      1  0.4825180000000  0.5031490000000  0.4585000000000 1.0
C      1  0.5269510000000  0.5528530000000  0.4220850000000 1.0
C      1  0.5448640000000  0.5002730000000  0.4854100000000 1.0
C      1  0.5104750000000  0.4954270000000  0.4658500000000 1.0
C      1  0.5538610000000  0.4466590000000  0.4968090000000 1.0
C      1  0.5409550000000  0.4628820000000  0.4433680000000 1.0
C      1  0.4604100000000  0.5122470000000  0.4630870000000 1.0
C      1  0.5047140000000  0.5686480000000  0.5000410000000 1.0
C      1  0.5075470000000  0.4317480000000  0.4925810000000 1.0
C      1  0.4110130000000  0.4886530000000  0.5702370000000 1.0
C      1  0.4214630000000  0.4798620000000  0.5474070000000 1.0
C      1  0.5181160000000  0.5094520000000  0.4985220000000 1.0
C      1  0.4883060000000  0.5034780000000  0.5611600000000 1.0
C      1  0.4136080000000  0.5401120000000  0.4959510000000 1.0
C      1  0.5333870000000  0.5610290000000  0.3987830000000 1.0
C      1  0.4412460000000  0.5289110000000  0.4816550000000 1.0
C      1  0.4778250000000  0.4793130000000  0.5650330000000 1.0
C      1  0.4381960000000  0.4619510000000  0.5056000000000 1.0
C      1  0.5701410000000  0.4874460000000  0.5289440000000 1.0
C      1  0.5223050000000  0.5292810000000  0.5228910000000 1.0
C      1  0.5109090000000  0.5658460000000  0.4720540000000 1.0
C      1  0.5622050000000  0.5091880000000  0.4506730000000 1.0
C      1  0.4870890000000  0.5483580000000  0.4598930000000 1.0
END
