TITL C-2778432-5617-981 -0.000634944632748162 125000 -980.39409997537 0 0 166 (C1) n - 1
REM
REM in /home/nfs/bkarasulu/CARBON/AIRSS/Generating-Clusters/REBO/Only-C1/SD-CG/HFTN-CG
REM
REM
REM
REM
REM
REM ./C.cell (11c1c37f851c82e70ff6c80c92926a4b)
REM
REM compiler GCC version 9.2.1 20190827 (Red Hat 9.2.1-1)
REM options -cpp -mtune=generic -march=x86-64 -g -O0 -fpre-include=/usr/include/finclude/math-vector-fortran.h
REM seed 872666623 577399898 935757056 1230113869 -2041821353 -1764434017 738457281 -1979647442 26187502 981268939 -731808618 -684096507 -1666527345 -611467597 851994774 -1997312684 -1295173526 980177339 -1396322554 910432522 1931953991 782694620 -1789854385 1984707959 426994932 1404170487 1288230271 -1562867585 -231667433 -185398067 -1573915989 -388457003 1850229686
REM
CELL 1.54180   50.00000   50.00000   50.00000   90.00000   90.00000   90.00000
LATT -1
SFAC C  
C      1  0.6107730000000  0.5027930000000  0.4697150000000 1.0
C      1  0.5020820000000  0.5828500000000  0.4134390000000 1.0
C      1  0.4256700000000  0.5091430000000  0.4382070000000 1.0
C      1  0.5775990000000  0.5417890000000  0.4333390000000 1.0
C      1  0.5970280000000  0.4573720000000  0.4817710000000 1.0
C      1  0.5860040000000  0.5512560000000  0.4598900000000 1.0
C      1  0.5281350000000  0.6007390000000  0.4263170000000 1.0
C      1  0.4685500000000  0.4078170000000  0.4942230000000 1.0
C      1  0.5720030000000  0.5709410000000  0.5308540000000 1.0
C      1  0.4329270000000  0.5072500000000  0.5116830000000 1.0
C      1  0.4670610000000  0.4987680000000  0.5512730000000 1.0
C      1  0.5919400000000  0.4824200000000  0.5509730000000 1.0
C      1  0.4939810000000  0.4799500000000  0.4928840000000 1.0
C      1  0.3871560000000  0.4436450000000  0.4676140000000 1.0
C      1  0.4952210000000  0.4693560000000  0.5929810000000 1.0
C      1  0.4599900000000  0.5708380000000  0.4586950000000 1.0
C      1  0.5304900000000  0.4438000000000  0.4857720000000 1.0
C      1  0.4469190000000  0.4200820000000  0.4835480000000 1.0
C      1  0.4273100000000  0.4849650000000  0.4877940000000 1.0
C      1  0.5181370000000  0.6122210000000  0.4871990000000 1.0
C      1  0.5395240000000  0.5206370000000  0.4876130000000 1.0
C      1  0.5135160000000  0.5225000000000  0.4286600000000 1.0
C      1  0.5257200000000  0.5494910000000  0.4193050000000 1.0
C      1  0.4278940000000  0.4315710000000  0.5003450000000 1.0
C      1  0.4034810000000  0.5408030000000  0.4676910000000 1.0
C      1  0.4985060000000  0.4690660000000  0.4526960000000 1.0
C      1  0.4415120000000  0.4897070000000  0.5370550000000 1.0
C      1  0.5653000000000  0.4985000000000  0.5894590000000 1.0
C      1  0.4750930000000  0.4471220000000  0.5396700000000 1.0
C      1  0.5451390000000  0.5696600000000  0.5504820000000 1.0
C      1  0.4443650000000  0.4678430000000  0.5899340000000 1.0
C      1  0.5897240000000  0.5273890000000  0.4771460000000 1.0
C      1  0.5493450000000  0.5379800000000  0.4372920000000 1.0
C      1  0.5558750000000  0.5486860000000  0.5714530000000 1.0
C      1  0.5092080000000  0.5694180000000  0.4415570000000 1.0
C      1  0.5229970000000  0.4044410000000  0.4716610000000 1.0
C      1  0.5454650000000  0.5743260000000  0.4212320000000 1.0
C      1  0.5981160000000  0.4390620000000  0.5281460000000 1.0
C      1  0.5084440000000  0.4905880000000  0.6089460000000 1.0
C      1  0.4999390000000  0.5703550000000  0.4914900000000 1.0
C      1  0.4305770000000  0.5118210000000  0.4720290000000 1.0
C      1  0.5400870000000  0.4039520000000  0.5004820000000 1.0
C      1  0.5562280000000  0.4253220000000  0.5101370000000 1.0
C      1  0.5014780000000  0.4723630000000  0.5232970000000 1.0
C      1  0.4719750000000  0.4811070000000  0.5776800000000 1.0
C      1  0.5135350000000  0.5607430000000  0.5505960000000 1.0
C      1  0.5420280000000  0.5208960000000  0.5855490000000 1.0
C      1  0.5266780000000  0.5116620000000  0.5485350000000 1.0
C      1  0.4979590000000  0.5169410000000  0.5074370000000 1.0
C      1  0.5416600000000  0.5571420000000  0.6012540000000 1.0
C      1  0.4218570000000  0.5383810000000  0.4435810000000 1.0
C      1  0.5497990000000  0.5884900000000  0.4499100000000 1.0
C      1  0.4778120000000  0.4841250000000  0.4051950000000 1.0
C      1  0.4425390000000  0.5224020000000  0.5808270000000 1.0
C      1  0.4620570000000  0.4349330000000  0.4249980000000 1.0
C      1  0.4781390000000  0.4455880000000  0.5054860000000 1.0
C      1  0.4838150000000  0.5270840000000  0.4781800000000 1.0
C      1  0.4705320000000  0.5401220000000  0.5249110000000 1.0
C      1  0.5595820000000  0.4409170000000  0.5588710000000 1.0
C      1  0.5236690000000  0.5651320000000  0.4690920000000 1.0
C      1  0.4546780000000  0.5871430000000  0.5072080000000 1.0
C      1  0.5853710000000  0.4553740000000  0.4539280000000 1.0
C      1  0.5839050000000  0.4359020000000  0.5000760000000 1.0
C      1  0.5341730000000  0.5465160000000  0.5055150000000 1.0
C      1  0.5624890000000  0.5091840000000  0.4728050000000 1.0
C      1  0.5412710000000  0.4696750000000  0.5245790000000 1.0
C      1  0.5236860000000  0.5345910000000  0.6102790000000 1.0
C      1  0.4703560000000  0.5498970000000  0.5837500000000 1.0
C      1  0.4952180000000  0.4592740000000  0.3952140000000 1.0
C      1  0.5398450000000  0.5409060000000  0.4642420000000 1.0
C      1  0.5845650000000  0.4969670000000  0.4519060000000 1.0
C      1  0.4149600000000  0.4534170000000  0.4850090000000 1.0
C      1  0.5267900000000  0.4915510000000  0.5829060000000 1.0
C      1  0.4213140000000  0.4562710000000  0.4516350000000 1.0
C      1  0.4465460000000  0.4602650000000  0.5263760000000 1.0
C      1  0.5423360000000  0.4461480000000  0.5815900000000 1.0
C      1  0.5261240000000  0.3951350000000  0.5225700000000 1.0
C      1  0.6086750000000  0.4806930000000  0.4921170000000 1.0
C      1  0.4644000000000  0.5301470000000  0.5559560000000 1.0
C      1  0.4251430000000  0.5602590000000  0.5596320000000 1.0
C      1  0.4129620000000  0.4661620000000  0.5226810000000 1.0
C      1  0.4255920000000  0.4391480000000  0.5531140000000 1.0
C      1  0.4590130000000  0.5219360000000  0.5016430000000 1.0
C      1  0.4550230000000  0.4446410000000  0.5673060000000 1.0
C      1  0.5664630000000  0.5715570000000  0.4743390000000 1.0
C      1  0.5013510000000  0.5481800000000  0.5146650000000 1.0
C      1  0.4423260000000  0.4952340000000  0.4199310000000 1.0
C      1  0.4181540000000  0.5345290000000  0.5721340000000 1.0
C      1  0.4529520000000  0.4641200000000  0.4951140000000 1.0
C      1  0.5826590000000  0.5325270000000  0.5235150000000 1.0
C      1  0.5856340000000  0.5056020000000  0.5705310000000 1.0
C      1  0.4892060000000  0.4362180000000  0.4096590000000 1.0
C      1  0.4993450000000  0.3995490000000  0.4932710000000 1.0
C      1  0.5262510000000  0.4677370000000  0.4403710000000 1.0
C      1  0.5326530000000  0.4722380000000  0.4984390000000 1.0
C      1  0.4057910000000  0.5157620000000  0.5527150000000 1.0
C      1  0.5752970000000  0.5010890000000  0.5323480000000 1.0
C      1  0.4512730000000  0.5641370000000  0.5300930000000 1.0
C      1  0.4217740000000  0.5828700000000  0.5109040000000 1.0
C      1  0.4301550000000  0.5439850000000  0.4840870000000 1.0
C      1  0.5063050000000  0.4477080000000  0.5532940000000 1.0
C      1  0.4998140000000  0.4076070000000  0.4471700000000 1.0
C      1  0.4724570000000  0.4727340000000  0.4328850000000 1.0
C      1  0.5127750000000  0.6001120000000  0.5145920000000 1.0
C      1  0.4523710000000  0.5485950000000  0.4397220000000 1.0
C      1  0.5867940000000  0.4532120000000  0.5506270000000 1.0
C      1  0.5307950000000  0.4954630000000  0.4227790000000 1.0
C      1  0.5112790000000  0.4421820000000  0.5141440000000 1.0
C      1  0.5017040000000  0.5249750000000  0.4545990000000 1.0
C      1  0.4717000000000  0.4122720000000  0.4485460000000 1.0
C      1  0.4231570000000  0.4278970000000  0.5277700000000 1.0
C      1  0.5478240000000  0.4951910000000  0.5356190000000 1.0
C      1  0.4975480000000  0.6106230000000  0.4690030000000 1.0
C      1  0.4579390000000  0.5221440000000  0.4578570000000 1.0
C      1  0.5799910000000  0.5316260000000  0.5574710000000 1.0
C      1  0.5129710000000  0.5331940000000  0.5594230000000 1.0
C      1  0.4872580000000  0.5729690000000  0.5451160000000 1.0
C      1  0.4868290000000  0.4098850000000  0.5503130000000 1.0
C      1  0.5142890000000  0.4196390000000  0.5363910000000 1.0
C      1  0.4981760000000  0.4512280000000  0.4780080000000 1.0
C      1  0.4877520000000  0.5808750000000  0.4621840000000 1.0
C      1  0.4182820000000  0.5559630000000  0.5282810000000 1.0
C      1  0.5622450000000  0.4398050000000  0.4736080000000 1.0
C      1  0.5162010000000  0.4823560000000  0.3952830000000 1.0
C      1  0.5519630000000  0.4885850000000  0.4482190000000 1.0
C      1  0.4203530000000  0.4642750000000  0.5698030000000 1.0
C      1  0.5025440000000  0.5169530000000  0.6175150000000 1.0
C      1  0.5085280000000  0.4418620000000  0.5845830000000 1.0
C      1  0.5322620000000  0.4382360000000  0.4339610000000 1.0
C      1  0.4843490000000  0.5859410000000  0.5172070000000 1.0
C      1  0.4827470000000  0.3998790000000  0.5220740000000 1.0
C      1  0.5391710000000  0.5863140000000  0.4883250000000 1.0
C      1  0.6013570000000  0.5116030000000  0.5044140000000 1.0
C      1  0.3883180000000  0.4911310000000  0.4815400000000 1.0
C      1  0.4116750000000  0.5262490000000  0.5256760000000 1.0
C      1  0.4537990000000  0.4993800000000  0.5986810000000 1.0
C      1  0.3933890000000  0.4788760000000  0.5077760000000 1.0
C      1  0.5663090000000  0.5560150000000  0.5048750000000 1.0
C      1  0.5500340000000  0.4716740000000  0.5916150000000 1.0
C      1  0.4642960000000  0.5459970000000  0.4119080000000 1.0
C      1  0.4425880000000  0.4625100000000  0.4291910000000 1.0
C      1  0.4736760000000  0.5242400000000  0.6058350000000 1.0
C      1  0.3924640000000  0.4732290000000  0.4590230000000 1.0
C      1  0.4803230000000  0.5669090000000  0.4029770000000 1.0
C      1  0.5914260000000  0.4966160000000  0.4211040000000 1.0
C      1  0.5910930000000  0.5241460000000  0.4134800000000 1.0
C      1  0.5198690000000  0.5000200000000  0.4919460000000 1.0
C      1  0.6011510000000  0.5337680000000  0.3901670000000 1.0
C      1  0.5341800000000  0.5770420000000  0.5205020000000 1.0
C      1  0.4761560000000  0.4943140000000  0.4566880000000 1.0
C      1  0.4984150000000  0.5098540000000  0.4045200000000 1.0
C      1  0.4958820000000  0.5291050000000  0.5802190000000 1.0
C      1  0.4651170000000  0.5154550000000  0.4046290000000 1.0
C      1  0.5470070000000  0.4425170000000  0.5321230000000 1.0
C      1  0.4439630000000  0.4311540000000  0.4538120000000 1.0
C      1  0.3870570000000  0.5189940000000  0.4758960000000 1.0
C      1  0.4456880000000  0.5675490000000  0.4828650000000 1.0
C      1  0.4805760000000  0.4254410000000  0.5736030000000 1.0
C      1  0.4164120000000  0.4887370000000  0.5553610000000 1.0
C      1  0.5096820000000  0.4236070000000  0.4249420000000 1.0
C      1  0.4579280000000  0.5691290000000  0.5619560000000 1.0
C      1  0.4887450000000  0.4997690000000  0.5301740000000 1.0
C      1  0.4663240000000  0.4926520000000  0.4873370000000 1.0
C      1  0.5150890000000  0.4805190000000  0.5532850000000 1.0
C      1  0.5916390000000  0.4658840000000  0.4282200000000 1.0
C      1  0.5441320000000  0.4228110000000  0.4550890000000 1.0
END
