TITL C-2778425-5191-895 -0.00413988440026563 125000 -973.602981765999 0 0 170 (C1) n - 1
REM
REM in /home/nfs/bkarasulu/CARBON/AIRSS/Generating-Clusters/REBO/Only-C1/SD-CG/HFTN-CG
REM
REM
REM
REM
REM
REM ./C.cell (11c1c37f851c82e70ff6c80c92926a4b)
REM
REM compiler GCC version 9.2.1 20190827 (Red Hat 9.2.1-1)
REM options -cpp -mtune=generic -march=x86-64 -g -O0 -fpre-include=/usr/include/finclude/math-vector-fortran.h
REM seed 620504365 1510939926 -1443409455 841112247 -1311790613 -1184104085 -162320726 -780297122 1141616710 88177734 1962512289 1955566126 -1951359254 -1418081594 -1040827870 -1249084807 1476751587 632227265 -451410081 625873219 -1540260414 1872037387 -958516069 1796494219 -1723807938 -2140935637 1365531716 -1623849465 748741763 73420442 -224778017 1765432424 -123884350
REM
CELL 1.54180   50.00000   50.00000   50.00000   90.00000   90.00000   90.00000
LATT -1
SFAC C  
C      1  0.4304260000000  0.5466340000000  0.5624490000000 1.0
C      1  0.5030600000000  0.4092140000000  0.4275980000000 1.0
C      1  0.5878860000000  0.5530720000000  0.4687260000000 1.0
C      1  0.4716580000000  0.5862600000000  0.4417210000000 1.0
C      1  0.5437680000000  0.5660900000000  0.5500420000000 1.0
C      1  0.5069360000000  0.4338410000000  0.5170980000000 1.0
C      1  0.4879930000000  0.5360040000000  0.4076180000000 1.0
C      1  0.5240190000000  0.5730210000000  0.5720380000000 1.0
C      1  0.4987210000000  0.5726320000000  0.5922470000000 1.0
C      1  0.5914030000000  0.4693900000000  0.5257560000000 1.0
C      1  0.4037750000000  0.5121700000000  0.4600580000000 1.0
C      1  0.4237900000000  0.5803700000000  0.5202060000000 1.0
C      1  0.5723670000000  0.4936480000000  0.4749360000000 1.0
C      1  0.5385240000000  0.4525680000000  0.4190210000000 1.0
C      1  0.5801360000000  0.4423010000000  0.5128280000000 1.0
C      1  0.5405980000000  0.5381230000000  0.5346350000000 1.0
C      1  0.4818550000000  0.4613760000000  0.5879780000000 1.0
C      1  0.4490670000000  0.5020740000000  0.4127320000000 1.0
C      1  0.4105290000000  0.5422170000000  0.4969720000000 1.0
C      1  0.4960030000000  0.4997680000000  0.5345180000000 1.0
C      1  0.4498530000000  0.5031350000000  0.6125790000000 1.0
C      1  0.4820120000000  0.5153550000000  0.4684680000000 1.0
C      1  0.5957540000000  0.5338500000000  0.4484340000000 1.0
C      1  0.4705050000000  0.5418940000000  0.5541690000000 1.0
C      1  0.4927390000000  0.5445360000000  0.4605120000000 1.0
C      1  0.5351740000000  0.5714630000000  0.5132980000000 1.0
C      1  0.6051650000000  0.5300380000000  0.5210520000000 1.0
C      1  0.4420500000000  0.5087560000000  0.5142850000000 1.0
C      1  0.4797160000000  0.5168290000000  0.5754050000000 1.0
C      1  0.4153280000000  0.5171060000000  0.5700510000000 1.0
C      1  0.5501030000000  0.5191150000000  0.5940920000000 1.0
C      1  0.4746270000000  0.5299740000000  0.4379250000000 1.0
C      1  0.4031220000000  0.5168200000000  0.4872030000000 1.0
C      1  0.3972410000000  0.5179460000000  0.5333740000000 1.0
C      1  0.5460140000000  0.4540490000000  0.5335620000000 1.0
C      1  0.5094340000000  0.4783220000000  0.5774930000000 1.0
C      1  0.5583740000000  0.5034660000000  0.5028450000000 1.0
C      1  0.5804990000000  0.4870660000000  0.5485690000000 1.0
C      1  0.4966390000000  0.5513730000000  0.5421620000000 1.0
C      1  0.4590560000000  0.5488030000000  0.4021370000000 1.0
C      1  0.4532730000000  0.4653190000000  0.5700290000000 1.0
C      1  0.4565710000000  0.5479140000000  0.5832040000000 1.0
C      1  0.4457870000000  0.4666820000000  0.5238000000000 1.0
C      1  0.4865910000000  0.4200650000000  0.4996050000000 1.0
C      1  0.4311860000000  0.4980290000000  0.4477120000000 1.0
C      1  0.5214570000000  0.4568700000000  0.5023010000000 1.0
C      1  0.4345050000000  0.5525310000000  0.4459080000000 1.0
C      1  0.4835080000000  0.5848970000000  0.5045590000000 1.0
C      1  0.4074700000000  0.4428550000000  0.4933400000000 1.0
C      1  0.5786460000000  0.4171970000000  0.4820920000000 1.0
C      1  0.5591380000000  0.5458890000000  0.4378810000000 1.0
C      1  0.5872600000000  0.4662330000000  0.4619270000000 1.0
C      1  0.5598490000000  0.4990460000000  0.4164790000000 1.0
C      1  0.4458250000000  0.5242840000000  0.4551990000000 1.0
C      1  0.4554300000000  0.4602220000000  0.4736160000000 1.0
C      1  0.5007910000000  0.4495910000000  0.4552960000000 1.0
C      1  0.4704250000000  0.4788670000000  0.5438170000000 1.0
C      1  0.4675650000000  0.4340920000000  0.5728650000000 1.0
C      1  0.4230690000000  0.5300460000000  0.5332110000000 1.0
C      1  0.5471220000000  0.4372580000000  0.5056280000000 1.0
C      1  0.4645170000000  0.4919380000000  0.4413160000000 1.0
C      1  0.5111190000000  0.5405210000000  0.5909790000000 1.0
C      1  0.5036910000000  0.5970130000000  0.4799590000000 1.0
C      1  0.5180140000000  0.4586000000000  0.5510510000000 1.0
C      1  0.5001300000000  0.4833040000000  0.4007650000000 1.0
C      1  0.4573790000000  0.4355070000000  0.4213550000000 1.0
C      1  0.5136330000000  0.5528810000000  0.4082890000000 1.0
C      1  0.3990320000000  0.4855320000000  0.5294060000000 1.0
C      1  0.3923360000000  0.4554560000000  0.4741740000000 1.0
C      1  0.4928480000000  0.5855050000000  0.5623710000000 1.0
C      1  0.5549400000000  0.5587500000000  0.4906240000000 1.0
C      1  0.4627410000000  0.4138240000000  0.5234050000000 1.0
C      1  0.5772440000000  0.5540520000000  0.5362050000000 1.0
C      1  0.5124460000000  0.5297690000000  0.5360380000000 1.0
C      1  0.5354440000000  0.5106630000000  0.4807160000000 1.0
C      1  0.4560000000000  0.3867890000000  0.5076910000000 1.0
C      1  0.4790550000000  0.5489400000000  0.6005110000000 1.0
C      1  0.5917490000000  0.5442200000000  0.4963660000000 1.0
C      1  0.4983230000000  0.4780660000000  0.5081860000000 1.0
C      1  0.5105660000000  0.5105130000000  0.5764510000000 1.0
C      1  0.5434650000000  0.3774360000000  0.4845370000000 1.0
C      1  0.5644910000000  0.5744580000000  0.4557610000000 1.0
C      1  0.5732670000000  0.4089470000000  0.5150450000000 1.0
C      1  0.4755720000000  0.4622610000000  0.4412140000000 1.0
C      1  0.4361160000000  0.4587720000000  0.4453100000000 1.0
C      1  0.4606850000000  0.5954420000000  0.5211950000000 1.0
C      1  0.4360520000000  0.5758550000000  0.5466640000000 1.0
C      1  0.5203460000000  0.5466870000000  0.4470510000000 1.0
C      1  0.5123030000000  0.4653560000000  0.4271600000000 1.0
C      1  0.5356930000000  0.3944680000000  0.4596030000000 1.0
C      1  0.5511120000000  0.4411880000000  0.5646870000000 1.0
C      1  0.5779240000000  0.5216690000000  0.4288390000000 1.0
C      1  0.5258880000000  0.5641460000000  0.4751090000000 1.0
C      1  0.4461210000000  0.4680570000000  0.4153670000000 1.0
C      1  0.5014640000000  0.3899550000000  0.5001050000000 1.0
C      1  0.4691950000000  0.5563490000000  0.4914490000000 1.0
C      1  0.4987800000000  0.4945430000000  0.4389540000000 1.0
C      1  0.4795240000000  0.4154840000000  0.5498460000000 1.0
C      1  0.4767880000000  0.4125590000000  0.4336980000000 1.0
C      1  0.4555800000000  0.5192870000000  0.4853470000000 1.0
C      1  0.4272290000000  0.4750390000000  0.4804580000000 1.0
C      1  0.4683690000000  0.4052410000000  0.4641190000000 1.0
C      1  0.5083530000000  0.5088780000000  0.4975970000000 1.0
C      1  0.4524530000000  0.5438560000000  0.5294760000000 1.0
C      1  0.4781190000000  0.4591620000000  0.4075210000000 1.0
C      1  0.5027320000000  0.4902170000000  0.4706110000000 1.0
C      1  0.4451030000000  0.5766840000000  0.4609660000000 1.0
C      1  0.4518150000000  0.4380840000000  0.5067110000000 1.0
C      1  0.5294380000000  0.6054830000000  0.4931610000000 1.0
C      1  0.5106330000000  0.5813880000000  0.5353690000000 1.0
C      1  0.5527750000000  0.4703540000000  0.4026870000000 1.0
C      1  0.4840710000000  0.5721280000000  0.4674490000000 1.0
C      1  0.5908330000000  0.5190070000000  0.5493540000000 1.0
C      1  0.5249700000000  0.5145000000000  0.4483200000000 1.0
C      1  0.4141560000000  0.4469370000000  0.5498720000000 1.0
C      1  0.4782880000000  0.4363060000000  0.4734060000000 1.0
C      1  0.5934840000000  0.4751580000000  0.4944170000000 1.0
C      1  0.4740070000000  0.3848620000000  0.4858590000000 1.0
C      1  0.5578480000000  0.5195860000000  0.5515140000000 1.0
C      1  0.4319290000000  0.4300170000000  0.4842470000000 1.0
C      1  0.4451720000000  0.4275230000000  0.4529880000000 1.0
C      1  0.4798400000000  0.5062900000000  0.4019030000000 1.0
C      1  0.5076230000000  0.4210450000000  0.5428010000000 1.0
C      1  0.4116410000000  0.4920300000000  0.5601870000000 1.0
C      1  0.4396940000000  0.5346400000000  0.4173960000000 1.0
C      1  0.5318810000000  0.4939000000000  0.3972370000000 1.0
C      1  0.4745780000000  0.5022630000000  0.6011170000000 1.0
C      1  0.5673800000000  0.4391710000000  0.4584700000000 1.0
C      1  0.5547880000000  0.4851350000000  0.5264330000000 1.0
C      1  0.4011840000000  0.5642190000000  0.5123510000000 1.0
C      1  0.5005680000000  0.5704130000000  0.4311850000000 1.0
C      1  0.4718500000000  0.4654930000000  0.5019740000000 1.0
C      1  0.5734630000000  0.5428700000000  0.5681530000000 1.0
C      1  0.5212420000000  0.4689580000000  0.6062230000000 1.0
C      1  0.5532720000000  0.5920340000000  0.4829790000000 1.0
C      1  0.5477510000000  0.4011850000000  0.5272990000000 1.0
C      1  0.5529210000000  0.4968020000000  0.4476800000000 1.0
C      1  0.4170630000000  0.4936110000000  0.5026750000000 1.0
C      1  0.4132500000000  0.4574540000000  0.5192850000000 1.0
C      1  0.4240140000000  0.4667680000000  0.5666290000000 1.0
C      1  0.5358210000000  0.4166820000000  0.5489470000000 1.0
C      1  0.5621680000000  0.4726900000000  0.5721240000000 1.0
C      1  0.4632000000000  0.5886300000000  0.5504370000000 1.0
C      1  0.5469440000000  0.4122230000000  0.4853590000000 1.0
C      1  0.4082600000000  0.4732880000000  0.4529300000000 1.0
C      1  0.5072460000000  0.5627230000000  0.5002410000000 1.0
C      1  0.5266770000000  0.4877040000000  0.5427200000000 1.0
C      1  0.5285410000000  0.3862080000000  0.5093130000000 1.0
C      1  0.5240020000000  0.6089300000000  0.5206060000000 1.0
C      1  0.5979680000000  0.4431530000000  0.4837420000000 1.0
C      1  0.5295720000000  0.4096460000000  0.4375890000000 1.0
C      1  0.5405290000000  0.5494910000000  0.4126940000000 1.0
C      1  0.5943910000000  0.5805250000000  0.5275370000000 1.0
C      1  0.4967230000000  0.4876910000000  0.6140130000000 1.0
C      1  0.5447220000000  0.4550380000000  0.5951700000000 1.0
C      1  0.5470420000000  0.4316060000000  0.4347920000000 1.0
C      1  0.5441960000000  0.5486290000000  0.5851920000000 1.0
C      1  0.5322860000000  0.5851380000000  0.4505190000000 1.0
C      1  0.5620870000000  0.5842270000000  0.5293280000000 1.0
C      1  0.5475380000000  0.4667980000000  0.4593740000000 1.0
C      1  0.4428920000000  0.5863240000000  0.4935430000000 1.0
C      1  0.4731040000000  0.5194790000000  0.5211980000000 1.0
C      1  0.4880940000000  0.4540450000000  0.5544110000000 1.0
C      1  0.4925160000000  0.5345940000000  0.5017590000000 1.0
C      1  0.5027170000000  0.6002070000000  0.4462750000000 1.0
C      1  0.5522070000000  0.5355230000000  0.4683700000000 1.0
C      1  0.5423240000000  0.4996870000000  0.5698640000000 1.0
C      1  0.4406370000000  0.5453950000000  0.4986550000000 1.0
C      1  0.5661170000000  0.5306140000000  0.5141240000000 1.0
C      1  0.5207430000000  0.4650980000000  0.4730410000000 1.0
END
