TITL C-2778423-5760-1150 -0.00263041435518747 125000 -659.033795980443 0 0 113 (C1) n - 1
REM
REM in /home/nfs/bkarasulu/CARBON/AIRSS/Generating-Clusters/REBO/Only-C1/SD-CG/HFTN-CG
REM
REM
REM
REM
REM
REM ./C.cell (11c1c37f851c82e70ff6c80c92926a4b)
REM
REM compiler GCC version 9.2.1 20190827 (Red Hat 9.2.1-1)
REM options -cpp -mtune=generic -march=x86-64 -g -O0 -fpre-include=/usr/include/finclude/math-vector-fortran.h
REM seed -1456415975 1728223174 -1818994006 -1809890847 -215030169 2098602638 354219361 -518752844 -971564289 1721708583 -657755938 -1273416243 1283802486 -676737460 -710555695 1547684362 2134616512 -307306808 1039318191 1630680318 -1700657064 -1845359040 486989300 860573891 -1547365089 1448078948 256618475 983821688 -430669726 -1345183853 1492294535 1592068841 762551129
REM
CELL 1.54180   50.00000   50.00000   50.00000   90.00000   90.00000   90.00000
LATT -1
SFAC C  
C      1  0.5015390000000  0.5541160000000  0.4567800000000 1.0
C      1  0.5005800000000  0.5905660000000  0.4732140000000 1.0
C      1  0.4952910000000  0.5390470000000  0.5783030000000 1.0
C      1  0.5406860000000  0.5668050000000  0.5171080000000 1.0
C      1  0.4966810000000  0.4741610000000  0.4292690000000 1.0
C      1  0.5846160000000  0.4600750000000  0.4782860000000 1.0
C      1  0.4925990000000  0.5088310000000  0.5527760000000 1.0
C      1  0.5518280000000  0.4844730000000  0.4881140000000 1.0
C      1  0.5033900000000  0.4187380000000  0.4766260000000 1.0
C      1  0.4333000000000  0.4817860000000  0.4449710000000 1.0
C      1  0.5453130000000  0.5432220000000  0.5930790000000 1.0
C      1  0.5806510000000  0.4362280000000  0.5009550000000 1.0
C      1  0.5911050000000  0.4867960000000  0.4920660000000 1.0
C      1  0.4147930000000  0.4890640000000  0.4895030000000 1.0
C      1  0.3899620000000  0.4981700000000  0.4793370000000 1.0
C      1  0.5236470000000  0.5271280000000  0.5722290000000 1.0
C      1  0.5461860000000  0.4312350000000  0.5423450000000 1.0
C      1  0.4696500000000  0.4545970000000  0.5426650000000 1.0
C      1  0.4867220000000  0.4622270000000  0.5778820000000 1.0
C      1  0.5013480000000  0.4606000000000  0.5394880000000 1.0
C      1  0.4521170000000  0.5281770000000  0.4202830000000 1.0
C      1  0.5614580000000  0.4923920000000  0.3738430000000 1.0
C      1  0.4516030000000  0.5439220000000  0.5721690000000 1.0
C      1  0.4360350000000  0.4804680000000  0.5646590000000 1.0
C      1  0.5674920000000  0.4965100000000  0.5149000000000 1.0
C      1  0.5356250000000  0.4516510000000  0.4447500000000 1.0
C      1  0.4585190000000  0.4641720000000  0.5681600000000 1.0
C      1  0.4794810000000  0.5468350000000  0.5346960000000 1.0
C      1  0.4649720000000  0.4899200000000  0.4865670000000 1.0
C      1  0.5532890000000  0.5364990000000  0.4750170000000 1.0
C      1  0.6524800000000  0.4801710000000  0.5533360000000 1.0
C      1  0.5315870000000  0.5057200000000  0.5468080000000 1.0
C      1  0.4934760000000  0.4223220000000  0.5296600000000 1.0
C      1  0.5077650000000  0.5169650000000  0.4937930000000 1.0
C      1  0.5671400000000  0.4735110000000  0.5380440000000 1.0
C      1  0.4539140000000  0.5330930000000  0.5282260000000 1.0
C      1  0.5691970000000  0.5221150000000  0.4299980000000 1.0
C      1  0.5533130000000  0.5487230000000  0.5351770000000 1.0
C      1  0.4789400000000  0.5765060000000  0.4536090000000 1.0
C      1  0.4910380000000  0.4699500000000  0.4782910000000 1.0
C      1  0.5526690000000  0.5486070000000  0.6183430000000 1.0
C      1  0.4891040000000  0.5515640000000  0.4867210000000 1.0
C      1  0.4168980000000  0.4951470000000  0.5209240000000 1.0
C      1  0.4425350000000  0.4426970000000  0.4709790000000 1.0
C      1  0.4536230000000  0.5719120000000  0.4660730000000 1.0
C      1  0.5718780000000  0.5094990000000  0.4766330000000 1.0
C      1  0.4330050000000  0.5321830000000  0.4420890000000 1.0
C      1  0.5495620000000  0.4867280000000  0.3958030000000 1.0
C      1  0.5351920000000  0.5306920000000  0.5011390000000 1.0
C      1  0.4621850000000  0.4179490000000  0.5112100000000 1.0
C      1  0.5176230000000  0.5383300000000  0.4240400000000 1.0
C      1  0.5585190000000  0.4480640000000  0.5197070000000 1.0
C      1  0.4644120000000  0.4447040000000  0.4527940000000 1.0
C      1  0.5019950000000  0.5209150000000  0.4646560000000 1.0
C      1  0.4377610000000  0.4244670000000  0.4922300000000 1.0
C      1  0.4398360000000  0.5706690000000  0.5113340000000 1.0
C      1  0.4698720000000  0.5010000000000  0.4167090000000 1.0
C      1  0.5428100000000  0.4766180000000  0.5601380000000 1.0
C      1  0.4404380000000  0.5061700000000  0.5740850000000 1.0
C      1  0.4264830000000  0.4663490000000  0.4707110000000 1.0
C      1  0.5089470000000  0.4487950000000  0.4407150000000 1.0
C      1  0.5680140000000  0.4566720000000  0.4497730000000 1.0
C      1  0.5282400000000  0.5652630000000  0.4415050000000 1.0
C      1  0.5494810000000  0.5467870000000  0.5624830000000 1.0
C      1  0.6115390000000  0.4842550000000  0.5147620000000 1.0
C      1  0.6290560000000  0.4801470000000  0.5411760000000 1.0
C      1  0.5116630000000  0.4589620000000  0.4907610000000 1.0
C      1  0.4878560000000  0.4928980000000  0.4540690000000 1.0
C      1  0.4145590000000  0.4314220000000  0.5080750000000 1.0
C      1  0.5044140000000  0.5276510000000  0.5264960000000 1.0
C      1  0.4984950000000  0.4347030000000  0.5612260000000 1.0
C      1  0.5821150000000  0.5080280000000  0.4466350000000 1.0
C      1  0.5064760000000  0.4881630000000  0.5314710000000 1.0
C      1  0.5586680000000  0.4365570000000  0.4756270000000 1.0
C      1  0.4397570000000  0.5117750000000  0.4928080000000 1.0
C      1  0.4812820000000  0.5976900000000  0.4947650000000 1.0
C      1  0.4554420000000  0.5011430000000  0.4569110000000 1.0
C      1  0.4227940000000  0.5245880000000  0.5266810000000 1.0
C      1  0.4627890000000  0.4713200000000  0.4315910000000 1.0
C      1  0.4358510000000  0.5487720000000  0.4658980000000 1.0
C      1  0.4288780000000  0.5434610000000  0.4989070000000 1.0
C      1  0.4886420000000  0.4090140000000  0.4984540000000 1.0
C      1  0.5463960000000  0.5382910000000  0.4423760000000 1.0
C      1  0.4237240000000  0.4479150000000  0.5301880000000 1.0
C      1  0.5443640000000  0.5669360000000  0.4873090000000 1.0
C      1  0.4699380000000  0.5081980000000  0.5308300000000 1.0
C      1  0.5320740000000  0.4253460000000  0.4836240000000 1.0
C      1  0.5502610000000  0.5187940000000  0.5251150000000 1.0
C      1  0.5216320000000  0.4867770000000  0.4138460000000 1.0
C      1  0.5023910000000  0.5105340000000  0.4138670000000 1.0
C      1  0.4907900000000  0.4340290000000  0.4558580000000 1.0
C      1  0.4419300000000  0.5772100000000  0.5383770000000 1.0
C      1  0.4705830000000  0.5179110000000  0.5846440000000 1.0
C      1  0.4873680000000  0.4973570000000  0.5069370000000 1.0
C      1  0.4208300000000  0.4748220000000  0.5402690000000 1.0
C      1  0.4556050000000  0.5843260000000  0.4924250000000 1.0
C      1  0.4949320000000  0.4940620000000  0.5809020000000 1.0
C      1  0.5277970000000  0.5813560000000  0.4690230000000 1.0
C      1  0.4707980000000  0.5290030000000  0.4552190000000 1.0
C      1  0.5274060000000  0.4908320000000  0.5835770000000 1.0
C      1  0.5381790000000  0.4617190000000  0.4989730000000 1.0
C      1  0.5109880000000  0.5542020000000  0.5077890000000 1.0
C      1  0.4166130000000  0.5088310000000  0.4437260000000 1.0
C      1  0.5282310000000  0.4484180000000  0.5565770000000 1.0
C      1  0.4840450000000  0.5367500000000  0.4255770000000 1.0
C      1  0.5219490000000  0.4263380000000  0.5114590000000 1.0
C      1  0.4281770000000  0.5284800000000  0.5583270000000 1.0
C      1  0.4657140000000  0.5332370000000  0.4873830000000 1.0
C      1  0.5509380000000  0.4742620000000  0.4262090000000 1.0
C      1  0.4515920000000  0.4393630000000  0.5296670000000 1.0
C      1  0.5973850000000  0.4759770000000  0.5420480000000 1.0
C      1  0.4870620000000  0.5579500000000  0.5598940000000 1.0
C      1  0.4496190000000  0.5709510000000  0.5638870000000 1.0
END
