TITL C-2778433-5640-83 3.81456949490109e-05 125000 -982.481060353263 0 0 168 (C1) n - 1
REM
REM in /home/nfs/bkarasulu/CARBON/AIRSS/Generating-Clusters/REBO/Only-C1/SD-CG/HFTN-CG
REM
REM
REM
REM
REM
REM ./C.cell (11c1c37f851c82e70ff6c80c92926a4b)
REM
REM compiler GCC version 9.2.1 20190827 (Red Hat 9.2.1-1)
REM options -cpp -mtune=generic -march=x86-64 -g -O0 -fpre-include=/usr/include/finclude/math-vector-fortran.h
REM seed -720014219 -1390311543 -688861691 -1567654283 739905950 1405409855 -404949478 -1776769631 1763547421 1665505982 680413365 -1312906146 283273092 2130871692 -466474260 -37172468 -2109832747 -425448294 -2064379689 1649343846 -562163899 290575602 1390828242 -1782643954 591591167 -1190458606 1513638393 -539502139 -1686738717 -595629488 -2026815384 65170303 1693963794
REM
CELL 1.54180   50.00000   50.00000   50.00000   90.00000   90.00000   90.00000
LATT -1
SFAC C  
C      1  0.5405250000000  0.5258120000000  0.5399390000000 1.0
C      1  0.4994230000000  0.4924740000000  0.3841580000000 1.0
C      1  0.5507320000000  0.4484120000000  0.5227700000000 1.0
C      1  0.5525520000000  0.4800390000000  0.4321570000000 1.0
C      1  0.5145470000000  0.4473590000000  0.4840320000000 1.0
C      1  0.5128140000000  0.5820850000000  0.4620530000000 1.0
C      1  0.5684730000000  0.4162620000000  0.4892120000000 1.0
C      1  0.5468390000000  0.4045380000000  0.5527610000000 1.0
C      1  0.4526630000000  0.5066720000000  0.4580130000000 1.0
C      1  0.5787970000000  0.4991500000000  0.4778360000000 1.0
C      1  0.5482460000000  0.5392040000000  0.5674780000000 1.0
C      1  0.4780450000000  0.5528490000000  0.5830780000000 1.0
C      1  0.5803930000000  0.4779520000000  0.4276640000000 1.0
C      1  0.4472130000000  0.4166840000000  0.4597590000000 1.0
C      1  0.4584470000000  0.5249770000000  0.5848430000000 1.0
C      1  0.5515240000000  0.4331310000000  0.4436950000000 1.0
C      1  0.4911450000000  0.4758990000000  0.5954100000000 1.0
C      1  0.5878940000000  0.5502740000000  0.4931360000000 1.0
C      1  0.5294330000000  0.5094040000000  0.6215640000000 1.0
C      1  0.4811430000000  0.5841930000000  0.5701610000000 1.0
C      1  0.5315810000000  0.4117010000000  0.4496400000000 1.0
C      1  0.4598740000000  0.5376170000000  0.4711740000000 1.0
C      1  0.4570540000000  0.5548180000000  0.5584900000000 1.0
C      1  0.4716490000000  0.4101830000000  0.5038410000000 1.0
C      1  0.4693850000000  0.4981170000000  0.5670000000000 1.0
C      1  0.5077620000000  0.5765180000000  0.5203850000000 1.0
C      1  0.5628190000000  0.5031560000000  0.5759550000000 1.0
C      1  0.4674370000000  0.4815310000000  0.4737560000000 1.0
C      1  0.4002570000000  0.4371200000000  0.4816070000000 1.0
C      1  0.4472240000000  0.4770050000000  0.4078880000000 1.0
C      1  0.4534230000000  0.4702780000000  0.4977200000000 1.0
C      1  0.4644140000000  0.5722760000000  0.4906030000000 1.0
C      1  0.4811070000000  0.5929190000000  0.4612350000000 1.0
C      1  0.5372250000000  0.4209400000000  0.5268100000000 1.0
C      1  0.5067410000000  0.4555440000000  0.4280650000000 1.0
C      1  0.5742550000000  0.5378230000000  0.4193780000000 1.0
C      1  0.5794550000000  0.5532130000000  0.4420590000000 1.0
C      1  0.4957640000000  0.4432280000000  0.5912090000000 1.0
C      1  0.5549640000000  0.6125870000000  0.4718490000000 1.0
C      1  0.5395230000000  0.4059280000000  0.4994730000000 1.0
C      1  0.4988410000000  0.5146150000000  0.6081310000000 1.0
C      1  0.5972410000000  0.4815620000000  0.4552910000000 1.0
C      1  0.4462770000000  0.4297530000000  0.5416300000000 1.0
C      1  0.4208620000000  0.4921720000000  0.5693190000000 1.0
C      1  0.4487910000000  0.5490520000000  0.4244850000000 1.0
C      1  0.5075690000000  0.4991410000000  0.4225810000000 1.0
C      1  0.5250660000000  0.3919750000000  0.4335470000000 1.0
C      1  0.4985470000000  0.5695200000000  0.4883520000000 1.0
C      1  0.4192990000000  0.5593960000000  0.5461020000000 1.0
C      1  0.4723090000000  0.5137990000000  0.4317600000000 1.0
C      1  0.4957560000000  0.4074030000000  0.5421540000000 1.0
C      1  0.4045640000000  0.4539090000000  0.5384150000000 1.0
C      1  0.5391820000000  0.5577970000000  0.5014750000000 1.0
C      1  0.4442070000000  0.5236060000000  0.5204260000000 1.0
C      1  0.5321900000000  0.4673180000000  0.5635360000000 1.0
C      1  0.4638810000000  0.4782440000000  0.5256930000000 1.0
C      1  0.5918250000000  0.5112870000000  0.5001680000000 1.0
C      1  0.3902080000000  0.4801920000000  0.5296500000000 1.0
C      1  0.5367150000000  0.6042830000000  0.4529200000000 1.0
C      1  0.4684440000000  0.4164520000000  0.5562670000000 1.0
C      1  0.4779150000000  0.6030940000000  0.4938640000000 1.0
C      1  0.4344910000000  0.5725820000000  0.4378290000000 1.0
C      1  0.5283020000000  0.5840430000000  0.5538530000000 1.0
C      1  0.4127870000000  0.5344380000000  0.4554910000000 1.0
C      1  0.5256710000000  0.5600970000000  0.5752700000000 1.0
C      1  0.4584630000000  0.5676810000000  0.4584880000000 1.0
C      1  0.4854220000000  0.5144970000000  0.3931520000000 1.0
C      1  0.3939040000000  0.4976310000000  0.4802920000000 1.0
C      1  0.4101060000000  0.4458220000000  0.4569400000000 1.0
C      1  0.5051490000000  0.5579160000000  0.5489220000000 1.0
C      1  0.5554880000000  0.5782000000000  0.5397060000000 1.0
C      1  0.4636370000000  0.5487680000000  0.5267800000000 1.0
C      1  0.3981090000000  0.5059220000000  0.5395610000000 1.0
C      1  0.5590670000000  0.5122720000000  0.4039830000000 1.0
C      1  0.4498040000000  0.4505360000000  0.5873320000000 1.0
C      1  0.5704170000000  0.5511800000000  0.5476060000000 1.0
C      1  0.5779410000000  0.5178160000000  0.5514210000000 1.0
C      1  0.4359560000000  0.5665070000000  0.5180450000000 1.0
C      1  0.5200760000000  0.4807420000000  0.6061370000000 1.0
C      1  0.5831620000000  0.4288610000000  0.5101370000000 1.0
C      1  0.4261610000000  0.4759220000000  0.5129520000000 1.0
C      1  0.5613750000000  0.6011940000000  0.4956050000000 1.0
C      1  0.5241570000000  0.5127180000000  0.4667960000000 1.0
C      1  0.5595410000000  0.4627250000000  0.5507960000000 1.0
C      1  0.3989090000000  0.4784200000000  0.5001940000000 1.0
C      1  0.4190220000000  0.5622230000000  0.4618540000000 1.0
C      1  0.4779400000000  0.4822050000000  0.4224570000000 1.0
C      1  0.4134580000000  0.5177410000000  0.4783990000000 1.0
C      1  0.5911750000000  0.4565930000000  0.4999430000000 1.0
C      1  0.5434770000000  0.5468230000000  0.4744250000000 1.0
C      1  0.5474790000000  0.5002170000000  0.5324330000000 1.0
C      1  0.5345710000000  0.4988790000000  0.4018340000000 1.0
C      1  0.5529520000000  0.5798760000000  0.5115760000000 1.0
C      1  0.5179410000000  0.4739830000000  0.4544520000000 1.0
C      1  0.4707790000000  0.5097280000000  0.5305290000000 1.0
C      1  0.5574930000000  0.5166600000000  0.4673370000000 1.0
C      1  0.5219700000000  0.5301440000000  0.4259260000000 1.0
C      1  0.5301410000000  0.4882480000000  0.5124600000000 1.0
C      1  0.5385850000000  0.4535450000000  0.4214160000000 1.0
C      1  0.4162900000000  0.4241460000000  0.5014730000000 1.0
C      1  0.5001920000000  0.5101130000000  0.5742690000000 1.0
C      1  0.4188570000000  0.4305790000000  0.5293170000000 1.0
C      1  0.5194060000000  0.4386530000000  0.5767370000000 1.0
C      1  0.5052180000000  0.5952780000000  0.4152200000000 1.0
C      1  0.5651810000000  0.4703850000000  0.4833390000000 1.0
C      1  0.4954900000000  0.5362810000000  0.4083240000000 1.0
C      1  0.5130700000000  0.5424800000000  0.4628490000000 1.0
C      1  0.4571600000000  0.4553600000000  0.4298020000000 1.0
C      1  0.4912090000000  0.6043740000000  0.5210700000000 1.0
C      1  0.4813190000000  0.4676200000000  0.5633930000000 1.0
C      1  0.5076480000000  0.3996080000000  0.5109500000000 1.0
C      1  0.5924820000000  0.5128080000000  0.4124590000000 1.0
C      1  0.5981780000000  0.4764790000000  0.5229800000000 1.0
C      1  0.4519870000000  0.4775570000000  0.5885190000000 1.0
C      1  0.4897280000000  0.5486280000000  0.5134420000000 1.0
C      1  0.3719430000000  0.4969030000000  0.4643130000000 1.0
C      1  0.5738980000000  0.5529440000000  0.4695870000000 1.0
C      1  0.4354390000000  0.4389020000000  0.4458910000000 1.0
C      1  0.6108010000000  0.5025420000000  0.4322230000000 1.0
C      1  0.5209280000000  0.4140290000000  0.5626310000000 1.0
C      1  0.4380340000000  0.5230920000000  0.4913840000000 1.0
C      1  0.5426020000000  0.5069800000000  0.4399620000000 1.0
C      1  0.4950740000000  0.5274490000000  0.5467660000000 1.0
C      1  0.5521980000000  0.4916060000000  0.6033180000000 1.0
C      1  0.4211490000000  0.5202560000000  0.5409000000000 1.0
C      1  0.5383870000000  0.4631390000000  0.4988040000000 1.0
C      1  0.5305330000000  0.5892480000000  0.4271320000000 1.0
C      1  0.4710970000000  0.4315530000000  0.5816930000000 1.0
C      1  0.5180940000000  0.4691280000000  0.3989950000000 1.0
C      1  0.5091020000000  0.5108510000000  0.5203280000000 1.0
C      1  0.4558590000000  0.6078760000000  0.5481930000000 1.0
C      1  0.4265340000000  0.4766840000000  0.5470150000000 1.0
C      1  0.4534120000000  0.4594700000000  0.5485180000000 1.0
C      1  0.5088110000000  0.4348610000000  0.5307640000000 1.0
C      1  0.5050010000000  0.5443590000000  0.5941140000000 1.0
C      1  0.4874490000000  0.5260100000000  0.4585410000000 1.0
C      1  0.4980520000000  0.5973910000000  0.5524570000000 1.0
C      1  0.5754680000000  0.4300070000000  0.4641540000000 1.0
C      1  0.4509830000000  0.5828430000000  0.5432500000000 1.0
C      1  0.5263020000000  0.5599830000000  0.4391220000000 1.0
C      1  0.5747970000000  0.4281170000000  0.5383100000000 1.0
C      1  0.5201070000000  0.4162820000000  0.4770290000000 1.0
C      1  0.5070590000000  0.4605870000000  0.5457630000000 1.0
C      1  0.4828530000000  0.4390970000000  0.4397750000000 1.0
C      1  0.4967150000000  0.4966640000000  0.4685380000000 1.0
C      1  0.4937660000000  0.4364460000000  0.5050250000000 1.0
C      1  0.4428710000000  0.4170770000000  0.4898390000000 1.0
C      1  0.4251100000000  0.5024820000000  0.4117240000000 1.0
C      1  0.5225120000000  0.5398580000000  0.5180440000000 1.0
C      1  0.4565970000000  0.5090800000000  0.4021400000000 1.0
C      1  0.4697980000000  0.5005170000000  0.6063350000000 1.0
C      1  0.4336330000000  0.5230540000000  0.4347140000000 1.0
C      1  0.4762420000000  0.5555470000000  0.4193580000000 1.0
C      1  0.5467900000000  0.4624710000000  0.4594070000000 1.0
C      1  0.4755410000000  0.4122490000000  0.4541430000000 1.0
C      1  0.4617780000000  0.4420300000000  0.5005690000000 1.0
C      1  0.5296960000000  0.4970510000000  0.5710800000000 1.0
C      1  0.5796530000000  0.4856240000000  0.5430790000000 1.0
C      1  0.5967480000000  0.4523710000000  0.4675710000000 1.0
C      1  0.5331950000000  0.5246160000000  0.5913700000000 1.0
C      1  0.4317240000000  0.5357350000000  0.5671600000000 1.0
C      1  0.4902060000000  0.4580500000000  0.4642680000000 1.0
C      1  0.4837240000000  0.5822550000000  0.4289340000000 1.0
C      1  0.5770910000000  0.4378930000000  0.5660450000000 1.0
C      1  0.4923240000000  0.4023200000000  0.4800920000000 1.0
C      1  0.4307890000000  0.5680200000000  0.4872970000000 1.0
C      1  0.4945640000000  0.4838840000000  0.5294730000000 1.0
C      1  0.5860220000000  0.5343740000000  0.5227720000000 1.0
END
