TITL C-2778426-5645-1309 -0.221146968751186 125000 -676.350450614202 0 0 117 (C1) n - 1
REM
REM in /home/nfs/bkarasulu/CARBON/AIRSS/Generating-Clusters/REBO/Only-C1/SD-CG/HFTN-CG
REM
REM
REM
REM
REM
REM ./C.cell (11c1c37f851c82e70ff6c80c92926a4b)
REM
REM compiler GCC version 9.2.1 20190827 (Red Hat 9.2.1-1)
REM options -cpp -mtune=generic -march=x86-64 -g -O0 -fpre-include=/usr/include/finclude/math-vector-fortran.h
REM seed 1777412570 -149089046 2010306943 -1355839019 1986880674 -935002005 -631697560 494469995 75903341 1212419211 973490596 -778114216 1519897840 -1046455652 -1955506494 1121109830 36149205 495846850 857373235 607258517 -703884670 1664941408 -1650404692 -1240888855 1759707831 -1792850677 27035427 -1155197804 1481342148 -975581569 999769490 -1551847448 -1629116044
REM
CELL 1.54180   50.00000   50.00000   50.00000   90.00000   90.00000   90.00000
LATT -1
SFAC C  
C      1  0.5156760000000  0.4334660000000  0.4866010000000 1.0
C      1  0.4409840000000  0.4703040000000  0.5636230000000 1.0
C      1  0.4337130000000  0.5154420000000  0.4905630000000 1.0
C      1  0.5297330000000  0.4541890000000  0.5428760000000 1.0
C      1  0.4604710000000  0.4930130000000  0.5739810000000 1.0
C      1  0.4520820000000  0.5371220000000  0.5015180000000 1.0
C      1  0.4083550000000  0.4999100000000  0.4771900000000 1.0
C      1  0.4526370000000  0.5749560000000  0.4894220000000 1.0
C      1  0.4618890000000  0.4827610000000  0.4667130000000 1.0
C      1  0.4136910000000  0.4725060000000  0.5671650000000 1.0
C      1  0.4873350000000  0.5000140000000  0.5042600000000 1.0
C      1  0.5297500000000  0.5761360000000  0.5352430000000 1.0
C      1  0.5105300000000  0.5912310000000  0.5139290000000 1.0
C      1  0.5472080000000  0.4980330000000  0.5454650000000 1.0
C      1  0.4391410000000  0.5610830000000  0.5423020000000 1.0
C      1  0.4402710000000  0.4989350000000  0.5158600000000 1.0
C      1  0.5191660000000  0.4618570000000  0.4208380000000 1.0
C      1  0.4284430000000  0.4161080000000  0.4685270000000 1.0
C      1  0.5039180000000  0.5277650000000  0.4496830000000 1.0
C      1  0.4674330000000  0.5587360000000  0.5230460000000 1.0
C      1  0.5220420000000  0.4633590000000  0.5007220000000 1.0
C      1  0.4683540000000  0.5242030000000  0.4324880000000 1.0
C      1  0.5378100000000  0.5635480000000  0.5047640000000 1.0
C      1  0.5581810000000  0.5395500000000  0.5023110000000 1.0
C      1  0.5298640000000  0.5123400000000  0.5785260000000 1.0
C      1  0.5401450000000  0.5398480000000  0.5708870000000 1.0
C      1  0.5449120000000  0.4846110000000  0.4213860000000 1.0
C      1  0.5076080000000  0.5284860000000  0.5384960000000 1.0
C      1  0.4121310000000  0.4726620000000  0.4838720000000 1.0
C      1  0.5758080000000  0.4446910000000  0.4950760000000 1.0
C      1  0.4840960000000  0.4347970000000  0.4767890000000 1.0
C      1  0.5455250000000  0.4502770000000  0.4478660000000 1.0
C      1  0.5950420000000  0.5170340000000  0.5265950000000 1.0
C      1  0.4683470000000  0.4120710000000  0.4969450000000 1.0
C      1  0.4917100000000  0.4732250000000  0.4316540000000 1.0
C      1  0.5191010000000  0.4316120000000  0.4366420000000 1.0
C      1  0.5109350000000  0.4328790000000  0.5619830000000 1.0
C      1  0.5892180000000  0.5047090000000  0.4437310000000 1.0
C      1  0.4968780000000  0.5582880000000  0.5674300000000 1.0
C      1  0.5087260000000  0.4646440000000  0.5750990000000 1.0
C      1  0.5624190000000  0.4397660000000  0.5251910000000 1.0
C      1  0.5373450000000  0.4244170000000  0.4646450000000 1.0
C      1  0.5402860000000  0.5150440000000  0.4217070000000 1.0
C      1  0.5044770000000  0.4824800000000  0.4826160000000 1.0
C      1  0.4328090000000  0.4378370000000  0.4558530000000 1.0
C      1  0.4808590000000  0.5809440000000  0.5034920000000 1.0
C      1  0.4354770000000  0.5153980000000  0.5683010000000 1.0
C      1  0.5403400000000  0.4840510000000  0.5150540000000 1.0
C      1  0.4711420000000  0.5126820000000  0.5507890000000 1.0
C      1  0.4490800000000  0.4404990000000  0.5222090000000 1.0
C      1  0.5873150000000  0.4619140000000  0.5323420000000 1.0
C      1  0.5344270000000  0.5906780000000  0.4633750000000 1.0
C      1  0.5308880000000  0.5511270000000  0.4675810000000 1.0
C      1  0.4633630000000  0.4549550000000  0.4960670000000 1.0
C      1  0.5055210000000  0.5884140000000  0.4810520000000 1.0
C      1  0.4873710000000  0.4656360000000  0.4619450000000 1.0
C      1  0.5705850000000  0.4965240000000  0.5221580000000 1.0
C      1  0.5183870000000  0.5352090000000  0.4253170000000 1.0
C      1  0.6039080000000  0.4758390000000  0.5151030000000 1.0
C      1  0.4280610000000  0.5511810000000  0.4558730000000 1.0
C      1  0.4814120000000  0.4022090000000  0.5190420000000 1.0
C      1  0.4821190000000  0.4635140000000  0.5222570000000 1.0
C      1  0.5269020000000  0.4789050000000  0.4497450000000 1.0
C      1  0.5075370000000  0.4423440000000  0.5235210000000 1.0
C      1  0.4845390000000  0.4519570000000  0.5546450000000 1.0
C      1  0.4073210000000  0.4640180000000  0.5109900000000 1.0
C      1  0.5382300000000  0.4801190000000  0.5714530000000 1.0
C      1  0.5784390000000  0.4652280000000  0.4769590000000 1.0
C      1  0.5485890000000  0.5159580000000  0.4803070000000 1.0
C      1  0.4174520000000  0.5130050000000  0.5453750000000 1.0
C      1  0.4185590000000  0.4377450000000  0.5154750000000 1.0
C      1  0.4971150000000  0.5803400000000  0.4265020000000 1.0
C      1  0.5443540000000  0.5751960000000  0.4386140000000 1.0
C      1  0.5475810000000  0.4275250000000  0.4969900000000 1.0
C      1  0.4768060000000  0.5485030000000  0.4515030000000 1.0
C      1  0.4549020000000  0.4510060000000  0.5485790000000 1.0
C      1  0.4432560000000  0.5082040000000  0.4377150000000 1.0
C      1  0.4521480000000  0.5621560000000  0.4636580000000 1.0
C      1  0.5647740000000  0.5554430000000  0.4440620000000 1.0
C      1  0.4921270000000  0.4228710000000  0.4458980000000 1.0
C      1  0.5731330000000  0.4601440000000  0.4498590000000 1.0
C      1  0.5151010000000  0.5051540000000  0.5180650000000 1.0
C      1  0.4169540000000  0.5381170000000  0.5304990000000 1.0
C      1  0.5931740000000  0.5171570000000  0.4695590000000 1.0
C      1  0.5031190000000  0.5668770000000  0.4572470000000 1.0
C      1  0.5562170000000  0.5715070000000  0.4790170000000 1.0
C      1  0.5593320000000  0.4608060000000  0.5520630000000 1.0
C      1  0.4301490000000  0.5620510000000  0.5097170000000 1.0
C      1  0.5234190000000  0.5614160000000  0.5627480000000 1.0
C      1  0.5082700000000  0.5504710000000  0.4933480000000 1.0
C      1  0.5725190000000  0.5358330000000  0.5285350000000 1.0
C      1  0.4662640000000  0.5014930000000  0.5250550000000 1.0
C      1  0.4820500000000  0.5360250000000  0.4883940000000 1.0
C      1  0.5201290000000  0.5053780000000  0.4661930000000 1.0
C      1  0.5764860000000  0.5439410000000  0.4739590000000 1.0
C      1  0.4862830000000  0.4856610000000  0.6159370000000 1.0
C      1  0.4885090000000  0.5049800000000  0.4206510000000 1.0
C      1  0.5750330000000  0.4826580000000  0.4324520000000 1.0
C      1  0.4458330000000  0.5424910000000  0.5689080000000 1.0
C      1  0.5068190000000  0.5532040000000  0.5264020000000 1.0
C      1  0.4847060000000  0.4816390000000  0.5897380000000 1.0
C      1  0.4373710000000  0.4160570000000  0.4972330000000 1.0
C      1  0.5080500000000  0.4793090000000  0.5379820000000 1.0
C      1  0.3877840000000  0.4745950000000  0.5705260000000 1.0
C      1  0.4156700000000  0.4859380000000  0.5293190000000 1.0
C      1  0.4255790000000  0.5204070000000  0.4581400000000 1.0
C      1  0.4388410000000  0.4624960000000  0.4735460000000 1.0
C      1  0.5556860000000  0.5277360000000  0.5496260000000 1.0
C      1  0.5488130000000  0.5279650000000  0.4500060000000 1.0
C      1  0.5985780000000  0.4953270000000  0.4936650000000 1.0
C      1  0.5098170000000  0.5052740000000  0.5574910000000 1.0
C      1  0.4740660000000  0.5450360000000  0.5524340000000 1.0
C      1  0.5664500000000  0.4925920000000  0.4860220000000 1.0
C      1  0.5224690000000  0.5642120000000  0.4224140000000 1.0
C      1  0.4712100000000  0.5075890000000  0.4771980000000 1.0
C      1  0.4609700000000  0.4860060000000  0.4243470000000 1.0
C      1  0.4980630000000  0.4152150000000  0.5356810000000 1.0
END
