TITL C-2778427-5640-788 0.00558867765307313 125000 -962.976839983364 0 0 165 (C1) n - 1
REM
REM in /home/nfs/bkarasulu/CARBON/AIRSS/Generating-Clusters/REBO/Only-C1/SD-CG/HFTN-CG
REM
REM
REM
REM
REM
REM ./C.cell (11c1c37f851c82e70ff6c80c92926a4b)
REM
REM compiler GCC version 9.2.1 20190827 (Red Hat 9.2.1-1)
REM options -cpp -mtune=generic -march=x86-64 -g -O0 -fpre-include=/usr/include/finclude/math-vector-fortran.h
REM seed 164563779 1285439804 -568714157 -196238134 -1039414071 -1557867543 552159375 1015321649 -1518615557 -1248373615 295870458 -680528091 674310053 1949892242 132179228 2144961124 -2050887896 -1334169731 -1921258604 -404581184 -1162179719 1672084395 -21262087 -1471216239 -254606910 414868341 -1595724079 -71714642 -1056229990 1281190796 -20346590 -1737894737 -131358174
REM
CELL 1.54180   50.00000   50.00000   50.00000   90.00000   90.00000   90.00000
LATT -1
SFAC C  
C      1  0.4980690000000  0.5897140000000  0.4756530000000 1.0
C      1  0.4078770000000  0.4429570000000  0.5090690000000 1.0
C      1  0.4636300000000  0.4101190000000  0.4778600000000 1.0
C      1  0.5202630000000  0.4670470000000  0.5614480000000 1.0
C      1  0.5056470000000  0.4395160000000  0.5242680000000 1.0
C      1  0.5823920000000  0.4885390000000  0.5226680000000 1.0
C      1  0.5789260000000  0.5573070000000  0.5445070000000 1.0
C      1  0.5996780000000  0.5372630000000  0.5385710000000 1.0
C      1  0.5318340000000  0.5248620000000  0.3984570000000 1.0
C      1  0.4067540000000  0.5122190000000  0.5777230000000 1.0
C      1  0.4200340000000  0.5180090000000  0.4203430000000 1.0
C      1  0.5504660000000  0.4135300000000  0.4654370000000 1.0
C      1  0.4334090000000  0.4493920000000  0.5511910000000 1.0
C      1  0.4893160000000  0.4885600000000  0.4655980000000 1.0
C      1  0.5272740000000  0.5494330000000  0.5482740000000 1.0
C      1  0.5011210000000  0.4185590000000  0.5579580000000 1.0
C      1  0.5380580000000  0.4856250000000  0.5226310000000 1.0
C      1  0.4287460000000  0.4985310000000  0.4539330000000 1.0
C      1  0.4377800000000  0.4266680000000  0.4627930000000 1.0
C      1  0.5241960000000  0.5597940000000  0.4730120000000 1.0
C      1  0.5571760000000  0.4978940000000  0.5436180000000 1.0
C      1  0.4843850000000  0.4987990000000  0.3995110000000 1.0
C      1  0.4321010000000  0.5114990000000  0.5466150000000 1.0
C      1  0.4461060000000  0.4725940000000  0.4787740000000 1.0
C      1  0.4526750000000  0.5435240000000  0.5491970000000 1.0
C      1  0.5260610000000  0.4384050000000  0.5583760000000 1.0
C      1  0.5220830000000  0.5112910000000  0.5782680000000 1.0
C      1  0.5938430000000  0.5621920000000  0.4971170000000 1.0
C      1  0.4806100000000  0.5488820000000  0.4155920000000 1.0
C      1  0.4595650000000  0.4929680000000  0.4573880000000 1.0
C      1  0.4907910000000  0.4385520000000  0.4265590000000 1.0
C      1  0.4068390000000  0.4899650000000  0.4952440000000 1.0
C      1  0.5651710000000  0.4636040000000  0.4291770000000 1.0
C      1  0.4320340000000  0.4285920000000  0.5039220000000 1.0
C      1  0.3986760000000  0.5260000000000  0.4621100000000 1.0
C      1  0.6054080000000  0.5151610000000  0.5559230000000 1.0
C      1  0.4629940000000  0.4682640000000  0.5850620000000 1.0
C      1  0.5800390000000  0.5913160000000  0.4855290000000 1.0
C      1  0.5812120000000  0.5091610000000  0.4701130000000 1.0
C      1  0.4560880000000  0.4528390000000  0.5270740000000 1.0
C      1  0.5140950000000  0.4464180000000  0.4761940000000 1.0
C      1  0.4994160000000  0.5263390000000  0.4016850000000 1.0
C      1  0.4917710000000  0.6032460000000  0.5124690000000 1.0
C      1  0.4235350000000  0.5393360000000  0.4628100000000 1.0
C      1  0.5282610000000  0.5195220000000  0.4735610000000 1.0
C      1  0.5207390000000  0.5913450000000  0.5219940000000 1.0
C      1  0.4369760000000  0.4740540000000  0.4307250000000 1.0
C      1  0.4950130000000  0.4999660000000  0.5029950000000 1.0
C      1  0.4685090000000  0.5660800000000  0.5327710000000 1.0
C      1  0.4650990000000  0.5985130000000  0.5097080000000 1.0
C      1  0.5602430000000  0.5536010000000  0.4361670000000 1.0
C      1  0.5472090000000  0.4161480000000  0.5231100000000 1.0
C      1  0.3899540000000  0.5130970000000  0.5310180000000 1.0
C      1  0.3980790000000  0.5005860000000  0.4394890000000 1.0
C      1  0.4287740000000  0.5880500000000  0.5217180000000 1.0
C      1  0.4032510000000  0.5341450000000  0.5622360000000 1.0
C      1  0.5264510000000  0.3998710000000  0.4593260000000 1.0
C      1  0.5481910000000  0.4671770000000  0.4751410000000 1.0
C      1  0.4457180000000  0.5323490000000  0.4879070000000 1.0
C      1  0.4487040000000  0.4201870000000  0.5487320000000 1.0
C      1  0.5557420000000  0.4401990000000  0.5448720000000 1.0
C      1  0.4784690000000  0.4105820000000  0.5412960000000 1.0
C      1  0.5014510000000  0.4727660000000  0.3872310000000 1.0
C      1  0.6045520000000  0.5329740000000  0.5079710000000 1.0
C      1  0.4925380000000  0.5564340000000  0.5838740000000 1.0
C      1  0.4744580000000  0.5898000000000  0.5533670000000 1.0
C      1  0.5107030000000  0.4137730000000  0.4384050000000 1.0
C      1  0.5095130000000  0.5344880000000  0.5670240000000 1.0
C      1  0.4731830000000  0.3999370000000  0.5088950000000 1.0
C      1  0.4653750000000  0.5331410000000  0.4392180000000 1.0
C      1  0.4980290000000  0.5824210000000  0.5672580000000 1.0
C      1  0.5268450000000  0.5996740000000  0.4722030000000 1.0
C      1  0.4369020000000  0.4681360000000  0.5748850000000 1.0
C      1  0.5186840000000  0.4132960000000  0.5205390000000 1.0
C      1  0.5542180000000  0.5210200000000  0.4077650000000 1.0
C      1  0.4283090000000  0.4847290000000  0.5331710000000 1.0
C      1  0.5959790000000  0.5013230000000  0.4984640000000 1.0
C      1  0.5390910000000  0.4433260000000  0.4950710000000 1.0
C      1  0.5285470000000  0.5874640000000  0.4447460000000 1.0
C      1  0.4062190000000  0.4677890000000  0.4438960000000 1.0
C      1  0.5531640000000  0.5799200000000  0.4321080000000 1.0
C      1  0.4956180000000  0.4767030000000  0.5521790000000 1.0
C      1  0.5190180000000  0.4506520000000  0.6021060000000 1.0
C      1  0.5474190000000  0.4813010000000  0.5712080000000 1.0
C      1  0.5284550000000  0.4766070000000  0.5990620000000 1.0
C      1  0.4800710000000  0.4588860000000  0.4592910000000 1.0
C      1  0.4065880000000  0.4549120000000  0.5363710000000 1.0
C      1  0.5598410000000  0.5481240000000  0.5711780000000 1.0
C      1  0.5953240000000  0.4891030000000  0.5511300000000 1.0
C      1  0.4252880000000  0.5577420000000  0.5124170000000 1.0
C      1  0.4491950000000  0.4810520000000  0.5108530000000 1.0
C      1  0.4733740000000  0.5721920000000  0.4362200000000 1.0
C      1  0.5346190000000  0.4553330000000  0.5233460000000 1.0
C      1  0.5517290000000  0.5175170000000  0.5836500000000 1.0
C      1  0.5435160000000  0.4682370000000  0.4125230000000 1.0
C      1  0.4594650000000  0.5373790000000  0.5159430000000 1.0
C      1  0.4739070000000  0.5374120000000  0.4695120000000 1.0
C      1  0.4786430000000  0.4475830000000  0.5734090000000 1.0
C      1  0.5530620000000  0.5272960000000  0.5449440000000 1.0
C      1  0.4253170000000  0.5060740000000  0.4841930000000 1.0
C      1  0.4444360000000  0.4093440000000  0.5208580000000 1.0
C      1  0.4781280000000  0.5681830000000  0.4753250000000 1.0
C      1  0.5732670000000  0.4649430000000  0.5595510000000 1.0
C      1  0.5585540000000  0.4396920000000  0.4483500000000 1.0
C      1  0.5357470000000  0.5445070000000  0.5954690000000 1.0
C      1  0.5784020000000  0.4560770000000  0.4707610000000 1.0
C      1  0.4250530000000  0.4527620000000  0.4645230000000 1.0
C      1  0.5119090000000  0.5313790000000  0.4324620000000 1.0
C      1  0.5550260000000  0.5060590000000  0.4573320000000 1.0
C      1  0.5962220000000  0.4505410000000  0.5408970000000 1.0
C      1  0.5862020000000  0.5655750000000  0.4639360000000 1.0
C      1  0.5034570000000  0.3948210000000  0.5055460000000 1.0
C      1  0.5103140000000  0.4753780000000  0.4848940000000 1.0
C      1  0.5608900000000  0.4185510000000  0.4947250000000 1.0
C      1  0.5052170000000  0.5338920000000  0.6063750000000 1.0
C      1  0.5544350000000  0.5711590000000  0.4745450000000 1.0
C      1  0.4907760000000  0.5506630000000  0.5128530000000 1.0
C      1  0.5379250000000  0.4935520000000  0.4910970000000 1.0
C      1  0.4574740000000  0.4545450000000  0.4414500000000 1.0
C      1  0.5099680000000  0.5702030000000  0.4993440000000 1.0
C      1  0.4760800000000  0.4893330000000  0.5973890000000 1.0
C      1  0.4676130000000  0.4231840000000  0.4463940000000 1.0
C      1  0.4523350000000  0.5774520000000  0.4598750000000 1.0
C      1  0.4749490000000  0.5224550000000  0.5947350000000 1.0
C      1  0.5828380000000  0.4839540000000  0.4392590000000 1.0
C      1  0.4854880000000  0.4349360000000  0.4801320000000 1.0
C      1  0.5862420000000  0.4361810000000  0.4931160000000 1.0
C      1  0.5210230000000  0.5788220000000  0.5496280000000 1.0
C      1  0.5188850000000  0.5373530000000  0.5202980000000 1.0
C      1  0.4603900000000  0.5145230000000  0.5648950000000 1.0
C      1  0.5050320000000  0.5627880000000  0.4443200000000 1.0
C      1  0.4969540000000  0.5182940000000  0.4756820000000 1.0
C      1  0.5731360000000  0.5148720000000  0.4314130000000 1.0
C      1  0.4149090000000  0.5364290000000  0.5308380000000 1.0
C      1  0.5968110000000  0.4811680000000  0.4703490000000 1.0
C      1  0.5135140000000  0.3862850000000  0.4806340000000 1.0
C      1  0.5085860000000  0.4973390000000  0.4321400000000 1.0
C      1  0.4185520000000  0.4882170000000  0.5806520000000 1.0
C      1  0.5373990000000  0.5405270000000  0.4496630000000 1.0
C      1  0.5313550000000  0.4856570000000  0.4525390000000 1.0
C      1  0.4608910000000  0.5501120000000  0.5807430000000 1.0
C      1  0.6024810000000  0.5326610000000  0.4744830000000 1.0
C      1  0.5508230000000  0.5447170000000  0.5168530000000 1.0
C      1  0.5246500000000  0.4422300000000  0.4473510000000 1.0
C      1  0.4552570000000  0.4821080000000  0.4057390000000 1.0
C      1  0.4435020000000  0.5787070000000  0.4921350000000 1.0
C      1  0.4796410000000  0.4595300000000  0.4039670000000 1.0
C      1  0.4354930000000  0.5354560000000  0.4372620000000 1.0
C      1  0.3983620000000  0.4639250000000  0.4920790000000 1.0
C      1  0.4786530000000  0.4985210000000  0.5469920000000 1.0
C      1  0.5994100000000  0.4415820000000  0.5158340000000 1.0
C      1  0.3968350000000  0.4866660000000  0.5338090000000 1.0
C      1  0.5004740000000  0.4337710000000  0.5884970000000 1.0
C      1  0.4705270000000  0.5009820000000  0.5185600000000 1.0
C      1  0.4760540000000  0.5043230000000  0.4315980000000 1.0
C      1  0.4568140000000  0.4460760000000  0.4936600000000 1.0
C      1  0.4825800000000  0.4502980000000  0.5406150000000 1.0
C      1  0.4320760000000  0.5034480000000  0.4006260000000 1.0
C      1  0.5063390000000  0.4996790000000  0.6036510000000 1.0
C      1  0.5675020000000  0.5713910000000  0.5156130000000 1.0
C      1  0.5891210000000  0.5398450000000  0.4439970000000 1.0
C      1  0.5132610000000  0.4644110000000  0.4247620000000 1.0
C      1  0.5163870000000  0.5079950000000  0.5211910000000 1.0
C      1  0.4507630000000  0.6015920000000  0.5374060000000 1.0
C      1  0.5448700000000  0.5919120000000  0.5002190000000 1.0
END
