TITL C-2778430-5657-661 0.00508488942654685 125000 -1119.26862623346 0 0 194 (C1) n - 1
REM
REM in /home/nfs/bkarasulu/CARBON/AIRSS/Generating-Clusters/REBO/Only-C1/SD-CG/HFTN-CG
REM
REM
REM
REM
REM
REM ./C.cell (11c1c37f851c82e70ff6c80c92926a4b)
REM
REM compiler GCC version 9.2.1 20190827 (Red Hat 9.2.1-1)
REM options -cpp -mtune=generic -march=x86-64 -g -O0 -fpre-include=/usr/include/finclude/math-vector-fortran.h
REM seed 288165854 870990141 -51762416 149976533 -723512602 1356669581 -460467725 4233775 -238227227 1487630222 -61755568 -1496743535 2120034279 1840906195 120971727 -1927692643 895994099 -1899088324 -40203624 1164619101 -426424937 -1738538359 420443842 -1834898227 2072295060 777553754 107498201 -685726418 549842423 -1109013672 2004590853 -1915616711 -426453644
REM
CELL 1.54180   50.00000   50.00000   50.00000   90.00000   90.00000   90.00000
LATT -1
SFAC C  
C      1  0.4720270000000  0.5849500000000  0.5612230000000 1.0
C      1  0.5603630000000  0.5201770000000  0.4478230000000 1.0
C      1  0.4787660000000  0.6232440000000  0.4934510000000 1.0
C      1  0.4681760000000  0.4380110000000  0.4374090000000 1.0
C      1  0.4903500000000  0.5603200000000  0.4371990000000 1.0
C      1  0.5576670000000  0.4235700000000  0.4462880000000 1.0
C      1  0.4080960000000  0.5461340000000  0.4459280000000 1.0
C      1  0.4422460000000  0.5834660000000  0.4656510000000 1.0
C      1  0.6005110000000  0.4629270000000  0.5611780000000 1.0
C      1  0.4997040000000  0.5598060000000  0.5431460000000 1.0
C      1  0.4801750000000  0.6220810000000  0.5237710000000 1.0
C      1  0.5271320000000  0.4225050000000  0.5793780000000 1.0
C      1  0.4288530000000  0.4933770000000  0.4233430000000 1.0
C      1  0.4920540000000  0.5328610000000  0.5926980000000 1.0
C      1  0.5161710000000  0.4411780000000  0.4177790000000 1.0
C      1  0.4852990000000  0.5661580000000  0.5797530000000 1.0
C      1  0.5864490000000  0.5679300000000  0.5441860000000 1.0
C      1  0.4462030000000  0.5198560000000  0.5358270000000 1.0
C      1  0.5157630000000  0.5161360000000  0.4384580000000 1.0
C      1  0.4637100000000  0.4582990000000  0.6063850000000 1.0
C      1  0.4631530000000  0.5465000000000  0.4338250000000 1.0
C      1  0.5306990000000  0.5282450000000  0.5761290000000 1.0
C      1  0.5954290000000  0.5121770000000  0.5654830000000 1.0
C      1  0.4260670000000  0.5629600000000  0.5662280000000 1.0
C      1  0.4634770000000  0.4586340000000  0.3887830000000 1.0
C      1  0.5141610000000  0.5459070000000  0.4489710000000 1.0
C      1  0.4869590000000  0.5076540000000  0.4297160000000 1.0
C      1  0.4807820000000  0.5324170000000  0.4667870000000 1.0
C      1  0.4543520000000  0.4895460000000  0.5332500000000 1.0
C      1  0.6132500000000  0.4756330000000  0.5321790000000 1.0
C      1  0.5673070000000  0.5363390000000  0.4769610000000 1.0
C      1  0.5547590000000  0.5663840000000  0.4411340000000 1.0
C      1  0.4569570000000  0.5010950000000  0.5023630000000 1.0
C      1  0.5726960000000  0.4116100000000  0.5054060000000 1.0
C      1  0.4238920000000  0.5043540000000  0.5065580000000 1.0
C      1  0.5317110000000  0.5434710000000  0.4059730000000 1.0
C      1  0.5178990000000  0.5132010000000  0.5192080000000 1.0
C      1  0.4572360000000  0.4132810000000  0.5232250000000 1.0
C      1  0.4497930000000  0.5515740000000  0.5695950000000 1.0
C      1  0.5379510000000  0.4768970000000  0.5579930000000 1.0
C      1  0.4116420000000  0.5062080000000  0.5673960000000 1.0
C      1  0.4596880000000  0.4746220000000  0.4833350000000 1.0
C      1  0.4849670000000  0.5170520000000  0.3982960000000 1.0
C      1  0.5974760000000  0.4267020000000  0.5083460000000 1.0
C      1  0.5307320000000  0.4457690000000  0.4666450000000 1.0
C      1  0.4785600000000  0.3969700000000  0.5070140000000 1.0
C      1  0.4701040000000  0.4386840000000  0.5306850000000 1.0
C      1  0.5587100000000  0.4901330000000  0.5892170000000 1.0
C      1  0.4781600000000  0.4869980000000  0.6085800000000 1.0
C      1  0.4689580000000  0.4651680000000  0.5147680000000 1.0
C      1  0.5279890000000  0.4691110000000  0.4437550000000 1.0
C      1  0.4752330000000  0.4291700000000  0.3959860000000 1.0
C      1  0.5752310000000  0.4821860000000  0.4562290000000 1.0
C      1  0.5136320000000  0.5192860000000  0.6348860000000 1.0
C      1  0.5130440000000  0.5909770000000  0.4201100000000 1.0
C      1  0.4367000000000  0.4273470000000  0.4583980000000 1.0
C      1  0.4345420000000  0.4459500000000  0.5074490000000 1.0
C      1  0.4172740000000  0.4362500000000  0.4802410000000 1.0
C      1  0.4397710000000  0.4612460000000  0.4590460000000 1.0
C      1  0.5163630000000  0.4044980000000  0.5363710000000 1.0
C      1  0.4574810000000  0.4941530000000  0.4395910000000 1.0
C      1  0.4739720000000  0.5570330000000  0.4975390000000 1.0
C      1  0.5376810000000  0.5048790000000  0.4148920000000 1.0
C      1  0.6085730000000  0.5251490000000  0.5205720000000 1.0
C      1  0.4862560000000  0.5860350000000  0.5056900000000 1.0
C      1  0.5573650000000  0.4085610000000  0.5339820000000 1.0
C      1  0.4213700000000  0.5275330000000  0.5482720000000 1.0
C      1  0.5926240000000  0.4453390000000  0.4381710000000 1.0
C      1  0.4755350000000  0.6130400000000  0.4651850000000 1.0
C      1  0.4814310000000  0.4458280000000  0.4670010000000 1.0
C      1  0.4568480000000  0.5560680000000  0.4720700000000 1.0
C      1  0.4960320000000  0.4920100000000  0.5817590000000 1.0
C      1  0.4358740000000  0.5334400000000  0.4201260000000 1.0
C      1  0.5064470000000  0.4777000000000  0.5335150000000 1.0
C      1  0.5051650000000  0.5545600000000  0.4903110000000 1.0
C      1  0.4985280000000  0.5877480000000  0.5314830000000 1.0
C      1  0.4393100000000  0.5986150000000  0.4885190000000 1.0
C      1  0.5609970000000  0.6012070000000  0.5222190000000 1.0
C      1  0.5735840000000  0.5682620000000  0.4665730000000 1.0
C      1  0.5369250000000  0.4962290000000  0.4536690000000 1.0
C      1  0.3968560000000  0.5143590000000  0.5197500000000 1.0
C      1  0.4291830000000  0.4213130000000  0.5525380000000 1.0
C      1  0.4978390000000  0.4782870000000  0.5024760000000 1.0
C      1  0.5453130000000  0.4584340000000  0.5014630000000 1.0
C      1  0.5468840000000  0.4457260000000  0.4274970000000 1.0
C      1  0.5800340000000  0.5803880000000  0.5192270000000 1.0
C      1  0.4217310000000  0.4724190000000  0.4980310000000 1.0
C      1  0.4727750000000  0.5473180000000  0.5468240000000 1.0
C      1  0.5823630000000  0.4779020000000  0.5192930000000 1.0
C      1  0.5630500000000  0.4868690000000  0.4249220000000 1.0
C      1  0.5136570000000  0.5660740000000  0.4053650000000 1.0
C      1  0.4588190000000  0.4353650000000  0.4901850000000 1.0
C      1  0.4309650000000  0.5373450000000  0.4690030000000 1.0
C      1  0.4311690000000  0.4069350000000  0.5154700000000 1.0
C      1  0.5870220000000  0.5652620000000  0.4962220000000 1.0
C      1  0.3797900000000  0.4785010000000  0.5239810000000 1.0
C      1  0.5187470000000  0.5299190000000  0.4776640000000 1.0
C      1  0.4616610000000  0.5424290000000  0.5958460000000 1.0
C      1  0.5153980000000  0.3930990000000  0.4927690000000 1.0
C      1  0.3989090000000  0.5436050000000  0.4786960000000 1.0
C      1  0.4908310000000  0.4245830000000  0.4914110000000 1.0
C      1  0.5601230000000  0.5916990000000  0.4835150000000 1.0
C      1  0.5751900000000  0.5133670000000  0.5852890000000 1.0
C      1  0.5008250000000  0.4145780000000  0.5717700000000 1.0
C      1  0.5998070000000  0.4443860000000  0.5323230000000 1.0
C      1  0.5689990000000  0.4548500000000  0.5392100000000 1.0
C      1  0.5337160000000  0.5677190000000  0.4656440000000 1.0
C      1  0.5182240000000  0.4210730000000  0.4752970000000 1.0
C      1  0.5969100000000  0.5348740000000  0.4923720000000 1.0
C      1  0.5384330000000  0.5502600000000  0.5437610000000 1.0
C      1  0.4855870000000  0.4088920000000  0.4410680000000 1.0
C      1  0.5393850000000  0.4717490000000  0.4057470000000 1.0
C      1  0.4327010000000  0.4998240000000  0.5860150000000 1.0
C      1  0.5891170000000  0.5238850000000  0.5403710000000 1.0
C      1  0.4313740000000  0.4446370000000  0.5379080000000 1.0
C      1  0.5128680000000  0.4542890000000  0.5530370000000 1.0
C      1  0.5277240000000  0.4975560000000  0.5906020000000 1.0
C      1  0.6070700000000  0.4368240000000  0.4837250000000 1.0
C      1  0.5117000000000  0.3953410000000  0.4533770000000 1.0
C      1  0.4579580000000  0.5459360000000  0.5201030000000 1.0
C      1  0.4519550000000  0.5085930000000  0.4030210000000 1.0
C      1  0.5208390000000  0.4732090000000  0.4835320000000 1.0
C      1  0.4849280000000  0.4796340000000  0.4648060000000 1.0
C      1  0.4617340000000  0.6023510000000  0.5364470000000 1.0
C      1  0.5594570000000  0.5362890000000  0.5802410000000 1.0
C      1  0.5482210000000  0.4096360000000  0.5626000000000 1.0
C      1  0.6050140000000  0.5025480000000  0.4885700000000 1.0
C      1  0.5505650000000  0.5418940000000  0.4266820000000 1.0
C      1  0.4913390000000  0.5915550000000  0.4443690000000 1.0
C      1  0.5596090000000  0.4935570000000  0.5367220000000 1.0
C      1  0.5426780000000  0.3970000000000  0.4549840000000 1.0
C      1  0.3891250000000  0.4692010000000  0.4984720000000 1.0
C      1  0.5495200000000  0.4386480000000  0.5234480000000 1.0
C      1  0.5032550000000  0.4633970000000  0.6081300000000 1.0
C      1  0.4120870000000  0.4683640000000  0.4398020000000 1.0
C      1  0.4851940000000  0.5547210000000  0.4037170000000 1.0
C      1  0.4959530000000  0.4216230000000  0.4137680000000 1.0
C      1  0.4415210000000  0.5920380000000  0.5170630000000 1.0
C      1  0.5091360000000  0.4853800000000  0.3954210000000 1.0
C      1  0.5624710000000  0.4499450000000  0.4756340000000 1.0
C      1  0.4893870000000  0.5111910000000  0.5043090000000 1.0
C      1  0.5103240000000  0.5177790000000  0.6088070000000 1.0
C      1  0.5789530000000  0.4842010000000  0.4879590000000 1.0
C      1  0.5241870000000  0.4302120000000  0.5382200000000 1.0
C      1  0.4070390000000  0.5194050000000  0.4280570000000 1.0
C      1  0.5679070000000  0.4663680000000  0.5702100000000 1.0
C      1  0.4538220000000  0.5209750000000  0.4535800000000 1.0
C      1  0.4355410000000  0.5632450000000  0.4390280000000 1.0
C      1  0.5123400000000  0.6167750000000  0.5338250000000 1.0
C      1  0.5159340000000  0.5547220000000  0.5694950000000 1.0
C      1  0.3915750000000  0.4981260000000  0.5450260000000 1.0
C      1  0.4257910000000  0.4896900000000  0.4698960000000 1.0
C      1  0.5885440000000  0.5060050000000  0.4364400000000 1.0
C      1  0.4977660000000  0.5049490000000  0.4726820000000 1.0
C      1  0.5444600000000  0.5227170000000  0.4985250000000 1.0
C      1  0.4841750000000  0.4402600000000  0.5585130000000 1.0
C      1  0.5352870000000  0.5796220000000  0.4975640000000 1.0
C      1  0.5482580000000  0.4938070000000  0.4831980000000 1.0
C      1  0.4478200000000  0.4665180000000  0.5544960000000 1.0
C      1  0.4749040000000  0.4855020000000  0.3918940000000 1.0
C      1  0.4553350000000  0.5119870000000  0.6051810000000 1.0
C      1  0.5220530000000  0.4457890000000  0.5974570000000 1.0
C      1  0.5324560000000  0.6116160000000  0.5065890000000 1.0
C      1  0.5625720000000  0.4100360000000  0.4774190000000 1.0
C      1  0.5583070000000  0.5263670000000  0.5298800000000 1.0
C      1  0.4865270000000  0.3884240000000  0.4753500000000 1.0
C      1  0.5672180000000  0.5543010000000  0.5589460000000 1.0
C      1  0.5874600000000  0.4451130000000  0.4648550000000 1.0
C      1  0.4763290000000  0.5220750000000  0.5648300000000 1.0
C      1  0.4775180000000  0.4691850000000  0.4351430000000 1.0
C      1  0.4028450000000  0.5116920000000  0.4805020000000 1.0
C      1  0.3916880000000  0.5418520000000  0.5095450000000 1.0
C      1  0.3990380000000  0.4569600000000  0.4693770000000 1.0
C      1  0.4751010000000  0.4014140000000  0.5604350000000 1.0
C      1  0.4600050000000  0.4465010000000  0.5787560000000 1.0
C      1  0.4625890000000  0.4107400000000  0.4661130000000 1.0
C      1  0.5034690000000  0.4696420000000  0.4222960000000 1.0
C      1  0.5172630000000  0.5183820000000  0.3930410000000 1.0
C      1  0.5055980000000  0.5824940000000  0.4709960000000 1.0
C      1  0.6226910000000  0.4985870000000  0.5148880000000 1.0
C      1  0.3997430000000  0.4982270000000  0.4500660000000 1.0
C      1  0.4107460000000  0.5499230000000  0.5316780000000 1.0
C      1  0.4489060000000  0.4402300000000  0.4112720000000 1.0
C      1  0.5305360000000  0.6120880000000  0.4168970000000 1.0
C      1  0.5256650000000  0.5074790000000  0.5519780000000 1.0
C      1  0.4941450000000  0.5003550000000  0.5495470000000 1.0
C      1  0.5065300000000  0.6069000000000  0.4895360000000 1.0
C      1  0.5219860000000  0.5589270000000  0.5173130000000 1.0
C      1  0.4626620000000  0.4916230000000  0.5720950000000 1.0
C      1  0.5348240000000  0.4838920000000  0.5191180000000 1.0
C      1  0.4334500000000  0.5650910000000  0.5227180000000 1.0
C      1  0.5441380000000  0.6135650000000  0.5443220000000 1.0
C      1  0.4900530000000  0.3941110000000  0.5356620000000 1.0
C      1  0.4522120000000  0.4163300000000  0.5687440000000 1.0
END
