TITL C-2778436-5916-1026 -0.00253540580125807 125000 -893.562396956865 0 0 152 (C1) n - 1
REM
REM in /home/nfs/bkarasulu/CARBON/AIRSS/Generating-Clusters/REBO/Only-C1/SD-CG/HFTN-CG
REM
REM
REM
REM
REM
REM ./C.cell (11c1c37f851c82e70ff6c80c92926a4b)
REM
REM compiler GCC version 9.2.1 20190827 (Red Hat 9.2.1-1)
REM options -cpp -mtune=generic -march=x86-64 -g -O0 -fpre-include=/usr/include/finclude/math-vector-fortran.h
REM seed 1384858047 -1256056251 -630333166 -87680655 281541318 291324674 1677216243 -2066333588 127021895 292919396 -407073125 -1264329581 -163953109 -727762483 -648530042 1439900522 1227795409 -1270344511 581703966 -1470339368 1629615913 1164019860 976831548 -1260580981 -119651028 -1909601036 240560503 -120044819 -635164025 510138126 2056568073 -805843638 -423667650
REM
CELL 1.54180   50.00000   50.00000   50.00000   90.00000   90.00000   90.00000
LATT -1
SFAC C  
C      1  0.4859020000000  0.5086400000000  0.5343490000000 1.0
C      1  0.5651380000000  0.4568130000000  0.4438530000000 1.0
C      1  0.5507360000000  0.4314740000000  0.4363330000000 1.0
C      1  0.4950920000000  0.4466160000000  0.4586920000000 1.0
C      1  0.4370240000000  0.4552810000000  0.4399480000000 1.0
C      1  0.5243550000000  0.5022900000000  0.4678830000000 1.0
C      1  0.5454120000000  0.5254570000000  0.5889940000000 1.0
C      1  0.4895130000000  0.4893990000000  0.5576690000000 1.0
C      1  0.4618960000000  0.5074050000000  0.4968990000000 1.0
C      1  0.4822250000000  0.4105710000000  0.4697900000000 1.0
C      1  0.4447750000000  0.5173060000000  0.5469450000000 1.0
C      1  0.5553220000000  0.4835050000000  0.5891520000000 1.0
C      1  0.5189030000000  0.4889810000000  0.4992190000000 1.0
C      1  0.5596890000000  0.5661620000000  0.5103680000000 1.0
C      1  0.4116510000000  0.5185400000000  0.4364330000000 1.0
C      1  0.5793300000000  0.4607130000000  0.5470660000000 1.0
C      1  0.4709310000000  0.6024110000000  0.4990030000000 1.0
C      1  0.4768490000000  0.5223650000000  0.4761560000000 1.0
C      1  0.4273690000000  0.5473960000000  0.5681540000000 1.0
C      1  0.5373980000000  0.4173800000000  0.4571910000000 1.0
C      1  0.5558700000000  0.5211280000000  0.4526120000000 1.0
C      1  0.5565710000000  0.4980600000000  0.4741330000000 1.0
C      1  0.5083670000000  0.4191240000000  0.4192870000000 1.0
C      1  0.5233980000000  0.4466310000000  0.5767840000000 1.0
C      1  0.4440720000000  0.5364850000000  0.5864990000000 1.0
C      1  0.4673720000000  0.5185040000000  0.4460620000000 1.0
C      1  0.4269510000000  0.5596620000000  0.5421360000000 1.0
C      1  0.4346960000000  0.4217170000000  0.5249930000000 1.0
C      1  0.5216880000000  0.5129910000000  0.5586660000000 1.0
C      1  0.4552600000000  0.4908220000000  0.4418550000000 1.0
C      1  0.4523270000000  0.4665830000000  0.5256030000000 1.0
C      1  0.4902390000000  0.5818890000000  0.4405040000000 1.0
C      1  0.5521030000000  0.4573590000000  0.5674110000000 1.0
C      1  0.4442230000000  0.4717600000000  0.4927820000000 1.0
C      1  0.5390630000000  0.5479090000000  0.4956300000000 1.0
C      1  0.4823490000000  0.4292640000000  0.5513900000000 1.0
C      1  0.4187330000000  0.5272450000000  0.4688540000000 1.0
C      1  0.5761680000000  0.5828360000000  0.4903830000000 1.0
C      1  0.4448670000000  0.5269790000000  0.5166800000000 1.0
C      1  0.5166640000000  0.5163510000000  0.5981610000000 1.0
C      1  0.5253810000000  0.3982720000000  0.4986130000000 1.0
C      1  0.5353380000000  0.4832400000000  0.3990210000000 1.0
C      1  0.4965470000000  0.4751420000000  0.4773230000000 1.0
C      1  0.5113330000000  0.5485480000000  0.5116490000000 1.0
C      1  0.5258710000000  0.4863760000000  0.5739940000000 1.0
C      1  0.3938800000000  0.5051040000000  0.4755890000000 1.0
C      1  0.5475450000000  0.5946990000000  0.4851590000000 1.0
C      1  0.4782090000000  0.5866780000000  0.5244170000000 1.0
C      1  0.4726110000000  0.5552330000000  0.5184320000000 1.0
C      1  0.5635240000000  0.4309420000000  0.4962940000000 1.0
C      1  0.4911860000000  0.5046450000000  0.5842740000000 1.0
C      1  0.5351310000000  0.4345740000000  0.5237210000000 1.0
C      1  0.5313240000000  0.4580610000000  0.4866580000000 1.0
C      1  0.4816300000000  0.5301490000000  0.4201220000000 1.0
C      1  0.5131310000000  0.4799240000000  0.4471510000000 1.0
C      1  0.4674480000000  0.5778530000000  0.5640620000000 1.0
C      1  0.4126020000000  0.5519660000000  0.4916390000000 1.0
C      1  0.5877230000000  0.4562380000000  0.4670500000000 1.0
C      1  0.5474210000000  0.4847110000000  0.5471880000000 1.0
C      1  0.5742550000000  0.5382060000000  0.5502430000000 1.0
C      1  0.6007120000000  0.5061600000000  0.4740520000000 1.0
C      1  0.4572590000000  0.4851320000000  0.5948640000000 1.0
C      1  0.5929310000000  0.4614000000000  0.4903800000000 1.0
C      1  0.4679060000000  0.4599130000000  0.5553950000000 1.0
C      1  0.5916950000000  0.5253630000000  0.5286950000000 1.0
C      1  0.5359540000000  0.5895740000000  0.4587040000000 1.0
C      1  0.4622950000000  0.4353890000000  0.5248720000000 1.0
C      1  0.4684050000000  0.5241970000000  0.5917430000000 1.0
C      1  0.6116150000000  0.4953250000000  0.5001260000000 1.0
C      1  0.5100960000000  0.5980960000000  0.4500170000000 1.0
C      1  0.5461080000000  0.5666590000000  0.4440350000000 1.0
C      1  0.5308140000000  0.5511080000000  0.4249170000000 1.0
C      1  0.5142710000000  0.3939200000000  0.5270490000000 1.0
C      1  0.5094130000000  0.5148310000000  0.5164440000000 1.0
C      1  0.4433480000000  0.5578460000000  0.5049800000000 1.0
C      1  0.4311430000000  0.5653210000000  0.4682720000000 1.0
C      1  0.5648280000000  0.5625980000000  0.5399210000000 1.0
C      1  0.4110980000000  0.4972370000000  0.5107710000000 1.0
C      1  0.4783310000000  0.4822680000000  0.4091810000000 1.0
C      1  0.5675040000000  0.5089010000000  0.4260830000000 1.0
C      1  0.5896890000000  0.5302390000000  0.4950580000000 1.0
C      1  0.4152880000000  0.4334360000000  0.5078390000000 1.0
C      1  0.4081850000000  0.4722630000000  0.5415860000000 1.0
C      1  0.4881970000000  0.5469230000000  0.4907910000000 1.0
C      1  0.5423400000000  0.5240210000000  0.5164480000000 1.0
C      1  0.4100640000000  0.5456550000000  0.5229430000000 1.0
C      1  0.5306110000000  0.4654110000000  0.4256470000000 1.0
C      1  0.4671090000000  0.4581450000000  0.4756290000000 1.0
C      1  0.4795930000000  0.5535350000000  0.5672490000000 1.0
C      1  0.4944790000000  0.4113710000000  0.4972670000000 1.0
C      1  0.4561570000000  0.5811990000000  0.4837650000000 1.0
C      1  0.4754730000000  0.4859370000000  0.5133110000000 1.0
C      1  0.5815490000000  0.5552670000000  0.4787950000000 1.0
C      1  0.5483670000000  0.4845450000000  0.5145510000000 1.0
C      1  0.5648820000000  0.5501950000000  0.4571960000000 1.0
C      1  0.5772370000000  0.4990330000000  0.5379200000000 1.0
C      1  0.5930050000000  0.4753590000000  0.5192350000000 1.0
C      1  0.4758460000000  0.4653000000000  0.5861300000000 1.0
C      1  0.5673600000000  0.5192560000000  0.5711630000000 1.0
C      1  0.4291390000000  0.5346410000000  0.4151710000000 1.0
C      1  0.5044200000000  0.4670530000000  0.5874520000000 1.0
C      1  0.5222140000000  0.5083440000000  0.4013870000000 1.0
C      1  0.5613700000000  0.4791320000000  0.4202760000000 1.0
C      1  0.5929130000000  0.5069790000000  0.4483230000000 1.0
C      1  0.4557280000000  0.4602460000000  0.4128210000000 1.0
C      1  0.4936810000000  0.5067270000000  0.4051930000000 1.0
C      1  0.4966000000000  0.5433610000000  0.5921970000000 1.0
C      1  0.4762600000000  0.6272080000000  0.4927720000000 1.0
C      1  0.5448930000000  0.4126380000000  0.4838730000000 1.0
C      1  0.4896950000000  0.4552230000000  0.5184200000000 1.0
C      1  0.5406150000000  0.5266450000000  0.4149970000000 1.0
C      1  0.4305140000000  0.3990710000000  0.5403410000000 1.0
C      1  0.4489890000000  0.5788390000000  0.5403560000000 1.0
C      1  0.4057520000000  0.4636170000000  0.5097290000000 1.0
C      1  0.4191300000000  0.4277040000000  0.4808380000000 1.0
C      1  0.5657460000000  0.5088250000000  0.5011490000000 1.0
C      1  0.4322050000000  0.5028310000000  0.4885170000000 1.0
C      1  0.4601450000000  0.4281510000000  0.4617790000000 1.0
C      1  0.4047830000000  0.4761060000000  0.4778010000000 1.0
C      1  0.4429180000000  0.4982980000000  0.5751070000000 1.0
C      1  0.4299200000000  0.4947290000000  0.4194440000000 1.0
C      1  0.5591230000000  0.4545120000000  0.5204090000000 1.0
C      1  0.4036280000000  0.5181030000000  0.5263990000000 1.0
C      1  0.5496720000000  0.4681160000000  0.4691780000000 1.0
C      1  0.5380540000000  0.5834160000000  0.5398580000000 1.0
C      1  0.5293310000000  0.5578450000000  0.5570930000000 1.0
C      1  0.5280700000000  0.4145340000000  0.5429240000000 1.0
C      1  0.5113580000000  0.4262140000000  0.5626780000000 1.0
C      1  0.6203710000000  0.5167570000000  0.5168500000000 1.0
C      1  0.4701150000000  0.5644640000000  0.4599120000000 1.0
C      1  0.4476520000000  0.5403720000000  0.4555980000000 1.0
C      1  0.5804170000000  0.4875440000000  0.5689830000000 1.0
C      1  0.4280910000000  0.4541880000000  0.4680620000000 1.0
C      1  0.4231840000000  0.4914520000000  0.5521250000000 1.0
C      1  0.4999710000000  0.5525850000000  0.4286820000000 1.0
C      1  0.4564640000000  0.4316290000000  0.4312160000000 1.0
C      1  0.5086390000000  0.5765740000000  0.5242080000000 1.0
C      1  0.5320770000000  0.5959690000000  0.5089960000000 1.0
C      1  0.4528810000000  0.5385780000000  0.4098690000000 1.0
C      1  0.5110030000000  0.4391810000000  0.5029380000000 1.0
C      1  0.4265530000000  0.3776260000000  0.5548760000000 1.0
C      1  0.5314360000000  0.5332270000000  0.5441410000000 1.0
C      1  0.5306190000000  0.4351750000000  0.4145450000000 1.0
C      1  0.4225290000000  0.4902170000000  0.4522620000000 1.0
C      1  0.4841380000000  0.4041470000000  0.5284760000000 1.0
C      1  0.5290720000000  0.5359940000000  0.4679260000000 1.0
C      1  0.5047380000000  0.4665110000000  0.5426860000000 1.0
C      1  0.5062870000000  0.4179490000000  0.4507000000000 1.0
C      1  0.5273100000000  0.5518420000000  0.5847730000000 1.0
C      1  0.4811210000000  0.4721380000000  0.4408770000000 1.0
C      1  0.4731310000000  0.5357690000000  0.5431770000000 1.0
C      1  0.5015970000000  0.5501100000000  0.4614920000000 1.0
END
