TITL C-2778434-4341-42 5.173371844616e-05 125000 -1128.1654960263 0 0 194 (C1) n - 1
REM
REM in /home/nfs/bkarasulu/CARBON/AIRSS/Generating-Clusters/REBO/Only-C1/SD-CG/HFTN-CG
REM
REM
REM
REM
REM
REM ./C.cell (11c1c37f851c82e70ff6c80c92926a4b)
REM
REM compiler GCC version 9.2.1 20190827 (Red Hat 9.2.1-1)
REM options -cpp -mtune=generic -march=x86-64 -g -O0 -fpre-include=/usr/include/finclude/math-vector-fortran.h
REM seed -274127846 -927423106 238295404 -1864663046 -511472148 1354685067 1712675981 -1874166322 447372013 -2086625085 1305261533 -1586037861 1216694109 -1368813061 -1639730676 809910824 -1187475413 524958475 -614303794 -166661136 -1866498933 -90176260 817188295 886901710 967399005 2096281397 -628094110 -1429544362 886752802 -671211881 291505724 -1245114012 323599669
REM
CELL 1.54180   50.00000   50.00000   50.00000   90.00000   90.00000   90.00000
LATT -1
SFAC C  
C      1  0.5647050000000  0.4431840000000  0.4594550000000 1.0
C      1  0.4135720000000  0.4256870000000  0.4733570000000 1.0
C      1  0.4804970000000  0.4196780000000  0.4782810000000 1.0
C      1  0.4132650000000  0.5928810000000  0.4315410000000 1.0
C      1  0.5818020000000  0.5219480000000  0.4606740000000 1.0
C      1  0.3929250000000  0.4995610000000  0.4377070000000 1.0
C      1  0.5433900000000  0.4931340000000  0.4968480000000 1.0
C      1  0.5211930000000  0.5694020000000  0.6033300000000 1.0
C      1  0.5004700000000  0.5125960000000  0.6115920000000 1.0
C      1  0.4296300000000  0.5019660000000  0.5722990000000 1.0
C      1  0.5335310000000  0.4343400000000  0.4841230000000 1.0
C      1  0.5248820000000  0.4934890000000  0.5709900000000 1.0
C      1  0.4103910000000  0.4439320000000  0.5242410000000 1.0
C      1  0.6067520000000  0.5587860000000  0.4731680000000 1.0
C      1  0.4775820000000  0.5932100000000  0.4384890000000 1.0
C      1  0.4532430000000  0.5300460000000  0.5877790000000 1.0
C      1  0.5224740000000  0.5097920000000  0.5311540000000 1.0
C      1  0.4928160000000  0.4377990000000  0.5955040000000 1.0
C      1  0.4849370000000  0.5112070000000  0.5181220000000 1.0
C      1  0.5424620000000  0.3960840000000  0.4912620000000 1.0
C      1  0.4793870000000  0.5167540000000  0.5782210000000 1.0
C      1  0.4741110000000  0.6041170000000  0.4997400000000 1.0
C      1  0.4937080000000  0.5209940000000  0.4267630000000 1.0
C      1  0.4591660000000  0.5835820000000  0.5430220000000 1.0
C      1  0.5279630000000  0.5239590000000  0.6159330000000 1.0
C      1  0.5438750000000  0.5747590000000  0.4002860000000 1.0
C      1  0.4868020000000  0.3924030000000  0.5065280000000 1.0
C      1  0.5023550000000  0.4609280000000  0.5492200000000 1.0
C      1  0.5251590000000  0.3991930000000  0.5518810000000 1.0
C      1  0.4882130000000  0.4268160000000  0.5358190000000 1.0
C      1  0.4625970000000  0.4668180000000  0.4071820000000 1.0
C      1  0.4966150000000  0.4649810000000  0.4094540000000 1.0
C      1  0.5359380000000  0.4861300000000  0.4404100000000 1.0
C      1  0.5529370000000  0.4580030000000  0.4316280000000 1.0
C      1  0.5201190000000  0.4382580000000  0.5575090000000 1.0
C      1  0.4895640000000  0.5812330000000  0.4168110000000 1.0
C      1  0.6017770000000  0.5166830000000  0.5108560000000 1.0
C      1  0.4323050000000  0.4624270000000  0.5674640000000 1.0
C      1  0.5829080000000  0.4849380000000  0.5813760000000 1.0
C      1  0.5903780000000  0.4515270000000  0.5202620000000 1.0
C      1  0.5187590000000  0.5733480000000  0.5343170000000 1.0
C      1  0.4805810000000  0.4448840000000  0.5092570000000 1.0
C      1  0.4973170000000  0.5515950000000  0.4019210000000 1.0
C      1  0.5438870000000  0.4777290000000  0.5478010000000 1.0
C      1  0.4686560000000  0.3886000000000  0.4562350000000 1.0
C      1  0.5046710000000  0.5957400000000  0.5645700000000 1.0
C      1  0.5032550000000  0.4652390000000  0.6092520000000 1.0
C      1  0.5084080000000  0.5005470000000  0.3956980000000 1.0
C      1  0.6082810000000  0.4990920000000  0.4318940000000 1.0
C      1  0.5025860000000  0.5567920000000  0.4649840000000 1.0
C      1  0.4075260000000  0.4508310000000  0.4919730000000 1.0
C      1  0.4900730000000  0.4196380000000  0.4029300000000 1.0
C      1  0.4134480000000  0.4004890000000  0.4855260000000 1.0
C      1  0.4724810000000  0.4747140000000  0.5384910000000 1.0
C      1  0.5293730000000  0.4318190000000  0.5287120000000 1.0
C      1  0.5028380000000  0.5368860000000  0.5876320000000 1.0
C      1  0.5577210000000  0.4429770000000  0.5157710000000 1.0
C      1  0.4008960000000  0.5239840000000  0.4553410000000 1.0
C      1  0.5027220000000  0.4870570000000  0.5303960000000 1.0
C      1  0.5052380000000  0.4525990000000  0.4788530000000 1.0
C      1  0.5948690000000  0.4852640000000  0.5221640000000 1.0
C      1  0.4557630000000  0.4937540000000  0.5553370000000 1.0
C      1  0.5116700000000  0.4532940000000  0.5112750000000 1.0
C      1  0.3913260000000  0.4573500000000  0.4648850000000 1.0
C      1  0.5081550000000  0.4158550000000  0.4942750000000 1.0
C      1  0.4053050000000  0.4943250000000  0.4707720000000 1.0
C      1  0.5616360000000  0.4832800000000  0.4104880000000 1.0
C      1  0.4375380000000  0.5379230000000  0.3990970000000 1.0
C      1  0.5105200000000  0.4926380000000  0.4580340000000 1.0
C      1  0.5006870000000  0.4673660000000  0.4418950000000 1.0
C      1  0.5796250000000  0.4772090000000  0.4923770000000 1.0
C      1  0.4395290000000  0.5659880000000  0.5584480000000 1.0
C      1  0.4267870000000  0.5758540000000  0.5142360000000 1.0
C      1  0.4746080000000  0.6070030000000  0.5281060000000 1.0
C      1  0.5698930000000  0.5689370000000  0.5035630000000 1.0
C      1  0.4729450000000  0.4518090000000  0.4774650000000 1.0
C      1  0.5392920000000  0.5475180000000  0.6048590000000 1.0
C      1  0.4550190000000  0.4526600000000  0.5844560000000 1.0
C      1  0.4642600000000  0.4338700000000  0.4163810000000 1.0
C      1  0.5866310000000  0.5322460000000  0.5594440000000 1.0
C      1  0.5468650000000  0.5367800000000  0.5007300000000 1.0
C      1  0.4870850000000  0.5637730000000  0.5010650000000 1.0
C      1  0.4340370000000  0.4316080000000  0.4553520000000 1.0
C      1  0.4788510000000  0.3978100000000  0.4248240000000 1.0
C      1  0.4278270000000  0.5361180000000  0.5699540000000 1.0
C      1  0.5562770000000  0.5980340000000  0.5038190000000 1.0
C      1  0.4542260000000  0.4118580000000  0.5494730000000 1.0
C      1  0.6109190000000  0.5467560000000  0.4978220000000 1.0
C      1  0.5022540000000  0.4152480000000  0.5713850000000 1.0
C      1  0.4691610000000  0.4227050000000  0.5762480000000 1.0
C      1  0.5261840000000  0.6013160000000  0.5190810000000 1.0
C      1  0.5628490000000  0.4203800000000  0.4921290000000 1.0
C      1  0.5508680000000  0.4634160000000  0.4820840000000 1.0
C      1  0.5319600000000  0.6143760000000  0.4880660000000 1.0
C      1  0.5803710000000  0.5071780000000  0.4204700000000 1.0
C      1  0.5582310000000  0.5747740000000  0.5744290000000 1.0
C      1  0.5297540000000  0.4896270000000  0.4071580000000 1.0
C      1  0.5533750000000  0.5593590000000  0.4564190000000 1.0
C      1  0.4347600000000  0.3971800000000  0.5023840000000 1.0
C      1  0.4489210000000  0.5519940000000  0.5030600000000 1.0
C      1  0.4294300000000  0.5700530000000  0.4430400000000 1.0
C      1  0.5299800000000  0.5751070000000  0.5647860000000 1.0
C      1  0.5238160000000  0.4002800000000  0.5194610000000 1.0
C      1  0.4905680000000  0.6126890000000  0.4529140000000 1.0
C      1  0.4699930000000  0.4592730000000  0.4383510000000 1.0
C      1  0.5143250000000  0.4402310000000  0.4496010000000 1.0
C      1  0.4829760000000  0.5213600000000  0.3953280000000 1.0
C      1  0.6008820000000  0.5428150000000  0.5304260000000 1.0
C      1  0.4926970000000  0.5324070000000  0.5440320000000 1.0
C      1  0.4449790000000  0.4914820000000  0.4139200000000 1.0
C      1  0.4574020000000  0.5770620000000  0.4553810000000 1.0
C      1  0.4088460000000  0.4938580000000  0.5461300000000 1.0
C      1  0.4856320000000  0.5090170000000  0.4845370000000 1.0
C      1  0.6079280000000  0.5082010000000  0.4563590000000 1.0
C      1  0.4339720000000  0.5244760000000  0.4591480000000 1.0
C      1  0.4346020000000  0.4619550000000  0.5379570000000 1.0
C      1  0.4993040000000  0.6090560000000  0.4826350000000 1.0
C      1  0.3951200000000  0.4879360000000  0.4998990000000 1.0
C      1  0.5736870000000  0.5081440000000  0.4972110000000 1.0
C      1  0.4935560000000  0.4936370000000  0.5697110000000 1.0
C      1  0.4604640000000  0.5780570000000  0.4871980000000 1.0
C      1  0.4150270000000  0.4837200000000  0.4180130000000 1.0
C      1  0.5381070000000  0.4696730000000  0.5193110000000 1.0
C      1  0.5146320000000  0.5423490000000  0.5226470000000 1.0
C      1  0.5761670000000  0.5615290000000  0.5320130000000 1.0
C      1  0.4841350000000  0.4632000000000  0.5747350000000 1.0
C      1  0.4097170000000  0.5590390000000  0.4909900000000 1.0
C      1  0.5763440000000  0.5832070000000  0.5547410000000 1.0
C      1  0.5265370000000  0.5760400000000  0.4504280000000 1.0
C      1  0.4981530000000  0.5780410000000  0.5886180000000 1.0
C      1  0.4570600000000  0.5277380000000  0.4825520000000 1.0
C      1  0.5309570000000  0.3960790000000  0.4641010000000 1.0
C      1  0.5416550000000  0.5656540000000  0.4858680000000 1.0
C      1  0.4611850000000  0.3932740000000  0.4877640000000 1.0
C      1  0.4147360000000  0.5517710000000  0.4629840000000 1.0
C      1  0.5350590000000  0.4355380000000  0.4158760000000 1.0
C      1  0.4803170000000  0.5049000000000  0.4510230000000 1.0
C      1  0.5211610000000  0.5368730000000  0.4217800000000 1.0
C      1  0.4753770000000  0.5557840000000  0.5856340000000 1.0
C      1  0.4616150000000  0.4450490000000  0.5442680000000 1.0
C      1  0.5504370000000  0.5460390000000  0.5477760000000 1.0
C      1  0.5104100000000  0.4398440000000  0.4025020000000 1.0
C      1  0.4735180000000  0.5498190000000  0.4621370000000 1.0
C      1  0.5159620000000  0.5794370000000  0.3979890000000 1.0
C      1  0.5508920000000  0.5512850000000  0.4135470000000 1.0
C      1  0.4354780000000  0.4855580000000  0.4679720000000 1.0
C      1  0.4486290000000  0.4417480000000  0.5068340000000 1.0
C      1  0.5652060000000  0.5445770000000  0.5829800000000 1.0
C      1  0.5577780000000  0.4910960000000  0.5932130000000 1.0
C      1  0.5737030000000  0.5401420000000  0.4850350000000 1.0
C      1  0.5196330000000  0.5074360000000  0.4848840000000 1.0
C      1  0.4670390000000  0.5460700000000  0.5540980000000 1.0
C      1  0.5497610000000  0.5238110000000  0.5260390000000 1.0
C      1  0.5134830000000  0.5791470000000  0.4879320000000 1.0
C      1  0.5752320000000  0.4117690000000  0.5538500000000 1.0
C      1  0.5748660000000  0.5396650000000  0.4292020000000 1.0
C      1  0.4459820000000  0.5373850000000  0.5314580000000 1.0
C      1  0.4811070000000  0.3972310000000  0.5344950000000 1.0
C      1  0.5397150000000  0.5332380000000  0.4468250000000 1.0
C      1  0.5291830000000  0.6031480000000  0.4569700000000 1.0
C      1  0.4556080000000  0.4867260000000  0.5890360000000 1.0
C      1  0.4549140000000  0.5086980000000  0.5268850000000 1.0
C      1  0.5196260000000  0.5438580000000  0.5621480000000 1.0
C      1  0.5515750000000  0.3990500000000  0.5600470000000 1.0
C      1  0.5868360000000  0.5605860000000  0.4533290000000 1.0
C      1  0.5640880000000  0.4563610000000  0.5610620000000 1.0
C      1  0.3998380000000  0.4766600000000  0.5252070000000 1.0
C      1  0.4515000000000  0.4128460000000  0.4390850000000 1.0
C      1  0.4910640000000  0.4201650000000  0.4473280000000 1.0
C      1  0.5852710000000  0.4440850000000  0.4870060000000 1.0
C      1  0.5416180000000  0.4229300000000  0.4468650000000 1.0
C      1  0.5025750000000  0.3920500000000  0.4600390000000 1.0
C      1  0.4510530000000  0.5012600000000  0.4441860000000 1.0
C      1  0.5405830000000  0.4486240000000  0.5768890000000 1.0
C      1  0.4109210000000  0.5244770000000  0.5454070000000 1.0
C      1  0.5566180000000  0.5080080000000  0.4451450000000 1.0
C      1  0.4142340000000  0.5446560000000  0.5214890000000 1.0
C      1  0.4866440000000  0.5693230000000  0.5310480000000 1.0
C      1  0.4331480000000  0.4697500000000  0.5045230000000 1.0
C      1  0.5885450000000  0.4990710000000  0.5520060000000 1.0
C      1  0.4527800000000  0.5151910000000  0.3950540000000 1.0
C      1  0.5012290000000  0.6087590000000  0.5397110000000 1.0
C      1  0.4449500000000  0.5516390000000  0.4224850000000 1.0
C      1  0.5570740000000  0.5057050000000  0.5507320000000 1.0
C      1  0.4485460000000  0.4583800000000  0.4609110000000 1.0
C      1  0.4687480000000  0.5408450000000  0.4335530000000 1.0
C      1  0.5101330000000  0.5395210000000  0.4913610000000 1.0
C      1  0.5310290000000  0.4715240000000  0.5962580000000 1.0
C      1  0.5469060000000  0.5183680000000  0.5786740000000 1.0
C      1  0.4443660000000  0.4988630000000  0.4980080000000 1.0
C      1  0.4840170000000  0.4889950000000  0.6080860000000 1.0
C      1  0.3965100000000  0.4675180000000  0.4407700000000 1.0
C      1  0.5810050000000  0.4388500000000  0.5479090000000 1.0
C      1  0.4343870000000  0.4194370000000  0.5253080000000 1.0
END
