TITL C-2778426-5645-186 0.102021456440415 125000 -465.286444722752 0 0 81 (C1) n - 1
REM
REM in /home/nfs/bkarasulu/CARBON/AIRSS/Generating-Clusters/REBO/Only-C1/SD-CG/HFTN-CG
REM
REM
REM
REM
REM
REM ./C.cell (11c1c37f851c82e70ff6c80c92926a4b)
REM
REM compiler GCC version 9.2.1 20190827 (Red Hat 9.2.1-1)
REM options -cpp -mtune=generic -march=x86-64 -g -O0 -fpre-include=/usr/include/finclude/math-vector-fortran.h
REM seed 1393986144 -1843277798 -465650471 -1106208562 2141018019 659957378 791693938 -964456086 -677282026 72011864 -1634544714 1051394086 1077439172 1935501937 1018612026 1072877371 235863817 -1766205655 2100049903 -745273196 2120359278 979162547 1736058307 959258630 -2128915549 1227357778 -666628320 246453304 -1176583333 -2024664173 -1039701978 -1401595034 -1071060592
REM
CELL 1.54180   50.00000   50.00000   50.00000   90.00000   90.00000   90.00000
LATT -1
SFAC C  
C      1  0.4459140000000  0.4274930000000  0.4850870000000 1.0
C      1  0.5352180000000  0.4315980000000  0.5418960000000 1.0
C      1  0.4717250000000  0.5960710000000  0.5342690000000 1.0
C      1  0.4921560000000  0.5131640000000  0.4606770000000 1.0
C      1  0.5367370000000  0.5629180000000  0.5710540000000 1.0
C      1  0.4594480000000  0.4496500000000  0.4763770000000 1.0
C      1  0.5092770000000  0.4530810000000  0.4399340000000 1.0
C      1  0.4614900000000  0.4050400000000  0.4879350000000 1.0
C      1  0.4441630000000  0.5389910000000  0.4887600000000 1.0
C      1  0.5743410000000  0.4847080000000  0.5187650000000 1.0
C      1  0.4905940000000  0.4117430000000  0.4835390000000 1.0
C      1  0.4551670000000  0.5388810000000  0.4596340000000 1.0
C      1  0.4806980000000  0.5503970000000  0.5022090000000 1.0
C      1  0.4752010000000  0.5104170000000  0.5066700000000 1.0
C      1  0.5488460000000  0.4861480000000  0.4489270000000 1.0
C      1  0.5037980000000  0.4646330000000  0.4777160000000 1.0
C      1  0.5125920000000  0.5718650000000  0.5131690000000 1.0
C      1  0.4773630000000  0.4453190000000  0.4489870000000 1.0
C      1  0.4775700000000  0.5036930000000  0.4246890000000 1.0
C      1  0.4867600000000  0.4375720000000  0.5506560000000 1.0
C      1  0.4977340000000  0.5143240000000  0.5732710000000 1.0
C      1  0.4992430000000  0.5383530000000  0.4823860000000 1.0
C      1  0.5478110000000  0.4557790000000  0.5545910000000 1.0
C      1  0.4996120000000  0.4387660000000  0.4997580000000 1.0
C      1  0.5290890000000  0.4984640000000  0.5317330000000 1.0
C      1  0.4812030000000  0.4848270000000  0.5390930000000 1.0
C      1  0.4729850000000  0.5669570000000  0.4558230000000 1.0
C      1  0.4834300000000  0.5819770000000  0.5557480000000 1.0
C      1  0.5280300000000  0.4624320000000  0.5776310000000 1.0
C      1  0.4894290000000  0.4677670000000  0.5145490000000 1.0
C      1  0.4979080000000  0.5579390000000  0.5374580000000 1.0
C      1  0.4601550000000  0.4464980000000  0.5555660000000 1.0
C      1  0.5291100000000  0.4850520000000  0.4879050000000 1.0
C      1  0.4785240000000  0.5348660000000  0.5290920000000 1.0
C      1  0.5221460000000  0.4091380000000  0.4755050000000 1.0
C      1  0.5351450000000  0.5682630000000  0.4898520000000 1.0
C      1  0.5345360000000  0.4559240000000  0.4705170000000 1.0
C      1  0.4374660000000  0.5232130000000  0.5100430000000 1.0
C      1  0.5536090000000  0.5582480000000  0.5506710000000 1.0
C      1  0.4386040000000  0.4887840000000  0.4531230000000 1.0
C      1  0.4812110000000  0.5837500000000  0.5071110000000 1.0
C      1  0.5549510000000  0.5159360000000  0.4581140000000 1.0
C      1  0.4734150000000  0.5274890000000  0.5760460000000 1.0
C      1  0.5374230000000  0.5635330000000  0.4575420000000 1.0
C      1  0.4238630000000  0.4994270000000  0.4789480000000 1.0
C      1  0.4155430000000  0.4903300000000  0.5049690000000 1.0
C      1  0.5026480000000  0.5001710000000  0.5491960000000 1.0
C      1  0.4365160000000  0.5186010000000  0.5409790000000 1.0
C      1  0.5063190000000  0.5647110000000  0.4624110000000 1.0
C      1  0.5381810000000  0.4287680000000  0.4874860000000 1.0
C      1  0.5773790000000  0.5137820000000  0.5106750000000 1.0
C      1  0.5066580000000  0.5002300000000  0.4257580000000 1.0
C      1  0.5409370000000  0.5369840000000  0.4408110000000 1.0
C      1  0.5451570000000  0.4498720000000  0.5082440000000 1.0
C      1  0.4577440000000  0.5029340000000  0.4781730000000 1.0
C      1  0.4593430000000  0.5316040000000  0.5518610000000 1.0
C      1  0.5561980000000  0.5015070000000  0.4870610000000 1.0
C      1  0.5011200000000  0.4225980000000  0.4529030000000 1.0
C      1  0.5094090000000  0.5669390000000  0.5673660000000 1.0
C      1  0.4867530000000  0.4825820000000  0.4590630000000 1.0
C      1  0.5650580000000  0.4678470000000  0.4676190000000 1.0
C      1  0.4922040000000  0.5418800000000  0.4432470000000 1.0
C      1  0.5220760000000  0.4660280000000  0.5240030000000 1.0
C      1  0.5228590000000  0.4780650000000  0.4365680000000 1.0
C      1  0.5457630000000  0.5683910000000  0.5201770000000 1.0
C      1  0.4595000000000  0.5692210000000  0.4852350000000 1.0
C      1  0.4479260000000  0.4908940000000  0.5145780000000 1.0
C      1  0.4671040000000  0.4736930000000  0.4931540000000 1.0
C      1  0.4612150000000  0.4733330000000  0.4445700000000 1.0
C      1  0.5081750000000  0.4597600000000  0.5544650000000 1.0
C      1  0.4563830000000  0.4746130000000  0.5510670000000 1.0
C      1  0.5085550000000  0.4288400000000  0.5296790000000 1.0
C      1  0.4336640000000  0.4920550000000  0.5518050000000 1.0
C      1  0.5680380000000  0.4651850000000  0.4983000000000 1.0
C      1  0.5553750000000  0.4803490000000  0.5406210000000 1.0
C      1  0.5048740000000  0.5056270000000  0.4907080000000 1.0
C      1  0.5164990000000  0.5269680000000  0.4301540000000 1.0
C      1  0.5616050000000  0.5388720000000  0.5246300000000 1.0
C      1  0.5400120000000  0.5369460000000  0.4807370000000 1.0
C      1  0.5381270000000  0.5191540000000  0.5099510000000 1.0
C      1  0.4593910000000  0.5195790000000  0.4387550000000 1.0
END
