TITL C-2778432-5617-684 -0.00251442959054479 125000 -628.071039100688 0 0 108 (C1) n - 1
REM
REM in /home/nfs/bkarasulu/CARBON/AIRSS/Generating-Clusters/REBO/Only-C1/SD-CG/HFTN-CG
REM
REM
REM
REM
REM
REM ./C.cell (11c1c37f851c82e70ff6c80c92926a4b)
REM
REM compiler GCC version 9.2.1 20190827 (Red Hat 9.2.1-1)
REM options -cpp -mtune=generic -march=x86-64 -g -O0 -fpre-include=/usr/include/finclude/math-vector-fortran.h
REM seed 1224801819 609300742 1337139293 761605093 14039426 467277532 87341823 2056927246 -411954850 -1593660853 -1068506112 1063345745 -267920278 -1755325138 -771725382 -1111693916 1171905058 -563107274 -804612090 1971206157 1794348131 2081121055 -1733472330 1654278313 344685090 1064892697 -1378664915 709843000 1219570829 1859951511 1180682572 -1654517686 1944458689
REM
CELL 1.54180   50.00000   50.00000   50.00000   90.00000   90.00000   90.00000
LATT -1
SFAC C  
C      1  0.4259440000000  0.4893110000000  0.4708450000000 1.0
C      1  0.5567250000000  0.4805410000000  0.5027350000000 1.0
C      1  0.5415120000000  0.5228980000000  0.4424550000000 1.0
C      1  0.5545590000000  0.5743490000000  0.4936580000000 1.0
C      1  0.4319120000000  0.4784250000000  0.5324070000000 1.0
C      1  0.4751130000000  0.4306900000000  0.4553280000000 1.0
C      1  0.5127620000000  0.4807010000000  0.4123110000000 1.0
C      1  0.4430390000000  0.4675040000000  0.5628920000000 1.0
C      1  0.4804580000000  0.5774850000000  0.4717150000000 1.0
C      1  0.5221420000000  0.5370160000000  0.4944210000000 1.0
C      1  0.5114100000000  0.4834550000000  0.5833970000000 1.0
C      1  0.4517080000000  0.4128620000000  0.4946730000000 1.0
C      1  0.5171680000000  0.5357760000000  0.5229510000000 1.0
C      1  0.4926620000000  0.4624330000000  0.4717720000000 1.0
C      1  0.5237330000000  0.4324410000000  0.4465840000000 1.0
C      1  0.5930140000000  0.4920430000000  0.5163660000000 1.0
C      1  0.5187630000000  0.5135950000000  0.4192230000000 1.0
C      1  0.4237320000000  0.4947500000000  0.5033680000000 1.0
C      1  0.4336510000000  0.5197100000000  0.4573530000000 1.0
C      1  0.4802900000000  0.5783230000000  0.5407790000000 1.0
C      1  0.4914370000000  0.4012240000000  0.4971590000000 1.0
C      1  0.4723930000000  0.4452810000000  0.5290330000000 1.0
C      1  0.4942130000000  0.5078550000000  0.5749120000000 1.0
C      1  0.5070550000000  0.4480710000000  0.5058240000000 1.0
C      1  0.5699450000000  0.4852080000000  0.5400860000000 1.0
C      1  0.4683650000000  0.5118300000000  0.5937490000000 1.0
C      1  0.4564520000000  0.4991960000000  0.4289960000000 1.0
C      1  0.4382100000000  0.5051800000000  0.5515970000000 1.0
C      1  0.5049670000000  0.5789040000000  0.5186540000000 1.0
C      1  0.5777940000000  0.4770520000000  0.4690460000000 1.0
C      1  0.4623520000000  0.5028130000000  0.4622910000000 1.0
C      1  0.4435590000000  0.5438670000000  0.5601260000000 1.0
C      1  0.4816560000000  0.5604340000000  0.5016330000000 1.0
C      1  0.5240800000000  0.5663390000000  0.5623090000000 1.0
C      1  0.4418530000000  0.5360120000000  0.4300340000000 1.0
C      1  0.5043850000000  0.5456050000000  0.4725570000000 1.0
C      1  0.4478710000000  0.5703020000000  0.4786750000000 1.0
C      1  0.5401380000000  0.4652010000000  0.4074540000000 1.0
C      1  0.4903720000000  0.4590020000000  0.4183820000000 1.0
C      1  0.4986380000000  0.5795460000000  0.5680730000000 1.0
C      1  0.4605720000000  0.4683630000000  0.4213660000000 1.0
C      1  0.4500510000000  0.4309020000000  0.4735400000000 1.0
C      1  0.5390940000000  0.4495590000000  0.5554720000000 1.0
C      1  0.5503060000000  0.5591370000000  0.5172460000000 1.0
C      1  0.4865250000000  0.5407290000000  0.5290950000000 1.0
C      1  0.5599550000000  0.4724150000000  0.4341320000000 1.0
C      1  0.4612200000000  0.4473090000000  0.5589960000000 1.0
C      1  0.4521140000000  0.5087150000000  0.5144600000000 1.0
C      1  0.4961580000000  0.4376050000000  0.4368850000000 1.0
C      1  0.5351660000000  0.5028210000000  0.5104920000000 1.0
C      1  0.5547940000000  0.4579210000000  0.5281870000000 1.0
C      1  0.4296780000000  0.5280210000000  0.5334240000000 1.0
C      1  0.4890560000000  0.5380590000000  0.5861670000000 1.0
C      1  0.4881940000000  0.4311400000000  0.4850770000000 1.0
C      1  0.5605680000000  0.5166390000000  0.5501080000000 1.0
C      1  0.5035080000000  0.5001320000000  0.4981530000000 1.0
C      1  0.4875770000000  0.4143250000000  0.5492520000000 1.0
C      1  0.4561850000000  0.5534360000000  0.4512800000000 1.0
C      1  0.5171300000000  0.4914850000000  0.5346910000000 1.0
C      1  0.5841300000000  0.5195900000000  0.5268520000000 1.0
C      1  0.5140990000000  0.4982000000000  0.4577860000000 1.0
C      1  0.5495790000000  0.4632540000000  0.4753740000000 1.0
C      1  0.5312250000000  0.5710430000000  0.5348390000000 1.0
C      1  0.5396820000000  0.4832050000000  0.5551610000000 1.0
C      1  0.4725200000000  0.5107020000000  0.4911820000000 1.0
C      1  0.5443770000000  0.4427090000000  0.4302390000000 1.0
C      1  0.5460030000000  0.4414100000000  0.4997660000000 1.0
C      1  0.4397950000000  0.4600660000000  0.4825450000000 1.0
C      1  0.4752900000000  0.4735670000000  0.4523740000000 1.0
C      1  0.4837430000000  0.4727980000000  0.5024620000000 1.0
C      1  0.4935410000000  0.5110870000000  0.5442240000000 1.0
C      1  0.5206810000000  0.4725390000000  0.4875380000000 1.0
C      1  0.4286250000000  0.5418800000000  0.4775810000000 1.0
C      1  0.5282260000000  0.4820860000000  0.4413410000000 1.0
C      1  0.5215020000000  0.5368650000000  0.5758490000000 1.0
C      1  0.5705510000000  0.5496250000000  0.4517610000000 1.0
C      1  0.4476800000000  0.4859420000000  0.5850560000000 1.0
C      1  0.5418660000000  0.5241940000000  0.4764390000000 1.0
C      1  0.5202660000000  0.4110690000000  0.4976500000000 1.0
C      1  0.4724900000000  0.5389400000000  0.4774000000000 1.0
C      1  0.5087830000000  0.4600000000000  0.5652050000000 1.0
C      1  0.4721140000000  0.4148760000000  0.5200270000000 1.0
C      1  0.4919700000000  0.5325310000000  0.4228700000000 1.0
C      1  0.5306880000000  0.4256200000000  0.4733470000000 1.0
C      1  0.5000870000000  0.5208510000000  0.4533860000000 1.0
C      1  0.5411280000000  0.5558930000000  0.4522280000000 1.0
C      1  0.5790320000000  0.5260480000000  0.4619630000000 1.0
C      1  0.5680260000000  0.5098940000000  0.4894600000000 1.0
C      1  0.5254490000000  0.4294200000000  0.5240670000000 1.0
C      1  0.4566650000000  0.5569950000000  0.5321460000000 1.0
C      1  0.4883100000000  0.5577900000000  0.4450370000000 1.0
C      1  0.5948090000000  0.4803470000000  0.4905600000000 1.0
C      1  0.4188090000000  0.5283970000000  0.5044690000000 1.0
C      1  0.5092500000000  0.5832170000000  0.4851960000000 1.0
C      1  0.4900950000000  0.4713400000000  0.5415100000000 1.0
C      1  0.5562960000000  0.5299070000000  0.5131620000000 1.0
C      1  0.4395660000000  0.5186790000000  0.5806100000000 1.0
C      1  0.5337610000000  0.5736200000000  0.4738420000000 1.0
C      1  0.4418470000000  0.4686030000000  0.4499400000000 1.0
C      1  0.4398650000000  0.5558190000000  0.5070970000000 1.0
C      1  0.5122060000000  0.4287900000000  0.5521400000000 1.0
C      1  0.5341590000000  0.5292490000000  0.5463250000000 1.0
C      1  0.4643700000000  0.5234040000000  0.4135000000000 1.0
C      1  0.4532040000000  0.4657260000000  0.5097710000000 1.0
C      1  0.4673650000000  0.4948520000000  0.5393950000000 1.0
C      1  0.5339220000000  0.5060350000000  0.5787360000000 1.0
C      1  0.5665500000000  0.5002060000000  0.4479580000000 1.0
C      1  0.4719220000000  0.5591830000000  0.5687890000000 1.0
END
