TITL C-2778423-5760-786 0.00235068881733294 125000 -783.011944220045 0 0 134 (C1) n - 1
REM
REM in /home/nfs/bkarasulu/CARBON/AIRSS/Generating-Clusters/REBO/Only-C1/SD-CG/HFTN-CG
REM
REM
REM
REM
REM
REM ./C.cell (11c1c37f851c82e70ff6c80c92926a4b)
REM
REM compiler GCC version 9.2.1 20190827 (Red Hat 9.2.1-1)
REM options -cpp -mtune=generic -march=x86-64 -g -O0 -fpre-include=/usr/include/finclude/math-vector-fortran.h
REM seed -466334441 904786960 1703496832 -980770923 -1262172206 -1540408870 1210430416 -1701680038 1519489741 -117956213 2109235551 -1363704799 -1985851626 -479161989 -485074738 1471131130 -916965384 -1933619686 -1900287834 -909331041 802497134 749626289 1368051349 -729194282 -474530091 -1601289002 85926263 34733735 -1388288028 -1402295039 1891877259 122083995 -51291436
REM
CELL 1.54180   50.00000   50.00000   50.00000   90.00000   90.00000   90.00000
LATT -1
SFAC C  
C      1  0.4291680000000  0.5374050000000  0.4448190000000 1.0
C      1  0.4986470000000  0.4096870000000  0.5055330000000 1.0
C      1  0.5317230000000  0.5432170000000  0.5854460000000 1.0
C      1  0.4251920000000  0.4477420000000  0.5234490000000 1.0
C      1  0.4700640000000  0.4249540000000  0.4798510000000 1.0
C      1  0.4547340000000  0.5714070000000  0.4755950000000 1.0
C      1  0.5189640000000  0.4331860000000  0.4445380000000 1.0
C      1  0.4490470000000  0.4350140000000  0.5047410000000 1.0
C      1  0.4532540000000  0.5078110000000  0.4617150000000 1.0
C      1  0.5680980000000  0.5107430000000  0.4326520000000 1.0
C      1  0.5230940000000  0.6046580000000  0.4617290000000 1.0
C      1  0.5191410000000  0.4496050000000  0.4196000000000 1.0
C      1  0.5513720000000  0.4850650000000  0.5075650000000 1.0
C      1  0.5749970000000  0.4329120000000  0.4832900000000 1.0
C      1  0.4757250000000  0.4196560000000  0.5489870000000 1.0
C      1  0.5002910000000  0.5451470000000  0.4114100000000 1.0
C      1  0.5036620000000  0.5167450000000  0.4394840000000 1.0
C      1  0.5226940000000  0.4325080000000  0.5476870000000 1.0
C      1  0.5647370000000  0.4886530000000  0.5556150000000 1.0
C      1  0.5247250000000  0.5256340000000  0.4067260000000 1.0
C      1  0.5062240000000  0.5380460000000  0.4589730000000 1.0
C      1  0.4510500000000  0.4690290000000  0.5023150000000 1.0
C      1  0.4162760000000  0.4531930000000  0.4907830000000 1.0
C      1  0.5506400000000  0.5301270000000  0.4148230000000 1.0
C      1  0.4879650000000  0.4883910000000  0.4435060000000 1.0
C      1  0.5672790000000  0.4431390000000  0.5315770000000 1.0
C      1  0.4366290000000  0.4946830000000  0.5059150000000 1.0
C      1  0.5851810000000  0.4902070000000  0.5040210000000 1.0
C      1  0.5433440000000  0.5404710000000  0.4841050000000 1.0
C      1  0.5739350000000  0.4591280000000  0.5049430000000 1.0
C      1  0.4063770000000  0.5230990000000  0.5205640000000 1.0
C      1  0.4748510000000  0.4578000000000  0.4849440000000 1.0
C      1  0.4904960000000  0.5593260000000  0.3887880000000 1.0
C      1  0.4255600000000  0.5455830000000  0.5057380000000 1.0
C      1  0.4584890000000  0.4888690000000  0.4349550000000 1.0
C      1  0.5039160000000  0.5381970000000  0.5709970000000 1.0
C      1  0.5481380000000  0.4635370000000  0.4129380000000 1.0
C      1  0.4554020000000  0.4128430000000  0.5295250000000 1.0
C      1  0.5329310000000  0.4902700000000  0.5628990000000 1.0
C      1  0.5571600000000  0.5716140000000  0.4632050000000 1.0
C      1  0.5106440000000  0.5926350000000  0.4397410000000 1.0
C      1  0.4993040000000  0.4415580000000  0.5014900000000 1.0
C      1  0.5310400000000  0.4760310000000  0.5333520000000 1.0
C      1  0.5292980000000  0.5687420000000  0.5630650000000 1.0
C      1  0.4778610000000  0.5395220000000  0.5075560000000 1.0
C      1  0.4288600000000  0.5549030000000  0.4742310000000 1.0
C      1  0.5016820000000  0.5724210000000  0.5504440000000 1.0
C      1  0.4497280000000  0.5200130000000  0.4239010000000 1.0
C      1  0.5766310000000  0.5066060000000  0.5297230000000 1.0
C      1  0.4492050000000  0.4605470000000  0.5412680000000 1.0
C      1  0.5300060000000  0.4886720000000  0.5949780000000 1.0
C      1  0.5485530000000  0.5105620000000  0.4850920000000 1.0
C      1  0.4509730000000  0.5655190000000  0.5564740000000 1.0
C      1  0.4219820000000  0.5049760000000  0.4370450000000 1.0
C      1  0.5636590000000  0.4820130000000  0.4181330000000 1.0
C      1  0.5886380000000  0.5337610000000  0.4737290000000 1.0
C      1  0.5408930000000  0.5853730000000  0.5088750000000 1.0
C      1  0.4280780000000  0.5659600000000  0.5312520000000 1.0
C      1  0.4766610000000  0.5346460000000  0.5891090000000 1.0
C      1  0.5826260000000  0.5594050000000  0.4624050000000 1.0
C      1  0.4856410000000  0.5871420000000  0.5260690000000 1.0
C      1  0.4781820000000  0.4640910000000  0.5410280000000 1.0
C      1  0.4552330000000  0.5326230000000  0.5639840000000 1.0
C      1  0.5888430000000  0.5100290000000  0.4581330000000 1.0
C      1  0.4520820000000  0.5880650000000  0.5315920000000 1.0
C      1  0.5022210000000  0.5509110000000  0.5285170000000 1.0
C      1  0.5615230000000  0.4570400000000  0.5552250000000 1.0
C      1  0.4479190000000  0.4586030000000  0.4393900000000 1.0
C      1  0.4596290000000  0.5301070000000  0.4696520000000 1.0
C      1  0.4823070000000  0.5521560000000  0.4699700000000 1.0
C      1  0.5116460000000  0.4507000000000  0.4711350000000 1.0
C      1  0.4798940000000  0.5629830000000  0.5708260000000 1.0
C      1  0.5539650000000  0.5312090000000  0.5254190000000 1.0
C      1  0.5783800000000  0.5319680000000  0.5011700000000 1.0
C      1  0.5098450000000  0.5118700000000  0.5542680000000 1.0
C      1  0.5014790000000  0.4150250000000  0.5371760000000 1.0
C      1  0.5471650000000  0.4131680000000  0.4815440000000 1.0
C      1  0.4214400000000  0.4787230000000  0.4457280000000 1.0
C      1  0.5530330000000  0.5646290000000  0.5335370000000 1.0
C      1  0.5140220000000  0.5662210000000  0.4322740000000 1.0
C      1  0.5240710000000  0.5246550000000  0.5281910000000 1.0
C      1  0.5242520000000  0.5568020000000  0.5047380000000 1.0
C      1  0.4870340000000  0.5036540000000  0.5226050000000 1.0
C      1  0.5084240000000  0.5267610000000  0.4979650000000 1.0
C      1  0.4871660000000  0.4851220000000  0.4037410000000 1.0
C      1  0.5054430000000  0.4537900000000  0.5284890000000 1.0
C      1  0.5156640000000  0.4996000000000  0.4051770000000 1.0
C      1  0.4626440000000  0.5920620000000  0.5006330000000 1.0
C      1  0.4743730000000  0.4374630000000  0.5720280000000 1.0
C      1  0.5131580000000  0.4114400000000  0.4773240000000 1.0
C      1  0.4894110000000  0.4221210000000  0.4547230000000 1.0
C      1  0.4726490000000  0.4420960000000  0.4326900000000 1.0
C      1  0.3931180000000  0.4942740000000  0.5173360000000 1.0
C      1  0.5907770000000  0.4860370000000  0.4731110000000 1.0
C      1  0.5411570000000  0.4157760000000  0.4496250000000 1.0
C      1  0.4135470000000  0.5244910000000  0.4714190000000 1.0
C      1  0.5441990000000  0.5931510000000  0.4774700000000 1.0
C      1  0.5211680000000  0.4597060000000  0.5857310000000 1.0
C      1  0.4150420000000  0.5009530000000  0.4845860000000 1.0
C      1  0.4937930000000  0.4587490000000  0.5773590000000 1.0
C      1  0.4705740000000  0.4896120000000  0.5876390000000 1.0
C      1  0.5373220000000  0.4788300000000  0.4517250000000 1.0
C      1  0.5344550000000  0.5208240000000  0.6053160000000 1.0
C      1  0.5637030000000  0.5613960000000  0.5016610000000 1.0
C      1  0.5555340000000  0.5466970000000  0.5622360000000 1.0
C      1  0.4294800000000  0.4558900000000  0.4676930000000 1.0
C      1  0.4271390000000  0.5021210000000  0.5368170000000 1.0
C      1  0.4888420000000  0.4571180000000  0.4128110000000 1.0
C      1  0.4521010000000  0.4362310000000  0.5879100000000 1.0
C      1  0.5341300000000  0.5522100000000  0.4542620000000 1.0
C      1  0.5379670000000  0.4464920000000  0.5671750000000 1.0
C      1  0.5718640000000  0.5217590000000  0.5597450000000 1.0
C      1  0.4357410000000  0.4815830000000  0.5556840000000 1.0
C      1  0.4883160000000  0.4872590000000  0.5612500000000 1.0
C      1  0.4838380000000  0.5060380000000  0.4901960000000 1.0
C      1  0.4493250000000  0.5245140000000  0.5116990000000 1.0
C      1  0.5162620000000  0.4799540000000  0.4305450000000 1.0
C      1  0.5121060000000  0.4899210000000  0.5130660000000 1.0
C      1  0.4680600000000  0.4004960000000  0.5033600000000 1.0
C      1  0.4876880000000  0.5702680000000  0.4969130000000 1.0
C      1  0.5496360000000  0.5027450000000  0.4575100000000 1.0
C      1  0.4866510000000  0.4817970000000  0.4716760000000 1.0
C      1  0.5146530000000  0.4810710000000  0.4864530000000 1.0
C      1  0.5479900000000  0.4296670000000  0.5117900000000 1.0
C      1  0.4284390000000  0.5349030000000  0.5441560000000 1.0
C      1  0.5073600000000  0.5054500000000  0.6133830000000 1.0
C      1  0.5809110000000  0.4598520000000  0.4656520000000 1.0
C      1  0.5502970000000  0.4582740000000  0.4654690000000 1.0
C      1  0.4012370000000  0.4693520000000  0.5135130000000 1.0
C      1  0.4433370000000  0.4852540000000  0.5823750000000 1.0
C      1  0.4666760000000  0.5170180000000  0.5384320000000 1.0
C      1  0.5372270000000  0.4500510000000  0.4922120000000 1.0
C      1  0.4810230000000  0.5166280000000  0.4156030000000 1.0
C      1  0.4810810000000  0.5095870000000  0.6046870000000 1.0
END
