TITL C-2778436-5916-1168 0.00321634672995194 125000 -638.727592801139 0 0 110 (C1) n - 1
REM
REM in /home/nfs/bkarasulu/CARBON/AIRSS/Generating-Clusters/REBO/Only-C1/SD-CG/HFTN-CG
REM
REM
REM
REM
REM
REM ./C.cell (11c1c37f851c82e70ff6c80c92926a4b)
REM
REM compiler GCC version 9.2.1 20190827 (Red Hat 9.2.1-1)
REM options -cpp -mtune=generic -march=x86-64 -g -O0 -fpre-include=/usr/include/finclude/math-vector-fortran.h
REM seed 10350095 1125747603 1065170981 1220964244 1320471695 860004311 836690798 1343384751 430538482 -1089083017 -1567781630 1224896089 97328620 -600848931 554784215 1910015431 -565248682 537628319 -2000870403 -1266857091 487794284 125624379 1454384587 1783187746 -1475797952 -1688040110 806782006 1841208803 2051371376 594090675 348599652 -909903056 -1678462676
REM
CELL 1.54180   50.00000   50.00000   50.00000   90.00000   90.00000   90.00000
LATT -1
SFAC C  
C      1  0.4631420000000  0.4285480000000  0.5035670000000 1.0
C      1  0.3992630000000  0.5078010000000  0.4679480000000 1.0
C      1  0.5309740000000  0.5013630000000  0.4204720000000 1.0
C      1  0.5260990000000  0.5591430000000  0.5242680000000 1.0
C      1  0.5579810000000  0.4957350000000  0.4252820000000 1.0
C      1  0.5609570000000  0.5420350000000  0.5329380000000 1.0
C      1  0.4658120000000  0.5552840000000  0.4326430000000 1.0
C      1  0.5768050000000  0.4209810000000  0.4969260000000 1.0
C      1  0.5029310000000  0.4860720000000  0.4260670000000 1.0
C      1  0.4061470000000  0.5156580000000  0.5157460000000 1.0
C      1  0.5594790000000  0.4497530000000  0.4961750000000 1.0
C      1  0.5694700000000  0.5162590000000  0.5522370000000 1.0
C      1  0.4841470000000  0.5831390000000  0.4637850000000 1.0
C      1  0.4183670000000  0.5695190000000  0.5049780000000 1.0
C      1  0.4112920000000  0.5523460000000  0.4830060000000 1.0
C      1  0.4796380000000  0.4757350000000  0.5256010000000 1.0
C      1  0.5680480000000  0.5575930000000  0.5054040000000 1.0
C      1  0.4889700000000  0.5701030000000  0.4388770000000 1.0
C      1  0.4400250000000  0.4732180000000  0.4320050000000 1.0
C      1  0.4522630000000  0.4433070000000  0.5572030000000 1.0
C      1  0.4238640000000  0.4910630000000  0.5034050000000 1.0
C      1  0.4614010000000  0.4907450000000  0.4625270000000 1.0
C      1  0.4101760000000  0.4665280000000  0.5204280000000 1.0
C      1  0.4983050000000  0.4659430000000  0.5041580000000 1.0
C      1  0.5101350000000  0.5172050000000  0.5442460000000 1.0
C      1  0.4614800000000  0.5678410000000  0.4833270000000 1.0
C      1  0.4291080000000  0.4647890000000  0.5485920000000 1.0
C      1  0.4295490000000  0.4613880000000  0.4622580000000 1.0
C      1  0.5502460000000  0.4191310000000  0.4724160000000 1.0
C      1  0.4455430000000  0.5665560000000  0.5101440000000 1.0
C      1  0.5392050000000  0.5154380000000  0.5362400000000 1.0
C      1  0.5799030000000  0.4346070000000  0.4656630000000 1.0
C      1  0.5308440000000  0.4610140000000  0.5477280000000 1.0
C      1  0.5083780000000  0.4450790000000  0.5625550000000 1.0
C      1  0.5026500000000  0.4255400000000  0.4488070000000 1.0
C      1  0.4544340000000  0.4934780000000  0.5116330000000 1.0
C      1  0.5117510000000  0.4175100000000  0.5430300000000 1.0
C      1  0.5297990000000  0.4981920000000  0.5873310000000 1.0
C      1  0.4528460000000  0.5353230000000  0.5567930000000 1.0
C      1  0.5392160000000  0.5588210000000  0.5508990000000 1.0
C      1  0.5878950000000  0.5115850000000  0.4639830000000 1.0
C      1  0.4295390000000  0.4524360000000  0.4960280000000 1.0
C      1  0.4675190000000  0.5275710000000  0.4456160000000 1.0
C      1  0.4265980000000  0.5250060000000  0.5398940000000 1.0
C      1  0.3981100000000  0.5281580000000  0.4884970000000 1.0
C      1  0.4817120000000  0.4278160000000  0.5534630000000 1.0
C      1  0.4494900000000  0.4622250000000  0.5218350000000 1.0
C      1  0.4911510000000  0.4396420000000  0.4964720000000 1.0
C      1  0.4922600000000  0.4910370000000  0.4574740000000 1.0
C      1  0.5135050000000  0.4485390000000  0.4349130000000 1.0
C      1  0.4459340000000  0.4338360000000  0.4746100000000 1.0
C      1  0.4743720000000  0.5114270000000  0.5609050000000 1.0
C      1  0.5072820000000  0.5809710000000  0.5123670000000 1.0
C      1  0.4998930000000  0.4970810000000  0.5984220000000 1.0
C      1  0.4632420000000  0.4902410000000  0.5840950000000 1.0
C      1  0.4652220000000  0.4555910000000  0.4242930000000 1.0
C      1  0.5151430000000  0.5528220000000  0.4403820000000 1.0
C      1  0.5441670000000  0.4518850000000  0.4705930000000 1.0
C      1  0.4290160000000  0.5233700000000  0.4248110000000 1.0
C      1  0.6171200000000  0.4838130000000  0.5426930000000 1.0
C      1  0.4544420000000  0.5207570000000  0.4748260000000 1.0
C      1  0.5905890000000  0.5035370000000  0.5362890000000 1.0
C      1  0.5042610000000  0.4753790000000  0.5736050000000 1.0
C      1  0.5097920000000  0.5248180000000  0.4235620000000 1.0
C      1  0.5679270000000  0.4704960000000  0.4346290000000 1.0
C      1  0.4925240000000  0.5395530000000  0.5553000000000 1.0
C      1  0.4945950000000  0.5645810000000  0.4882360000000 1.0
C      1  0.4128520000000  0.4938510000000  0.5415140000000 1.0
C      1  0.5488390000000  0.4833900000000  0.5304070000000 1.0
C      1  0.4751390000000  0.5146180000000  0.6006040000000 1.0
C      1  0.5142610000000  0.5417680000000  0.4821080000000 1.0
C      1  0.5589220000000  0.5294620000000  0.4637610000000 1.0
C      1  0.5238640000000  0.4972010000000  0.4595740000000 1.0
C      1  0.5731550000000  0.5173210000000  0.4365440000000 1.0
C      1  0.4685520000000  0.4597240000000  0.4552360000000 1.0
C      1  0.5676220000000  0.4697690000000  0.5130940000000 1.0
C      1  0.5339840000000  0.5698030000000  0.4616200000000 1.0
C      1  0.4929300000000  0.4590820000000  0.4153180000000 1.0
C      1  0.5825920000000  0.5052540000000  0.5030720000000 1.0
C      1  0.5059960000000  0.4904810000000  0.4877350000000 1.0
C      1  0.5882170000000  0.4844100000000  0.4765380000000 1.0
C      1  0.4642700000000  0.5386990000000  0.5882070000000 1.0
C      1  0.5412900000000  0.4855070000000  0.5626050000000 1.0
C      1  0.5291810000000  0.5273810000000  0.4583930000000 1.0
C      1  0.4654800000000  0.5205080000000  0.5042490000000 1.0
C      1  0.5299590000000  0.4656870000000  0.4517430000000 1.0
C      1  0.4523000000000  0.5407100000000  0.5240180000000 1.0
C      1  0.4381110000000  0.5489200000000  0.4674490000000 1.0
C      1  0.5283840000000  0.4091310000000  0.5243830000000 1.0
C      1  0.5486190000000  0.5214800000000  0.5782900000000 1.0
C      1  0.4933340000000  0.4895370000000  0.5479620000000 1.0
C      1  0.5326870000000  0.5393300000000  0.5048610000000 1.0
C      1  0.4795210000000  0.5088410000000  0.4241250000000 1.0
C      1  0.5631840000000  0.5267030000000  0.4960890000000 1.0
C      1  0.5456970000000  0.4089760000000  0.5043330000000 1.0
C      1  0.5980690000000  0.4775130000000  0.5161310000000 1.0
C      1  0.5263600000000  0.5886890000000  0.4874750000000 1.0
C      1  0.4162030000000  0.4870790000000  0.4745160000000 1.0
C      1  0.4464430000000  0.5006950000000  0.4249860000000 1.0
C      1  0.5552790000000  0.5748670000000  0.4872140000000 1.0
C      1  0.5380100000000  0.5472500000000  0.5766850000000 1.0
C      1  0.4546580000000  0.4658450000000  0.5793110000000 1.0
C      1  0.6372620000000  0.4779740000000  0.5573610000000 1.0
C      1  0.4354490000000  0.5489890000000  0.4360940000000 1.0
C      1  0.4947550000000  0.5163290000000  0.5030900000000 1.0
C      1  0.4866690000000  0.5664280000000  0.5544560000000 1.0
C      1  0.4794730000000  0.4334840000000  0.4677330000000 1.0
C      1  0.5810350000000  0.4623570000000  0.4591430000000 1.0
C      1  0.4583700000000  0.4242860000000  0.5305570000000 1.0
C      1  0.4890750000000  0.5867110000000  0.5363140000000 1.0
END
