TITL C-2778430-5657-362 -0.0402133496063268 125000 -273.852099901301 0 0 49 (C1) n - 1
REM
REM in /home/nfs/bkarasulu/CARBON/AIRSS/Generating-Clusters/REBO/Only-C1/SD-CG/HFTN-CG
REM
REM
REM
REM
REM
REM ./C.cell (11c1c37f851c82e70ff6c80c92926a4b)
REM
REM compiler GCC version 9.2.1 20190827 (Red Hat 9.2.1-1)
REM options -cpp -mtune=generic -march=x86-64 -g -O0 -fpre-include=/usr/include/finclude/math-vector-fortran.h
REM seed 1109361435 -1924928367 461538092 -667898633 249853522 -1184216684 1614749728 1633400852 -1299274808 -551406664 1405010933 -985772599 1990839113 1570768619 1286312870 -60824292 1037412287 433856289 1745415723 1000510256 357459471 883624687 1679527016 -722777457 367100747 195284376 -737137479 -626672000 1223509912 -1404277818 691465539 -1730559726 1844061848
REM
CELL 1.54180   50.00000   50.00000   50.00000   90.00000   90.00000   90.00000
LATT -1
SFAC C  
C      1  0.5565770000000  0.4817190000000  0.5118950000000 1.0
C      1  0.4416130000000  0.5206460000000  0.4648490000000 1.0
C      1  0.5445890000000  0.5235190000000  0.4827210000000 1.0
C      1  0.4748900000000  0.5271340000000  0.4867920000000 1.0
C      1  0.4527540000000  0.4807510000000  0.5186300000000 1.0
C      1  0.4630170000000  0.5267010000000  0.5452720000000 1.0
C      1  0.4917410000000  0.4638890000000  0.5639390000000 1.0
C      1  0.4650230000000  0.4745460000000  0.5675280000000 1.0
C      1  0.5835600000000  0.4916440000000  0.4702990000000 1.0
C      1  0.4516500000000  0.4553860000000  0.5066600000000 1.0
C      1  0.4830700000000  0.5149850000000  0.4617220000000 1.0
C      1  0.4933310000000  0.4736050000000  0.4298950000000 1.0
C      1  0.5168020000000  0.4558610000000  0.4663910000000 1.0
C      1  0.6064740000000  0.4902590000000  0.4591500000000 1.0
C      1  0.5560170000000  0.4933080000000  0.4837000000000 1.0
C      1  0.4580720000000  0.5009530000000  0.5672390000000 1.0
C      1  0.5259980000000  0.5381030000000  0.5266740000000 1.0
C      1  0.5077210000000  0.4424880000000  0.5141340000000 1.0
C      1  0.5706900000000  0.5485400000000  0.5144190000000 1.0
C      1  0.5044060000000  0.4930340000000  0.4996730000000 1.0
C      1  0.5312010000000  0.4282620000000  0.5142880000000 1.0
C      1  0.4862160000000  0.5383150000000  0.4423130000000 1.0
C      1  0.5133380000000  0.4867080000000  0.5381440000000 1.0
C      1  0.4264180000000  0.5529310000000  0.5007730000000 1.0
C      1  0.4541460000000  0.5144110000000  0.5184860000000 1.0
C      1  0.5141320000000  0.5088090000000  0.5792630000000 1.0
C      1  0.4795460000000  0.4948040000000  0.5097100000000 1.0
C      1  0.4972540000000  0.4498290000000  0.4879070000000 1.0
C      1  0.4933440000000  0.5385820000000  0.5372470000000 1.0
C      1  0.5134750000000  0.5474790000000  0.4444670000000 1.0
C      1  0.4369030000000  0.4921610000000  0.4644260000000 1.0
C      1  0.5255430000000  0.5000510000000  0.4480900000000 1.0
C      1  0.5463630000000  0.5379870000000  0.5076180000000 1.0
C      1  0.4432610000000  0.5320590000000  0.4944260000000 1.0
C      1  0.4924670000000  0.5366580000000  0.5051020000000 1.0
C      1  0.5338270000000  0.4791160000000  0.4666330000000 1.0
C      1  0.4547440000000  0.5369030000000  0.4442340000000 1.0
C      1  0.5073740000000  0.4517270000000  0.4395230000000 1.0
C      1  0.4971890000000  0.4501550000000  0.5394530000000 1.0
C      1  0.5297130000000  0.5271140000000  0.4579890000000 1.0
C      1  0.4923950000000  0.5001140000000  0.5471170000000 1.0
C      1  0.5123170000000  0.4798390000000  0.5775220000000 1.0
C      1  0.4802840000000  0.4889570000000  0.4499360000000 1.0
C      1  0.5221730000000  0.5723510000000  0.4381770000000 1.0
C      1  0.4594870000000  0.4741980000000  0.4635860000000 1.0
C      1  0.4835820000000  0.5218880000000  0.5722000000000 1.0
C      1  0.4684470000000  0.4546680000000  0.4832820000000 1.0
C      1  0.5194630000000  0.5280540000000  0.5563800000000 1.0
C      1  0.5374060000000  0.4788010000000  0.5301260000000 1.0
END
