TITL C-2778429-3646-981 -0.00238309434685499 125000 -1101.91418618735 0 0 189 (C1) n - 1
REM
REM in /home/nfs/bkarasulu/CARBON/AIRSS/Generating-Clusters/REBO/Only-C1/SD-CG/HFTN-CG
REM
REM
REM
REM
REM
REM ./C.cell (11c1c37f851c82e70ff6c80c92926a4b)
REM
REM compiler GCC version 9.2.1 20190827 (Red Hat 9.2.1-1)
REM options -cpp -mtune=generic -march=x86-64 -g -O0 -fpre-include=/usr/include/finclude/math-vector-fortran.h
REM seed -2044562718 1024505232 -1878592700 -1520906294 -1630646910 976556577 -1556520295 -1240937110 500420408 -202477965 1467793883 2087738441 1482337787 865699600 -886120670 -1151647381 -168330865 616228033 1990641476 1174362916 -1379861169 -879266686 1056815621 861095519 550779374 140892969 -1789710349 2018225868 2126941434 -618515241 -386233327 -422217217 -1235239974
REM
CELL 1.54180   50.00000   50.00000   50.00000   90.00000   90.00000   90.00000
LATT -1
SFAC C  
C      1  0.4326690000000  0.4010840000000  0.5172020000000 1.0
C      1  0.4637250000000  0.4602310000000  0.5142240000000 1.0
C      1  0.5091640000000  0.3758800000000  0.5162680000000 1.0
C      1  0.4672350000000  0.4195550000000  0.4852870000000 1.0
C      1  0.4803310000000  0.4967410000000  0.4739510000000 1.0
C      1  0.4015230000000  0.5143700000000  0.4604850000000 1.0
C      1  0.4601050000000  0.5263300000000  0.3886510000000 1.0
C      1  0.4887140000000  0.5985630000000  0.4656070000000 1.0
C      1  0.5777250000000  0.5635400000000  0.5314230000000 1.0
C      1  0.5866300000000  0.5174900000000  0.4882120000000 1.0
C      1  0.5612170000000  0.5786120000000  0.4774240000000 1.0
C      1  0.5322490000000  0.5133620000000  0.4768600000000 1.0
C      1  0.4740830000000  0.5443060000000  0.4627210000000 1.0
C      1  0.5032960000000  0.5052590000000  0.6186290000000 1.0
C      1  0.5758870000000  0.5716590000000  0.4409580000000 1.0
C      1  0.4723920000000  0.4602070000000  0.3915330000000 1.0
C      1  0.6153150000000  0.5361730000000  0.4960790000000 1.0
C      1  0.5328520000000  0.5004040000000  0.3949970000000 1.0
C      1  0.4109550000000  0.4513600000000  0.5144240000000 1.0
C      1  0.4262770000000  0.5183360000000  0.4431400000000 1.0
C      1  0.3999600000000  0.5331040000000  0.4843900000000 1.0
C      1  0.5550190000000  0.5715450000000  0.5152650000000 1.0
C      1  0.4529900000000  0.4877920000000  0.4620670000000 1.0
C      1  0.5311270000000  0.4974360000000  0.5046280000000 1.0
C      1  0.4534090000000  0.4922680000000  0.5506440000000 1.0
C      1  0.5612040000000  0.5136060000000  0.4679360000000 1.0
C      1  0.4660910000000  0.5484550000000  0.5735950000000 1.0
C      1  0.5714430000000  0.4345370000000  0.5595150000000 1.0
C      1  0.4676550000000  0.5730800000000  0.4234040000000 1.0
C      1  0.4319830000000  0.4998850000000  0.5993050000000 1.0
C      1  0.5147130000000  0.4567200000000  0.6075140000000 1.0
C      1  0.5204600000000  0.4352420000000  0.4967410000000 1.0
C      1  0.5416670000000  0.4733730000000  0.6074750000000 1.0
C      1  0.5743090000000  0.5119720000000  0.4227310000000 1.0
C      1  0.4771530000000  0.5203340000000  0.4160160000000 1.0
C      1  0.4607740000000  0.4600350000000  0.6061470000000 1.0
C      1  0.5454020000000  0.5762140000000  0.5758040000000 1.0
C      1  0.4213000000000  0.4507460000000  0.4860180000000 1.0
C      1  0.5369540000000  0.4760830000000  0.4167990000000 1.0
C      1  0.5700140000000  0.5472710000000  0.4873520000000 1.0
C      1  0.6107400000000  0.5059940000000  0.4570150000000 1.0
C      1  0.5154700000000  0.4426400000000  0.4192310000000 1.0
C      1  0.4968650000000  0.5139530000000  0.5571360000000 1.0
C      1  0.4317020000000  0.5456940000000  0.5387900000000 1.0
C      1  0.5675640000000  0.4824730000000  0.4723680000000 1.0
C      1  0.4943090000000  0.5382480000000  0.4973150000000 1.0
C      1  0.5475130000000  0.4139220000000  0.5469230000000 1.0
C      1  0.4280390000000  0.5392770000000  0.5674580000000 1.0
C      1  0.5054070000000  0.4734090000000  0.4090940000000 1.0
C      1  0.4223840000000  0.4329720000000  0.4590600000000 1.0
C      1  0.5156570000000  0.5371400000000  0.4737000000000 1.0
C      1  0.4623880000000  0.6098030000000  0.5035980000000 1.0
C      1  0.5018680000000  0.5774510000000  0.5165290000000 1.0
C      1  0.4530410000000  0.4905310000000  0.6138720000000 1.0
C      1  0.5879780000000  0.4657350000000  0.4414870000000 1.0
C      1  0.4161800000000  0.5133830000000  0.5218860000000 1.0
C      1  0.4903420000000  0.5674540000000  0.4795980000000 1.0
C      1  0.4863150000000  0.4204020000000  0.5288540000000 1.0
C      1  0.4310610000000  0.5883750000000  0.4921610000000 1.0
C      1  0.5503000000000  0.5195640000000  0.6018940000000 1.0
C      1  0.4661820000000  0.5364810000000  0.6223530000000 1.0
C      1  0.5089660000000  0.5550560000000  0.3953230000000 1.0
C      1  0.4517210000000  0.5806050000000  0.5429540000000 1.0
C      1  0.5162250000000  0.3855990000000  0.4844240000000 1.0
C      1  0.4924490000000  0.4194950000000  0.5788550000000 1.0
C      1  0.5745210000000  0.4528360000000  0.5330130000000 1.0
C      1  0.4191140000000  0.5585140000000  0.4922320000000 1.0
C      1  0.4399910000000  0.5839850000000  0.4627450000000 1.0
C      1  0.6032570000000  0.4939580000000  0.5170000000000 1.0
C      1  0.4955960000000  0.4827650000000  0.4466900000000 1.0
C      1  0.5289310000000  0.4065360000000  0.5024140000000 1.0
C      1  0.4592830000000  0.4018630000000  0.5063650000000 1.0
C      1  0.4793610000000  0.5638730000000  0.5389270000000 1.0
C      1  0.4331580000000  0.4540580000000  0.5870190000000 1.0
C      1  0.4962860000000  0.5796600000000  0.5937410000000 1.0
C      1  0.4829600000000  0.4398220000000  0.4099970000000 1.0
C      1  0.4295600000000  0.4304660000000  0.5626090000000 1.0
C      1  0.5351710000000  0.5006180000000  0.6183850000000 1.0
C      1  0.5495440000000  0.4478840000000  0.5022410000000 1.0
C      1  0.4680620000000  0.4307710000000  0.5926990000000 1.0
C      1  0.5102190000000  0.5687400000000  0.4245540000000 1.0
C      1  0.4454020000000  0.4730790000000  0.3999120000000 1.0
C      1  0.5238030000000  0.4622710000000  0.5455760000000 1.0
C      1  0.4445760000000  0.5103770000000  0.4939000000000 1.0
C      1  0.4976060000000  0.4499390000000  0.4557020000000 1.0
C      1  0.4780840000000  0.5126650000000  0.4999170000000 1.0
C      1  0.4110030000000  0.4935780000000  0.5475120000000 1.0
C      1  0.5355870000000  0.5327310000000  0.5540320000000 1.0
C      1  0.5268190000000  0.5795760000000  0.4973220000000 1.0
C      1  0.5278310000000  0.4998760000000  0.5584160000000 1.0
C      1  0.5181770000000  0.4850250000000  0.4690800000000 1.0
C      1  0.5153000000000  0.5793000000000  0.5693220000000 1.0
C      1  0.5423770000000  0.5441350000000  0.5067590000000 1.0
C      1  0.4758890000000  0.5554100000000  0.3970980000000 1.0
C      1  0.4717390000000  0.5092610000000  0.6233350000000 1.0
C      1  0.4642270000000  0.5900200000000  0.4467260000000 1.0
C      1  0.5001220000000  0.4152770000000  0.4302100000000 1.0
C      1  0.4435110000000  0.5683460000000  0.5690740000000 1.0
C      1  0.5512970000000  0.5223740000000  0.3999580000000 1.0
C      1  0.5957740000000  0.4936450000000  0.4349420000000 1.0
C      1  0.5473350000000  0.5013420000000  0.5323250000000 1.0
C      1  0.5751850000000  0.4371810000000  0.4850370000000 1.0
C      1  0.4546900000000  0.4502350000000  0.4819980000000 1.0
C      1  0.4303050000000  0.4827110000000  0.4831700000000 1.0
C      1  0.5559600000000  0.4778160000000  0.5013920000000 1.0
C      1  0.5445120000000  0.5015880000000  0.4332130000000 1.0
C      1  0.5140930000000  0.4008390000000  0.4566650000000 1.0
C      1  0.4951260000000  0.4952800000000  0.5807980000000 1.0
C      1  0.4375130000000  0.5225360000000  0.4113200000000 1.0
C      1  0.5318550000000  0.5409060000000  0.5975330000000 1.0
C      1  0.5665680000000  0.5330970000000  0.4452280000000 1.0
C      1  0.5558350000000  0.5542750000000  0.5684890000000 1.0
C      1  0.5936390000000  0.4436210000000  0.5111110000000 1.0
C      1  0.5755030000000  0.4839720000000  0.5268800000000 1.0
C      1  0.5170630000000  0.5405120000000  0.5181470000000 1.0
C      1  0.5871100000000  0.5368220000000  0.5384740000000 1.0
C      1  0.6064870000000  0.5237010000000  0.5222290000000 1.0
C      1  0.4673180000000  0.4213130000000  0.4340020000000 1.0
C      1  0.4595690000000  0.4362550000000  0.5634410000000 1.0
C      1  0.4492910000000  0.5225350000000  0.5253780000000 1.0
C      1  0.4218480000000  0.4248770000000  0.5319610000000 1.0
C      1  0.4174600000000  0.3779490000000  0.5160590000000 1.0
C      1  0.5340080000000  0.3947950000000  0.5302760000000 1.0
C      1  0.5933620000000  0.4621390000000  0.4735040000000 1.0
C      1  0.5901850000000  0.5496620000000  0.4595440000000 1.0
C      1  0.4827930000000  0.3878060000000  0.5265080000000 1.0
C      1  0.5316220000000  0.4717350000000  0.5750550000000 1.0
C      1  0.5676010000000  0.5055400000000  0.5827120000000 1.0
C      1  0.5029640000000  0.5468250000000  0.4444630000000 1.0
C      1  0.4387790000000  0.4541400000000  0.5320370000000 1.0
C      1  0.5430830000000  0.4431890000000  0.5333760000000 1.0
C      1  0.4681800000000  0.4935340000000  0.3844180000000 1.0
C      1  0.4934440000000  0.4432310000000  0.5120760000000 1.0
C      1  0.5253200000000  0.5220350000000  0.4379690000000 1.0
C      1  0.4120790000000  0.4469560000000  0.4360820000000 1.0
C      1  0.5066270000000  0.5929050000000  0.5419880000000 1.0
C      1  0.4736310000000  0.4908740000000  0.5245470000000 1.0
C      1  0.4484920000000  0.4973730000000  0.4313810000000 1.0
C      1  0.5776280000000  0.4513240000000  0.5814760000000 1.0
C      1  0.4786530000000  0.4894360000000  0.4226370000000 1.0
C      1  0.4530990000000  0.5555350000000  0.4873580000000 1.0
C      1  0.5464130000000  0.5568160000000  0.4367170000000 1.0
C      1  0.4925390000000  0.4677780000000  0.5697150000000 1.0
C      1  0.4404310000000  0.5965040000000  0.5216370000000 1.0
C      1  0.5439370000000  0.4500550000000  0.4324070000000 1.0
C      1  0.5735630000000  0.5959090000000  0.4573530000000 1.0
C      1  0.5668320000000  0.5189010000000  0.5538360000000 1.0
C      1  0.5116100000000  0.4433810000000  0.5785350000000 1.0
C      1  0.5051170000000  0.4795450000000  0.5001580000000 1.0
C      1  0.4993110000000  0.4697640000000  0.5297240000000 1.0
C      1  0.4878350000000  0.4049460000000  0.5557800000000 1.0
C      1  0.4509460000000  0.4588810000000  0.4485970000000 1.0
C      1  0.5347870000000  0.6030030000000  0.4507020000000 1.0
C      1  0.4466180000000  0.4192440000000  0.4510230000000 1.0
C      1  0.4741540000000  0.5314140000000  0.5468540000000 1.0
C      1  0.4090450000000  0.5466740000000  0.5194520000000 1.0
C      1  0.4813400000000  0.5525500000000  0.5992530000000 1.0
C      1  0.3971310000000  0.5018210000000  0.4981260000000 1.0
C      1  0.5066840000000  0.5261940000000  0.4104950000000 1.0
C      1  0.6052390000000  0.4893100000000  0.4837980000000 1.0
C      1  0.5060670000000  0.5342630000000  0.6044420000000 1.0
C      1  0.4301890000000  0.4701540000000  0.5591690000000 1.0
C      1  0.4748780000000  0.6212840000000  0.4824380000000 1.0
C      1  0.3997290000000  0.4853670000000  0.4699120000000 1.0
C      1  0.5691900000000  0.4390410000000  0.4517750000000 1.0
C      1  0.4996560000000  0.4997860000000  0.3902450000000 1.0
C      1  0.5106310000000  0.5535170000000  0.5474260000000 1.0
C      1  0.5262280000000  0.5902270000000  0.4280970000000 1.0
C      1  0.4343510000000  0.4610540000000  0.4226940000000 1.0
C      1  0.5254640000000  0.4410210000000  0.4666240000000 1.0
C      1  0.6148730000000  0.4624840000000  0.5114290000000 1.0
C      1  0.4838960000000  0.4650310000000  0.4800550000000 1.0
C      1  0.6148450000000  0.5333340000000  0.4650100000000 1.0
C      1  0.4300580000000  0.5580420000000  0.4536280000000 1.0
C      1  0.4692090000000  0.4626440000000  0.5564210000000 1.0
C      1  0.5193610000000  0.5998080000000  0.4729040000000 1.0
C      1  0.3971190000000  0.4786270000000  0.5215810000000 1.0
C      1  0.4900850000000  0.4201840000000  0.4680120000000 1.0
C      1  0.5428080000000  0.4673690000000  0.4617450000000 1.0
C      1  0.4336700000000  0.5526320000000  0.4246570000000 1.0
C      1  0.4375560000000  0.5305590000000  0.4710660000000 1.0
C      1  0.4708590000000  0.5786860000000  0.5032300000000 1.0
C      1  0.4305800000000  0.5087500000000  0.5701090000000 1.0
C      1  0.5683250000000  0.4767600000000  0.5897830000000 1.0
C      1  0.5328440000000  0.5628060000000  0.4674740000000 1.0
C      1  0.4649760000000  0.5417280000000  0.4330450000000 1.0
C      1  0.5397140000000  0.5481950000000  0.4072280000000 1.0
C      1  0.4898920000000  0.4762370000000  0.6086360000000 1.0
C      1  0.5428200000000  0.4172760000000  0.4520220000000 1.0
END
