TITL C-2778422-5617-677 -0.0031558055142373 125000 -588.35362376024 0 0 102 (C1) n - 1
REM
REM in /home/nfs/bkarasulu/CARBON/AIRSS/Generating-Clusters/REBO/Only-C1/SD-CG/HFTN-CG
REM
REM
REM
REM
REM
REM ./C.cell (11c1c37f851c82e70ff6c80c92926a4b)
REM
REM compiler GCC version 9.2.1 20190827 (Red Hat 9.2.1-1)
REM options -cpp -mtune=generic -march=x86-64 -g -O0 -fpre-include=/usr/include/finclude/math-vector-fortran.h
REM seed -680269657 1795991826 -1256508040 -1037007153 -2081767227 83507233 1814996053 -312205589 -761056462 -255787635 720311702 1049020364 -628023625 1445593361 400450000 -2090120068 -225588138 -1292623038 308518401 -1328824299 -1145546018 321317202 884861047 1906733042 -1051548409 1406982214 1908126624 505706985 600209029 615019788 960136295 206949686 1335844695
REM
CELL 1.54180   50.00000   50.00000   50.00000   90.00000   90.00000   90.00000
LATT -1
SFAC C  
C      1  0.5220450000000  0.5285000000000  0.4374790000000 1.0
C      1  0.5037960000000  0.4632610000000  0.5597930000000 1.0
C      1  0.4770470000000  0.4923410000000  0.5955690000000 1.0
C      1  0.5558660000000  0.5327190000000  0.4417390000000 1.0
C      1  0.5727040000000  0.5432120000000  0.4808790000000 1.0
C      1  0.4822740000000  0.5540720000000  0.4931540000000 1.0
C      1  0.5426950000000  0.4067550000000  0.4925970000000 1.0
C      1  0.5837790000000  0.4917280000000  0.4802190000000 1.0
C      1  0.4398650000000  0.5109640000000  0.4310670000000 1.0
C      1  0.5491870000000  0.4568050000000  0.4109960000000 1.0
C      1  0.4118380000000  0.5051360000000  0.5242840000000 1.0
C      1  0.4646210000000  0.4486620000000  0.4792860000000 1.0
C      1  0.5620300000000  0.4526790000000  0.5386550000000 1.0
C      1  0.4749430000000  0.5883550000000  0.5309350000000 1.0
C      1  0.4882470000000  0.5464560000000  0.5657940000000 1.0
C      1  0.5240030000000  0.5891720000000  0.4982990000000 1.0
C      1  0.4951330000000  0.5938310000000  0.5122910000000 1.0
C      1  0.5762480000000  0.5182920000000  0.5393680000000 1.0
C      1  0.5076860000000  0.5005470000000  0.5226040000000 1.0
C      1  0.4266650000000  0.4566120000000  0.5198160000000 1.0
C      1  0.5812690000000  0.5440510000000  0.5283130000000 1.0
C      1  0.4457750000000  0.5419530000000  0.5299990000000 1.0
C      1  0.5149980000000  0.5244490000000  0.4708500000000 1.0
C      1  0.5000540000000  0.4992830000000  0.5767410000000 1.0
C      1  0.5311970000000  0.4812460000000  0.4195030000000 1.0
C      1  0.5466320000000  0.5165430000000  0.4664370000000 1.0
C      1  0.4409580000000  0.4457060000000  0.5616960000000 1.0
C      1  0.5666820000000  0.5569170000000  0.5071290000000 1.0
C      1  0.5488660000000  0.5180150000000  0.5516070000000 1.0
C      1  0.5319760000000  0.5081560000000  0.5765240000000 1.0
C      1  0.4756720000000  0.5485220000000  0.5407600000000 1.0
C      1  0.4864780000000  0.4453280000000  0.5422530000000 1.0
C      1  0.5102060000000  0.4343820000000  0.4306020000000 1.0
C      1  0.4275550000000  0.5565920000000  0.4612130000000 1.0
C      1  0.4443770000000  0.5099270000000  0.5287790000000 1.0
C      1  0.4404720000000  0.4324970000000  0.5193510000000 1.0
C      1  0.5473740000000  0.4275950000000  0.5513400000000 1.0
C      1  0.4954310000000  0.4593300000000  0.4205600000000 1.0
C      1  0.4769850000000  0.5673690000000  0.4375530000000 1.0
C      1  0.4156230000000  0.5307560000000  0.4570360000000 1.0
C      1  0.4853990000000  0.5149980000000  0.4461230000000 1.0
C      1  0.5015020000000  0.5735870000000  0.4519890000000 1.0
C      1  0.4653450000000  0.5028840000000  0.4782080000000 1.0
C      1  0.4927770000000  0.5544200000000  0.5196150000000 1.0
C      1  0.5441280000000  0.5559210000000  0.4720690000000 1.0
C      1  0.4155450000000  0.5150330000000  0.4801510000000 1.0
C      1  0.4965360000000  0.5884210000000  0.4786570000000 1.0
C      1  0.5515330000000  0.3891490000000  0.5201400000000 1.0
C      1  0.5104450000000  0.4879630000000  0.4927360000000 1.0
C      1  0.5274740000000  0.5613810000000  0.5563720000000 1.0
C      1  0.5749650000000  0.3972190000000  0.4991620000000 1.0
C      1  0.5849140000000  0.4934740000000  0.5296180000000 1.0
C      1  0.4816990000000  0.5217600000000  0.4199790000000 1.0
C      1  0.4204640000000  0.5338820000000  0.5080460000000 1.0
C      1  0.5518950000000  0.4684580000000  0.4428190000000 1.0
C      1  0.4970720000000  0.4663940000000  0.4498130000000 1.0
C      1  0.4908240000000  0.4906600000000  0.5468580000000 1.0
C      1  0.5778780000000  0.4602690000000  0.4917960000000 1.0
C      1  0.4106320000000  0.4785100000000  0.5359110000000 1.0
C      1  0.5165120000000  0.4170230000000  0.4863330000000 1.0
C      1  0.5248300000000  0.5578750000000  0.4514220000000 1.0
C      1  0.5365610000000  0.4578270000000  0.5588340000000 1.0
C      1  0.4774860000000  0.5494240000000  0.4157260000000 1.0
C      1  0.5325780000000  0.4772410000000  0.5835650000000 1.0
C      1  0.5552840000000  0.4888470000000  0.4683440000000 1.0
C      1  0.5430860000000  0.5455000000000  0.5685880000000 1.0
C      1  0.5117470000000  0.4410490000000  0.4634460000000 1.0
C      1  0.4935460000000  0.4902760000000  0.4676670000000 1.0
C      1  0.4581460000000  0.4930190000000  0.5508990000000 1.0
C      1  0.5469870000000  0.4009460000000  0.5450290000000 1.0
C      1  0.4643450000000  0.4342690000000  0.5532940000000 1.0
C      1  0.5373910000000  0.5316970000000  0.4956340000000 1.0
C      1  0.5356240000000  0.4697430000000  0.4866370000000 1.0
C      1  0.5886190000000  0.5190260000000  0.4811880000000 1.0
C      1  0.4830990000000  0.4238840000000  0.4851400000000 1.0
C      1  0.4824270000000  0.5040880000000  0.3993630000000 1.0
C      1  0.4855640000000  0.5292170000000  0.4772570000000 1.0
C      1  0.5064730000000  0.5308270000000  0.5777500000000 1.0
C      1  0.5125530000000  0.4483390000000  0.4966070000000 1.0
C      1  0.5175070000000  0.5039430000000  0.4202860000000 1.0
C      1  0.5402860000000  0.5691890000000  0.5095080000000 1.0
C      1  0.5693330000000  0.4274750000000  0.4867000000000 1.0
C      1  0.5300660000000  0.5218010000000  0.5256270000000 1.0
C      1  0.5066100000000  0.4639130000000  0.5938380000000 1.0
C      1  0.4547080000000  0.4914350000000  0.5833400000000 1.0
C      1  0.5217170000000  0.5527790000000  0.5269300000000 1.0
C      1  0.4379160000000  0.4555690000000  0.4700730000000 1.0
C      1  0.4333830000000  0.4722360000000  0.5558570000000 1.0
C      1  0.4534800000000  0.5687770000000  0.4542770000000 1.0
C      1  0.4439900000000  0.5027100000000  0.4551340000000 1.0
C      1  0.4417310000000  0.4836510000000  0.5087240000000 1.0
C      1  0.4409900000000  0.5801060000000  0.4999980000000 1.0
C      1  0.5770590000000  0.4676080000000  0.5217500000000 1.0
C      1  0.5557030000000  0.4492930000000  0.4681810000000 1.0
C      1  0.4222350000000  0.5614490000000  0.4899790000000 1.0
C      1  0.4649270000000  0.5787600000000  0.4813350000000 1.0
C      1  0.4670300000000  0.4268670000000  0.5126280000000 1.0
C      1  0.4705450000000  0.4756110000000  0.4969140000000 1.0
C      1  0.4877720000000  0.4533970000000  0.5115450000000 1.0
C      1  0.4205760000000  0.4395070000000  0.4559180000000 1.0
C      1  0.4293760000000  0.4855440000000  0.4793060000000 1.0
C      1  0.4499280000000  0.5751610000000  0.5262920000000 1.0
END
