TITL C-2778430-5657-66 -0.000938494219229145 125000 -1124.22740906846 0 0 193 (C1) n - 1
REM
REM in /home/nfs/bkarasulu/CARBON/AIRSS/Generating-Clusters/REBO/Only-C1/SD-CG/HFTN-CG
REM
REM
REM
REM
REM
REM ./C.cell (11c1c37f851c82e70ff6c80c92926a4b)
REM
REM compiler GCC version 9.2.1 20190827 (Red Hat 9.2.1-1)
REM options -cpp -mtune=generic -march=x86-64 -g -O0 -fpre-include=/usr/include/finclude/math-vector-fortran.h
REM seed -1549457585 838385743 1106311654 -53715099 886518929 -1651200889 151257365 -1831002868 -1176094096 -1138999497 1640266730 -1663666914 -1262004342 -2003326883 -1220219645 1467119188 479677819 555352084 510697438 1863228574 -689180650 -1349598231 496960612 996285127 2137404550 1223475842 527856307 1723578482 956278744 659822617 -1820568135 129315638 -1084606381
REM
CELL 1.54180   50.00000   50.00000   50.00000   90.00000   90.00000   90.00000
LATT -1
SFAC C  
C      1  0.5210920000000  0.4887010000000  0.5868430000000 1.0
C      1  0.5803360000000  0.4851030000000  0.4621420000000 1.0
C      1  0.5326810000000  0.5502410000000  0.5971240000000 1.0
C      1  0.5167300000000  0.4249120000000  0.5781490000000 1.0
C      1  0.5380890000000  0.4656200000000  0.5922180000000 1.0
C      1  0.5545790000000  0.5820270000000  0.5478930000000 1.0
C      1  0.4991180000000  0.4763520000000  0.5651460000000 1.0
C      1  0.4158240000000  0.5511950000000  0.4873890000000 1.0
C      1  0.4487830000000  0.5204260000000  0.5801100000000 1.0
C      1  0.4414050000000  0.4408460000000  0.6026120000000 1.0
C      1  0.5072610000000  0.5972310000000  0.5089180000000 1.0
C      1  0.5352440000000  0.4129880000000  0.4683840000000 1.0
C      1  0.5369960000000  0.4575720000000  0.4682010000000 1.0
C      1  0.4652510000000  0.6064360000000  0.4701140000000 1.0
C      1  0.4446460000000  0.4419820000000  0.4974150000000 1.0
C      1  0.5194130000000  0.5510750000000  0.5678630000000 1.0
C      1  0.5064990000000  0.4511700000000  0.4107370000000 1.0
C      1  0.5585340000000  0.5751860000000  0.4512590000000 1.0
C      1  0.4344430000000  0.4797010000000  0.4897750000000 1.0
C      1  0.4962380000000  0.4418300000000  0.4889020000000 1.0
C      1  0.5441040000000  0.4304390000000  0.5032160000000 1.0
C      1  0.5658050000000  0.5842050000000  0.4893120000000 1.0
C      1  0.5213690000000  0.4880050000000  0.4090650000000 1.0
C      1  0.5858590000000  0.5301790000000  0.4525920000000 1.0
C      1  0.4846680000000  0.4898230000000  0.5050960000000 1.0
C      1  0.4461740000000  0.5840700000000  0.4625620000000 1.0
C      1  0.6232510000000  0.5054310000000  0.5018630000000 1.0
C      1  0.4377990000000  0.5433910000000  0.4261780000000 1.0
C      1  0.5169730000000  0.4647110000000  0.4878460000000 1.0
C      1  0.5220660000000  0.4373780000000  0.5290580000000 1.0
C      1  0.5063160000000  0.4924780000000  0.4799800000000 1.0
C      1  0.4681350000000  0.4422820000000  0.4157770000000 1.0
C      1  0.4713030000000  0.4834860000000  0.6371950000000 1.0
C      1  0.4350970000000  0.5272510000000  0.4967220000000 1.0
C      1  0.5250050000000  0.5077670000000  0.4559980000000 1.0
C      1  0.5054650000000  0.5805950000000  0.5777830000000 1.0
C      1  0.4302220000000  0.4864860000000  0.5899000000000 1.0
C      1  0.5266150000000  0.5602860000000  0.3943200000000 1.0
C      1  0.4255670000000  0.5577720000000  0.4548200000000 1.0
C      1  0.5611240000000  0.4404880000000  0.4244450000000 1.0
C      1  0.4120030000000  0.4402860000000  0.4745600000000 1.0
C      1  0.5638000000000  0.4256640000000  0.4780130000000 1.0
C      1  0.4263640000000  0.5022970000000  0.5079180000000 1.0
C      1  0.5460300000000  0.5922270000000  0.4332020000000 1.0
C      1  0.6029080000000  0.5130610000000  0.5548460000000 1.0
C      1  0.5629830000000  0.4385700000000  0.5525310000000 1.0
C      1  0.5672030000000  0.5533280000000  0.5484760000000 1.0
C      1  0.5054330000000  0.3964310000000  0.5156160000000 1.0
C      1  0.4931360000000  0.5286970000000  0.5474210000000 1.0
C      1  0.4635010000000  0.5514170000000  0.4440430000000 1.0
C      1  0.5223580000000  0.5155150000000  0.5347320000000 1.0
C      1  0.5426010000000  0.6031790000000  0.4748740000000 1.0
C      1  0.5229070000000  0.5808470000000  0.4211540000000 1.0
C      1  0.4701910000000  0.5654870000000  0.5572460000000 1.0
C      1  0.5111100000000  0.5056020000000  0.6090080000000 1.0
C      1  0.5198150000000  0.5468100000000  0.4237850000000 1.0
C      1  0.4740230000000  0.5999040000000  0.5018620000000 1.0
C      1  0.4234230000000  0.4468810000000  0.5421720000000 1.0
C      1  0.5340670000000  0.5481260000000  0.5407610000000 1.0
C      1  0.5855050000000  0.5033950000000  0.4362630000000 1.0
C      1  0.4940270000000  0.5513630000000  0.3884240000000 1.0
C      1  0.4429760000000  0.4565030000000  0.4337630000000 1.0
C      1  0.4435730000000  0.5029840000000  0.5513420000000 1.0
C      1  0.4896430000000  0.3888030000000  0.4859720000000 1.0
C      1  0.4849740000000  0.5703400000000  0.4552220000000 1.0
C      1  0.5110670000000  0.3897030000000  0.4648340000000 1.0
C      1  0.4352280000000  0.5208790000000  0.4666570000000 1.0
C      1  0.5423540000000  0.4813340000000  0.3850350000000 1.0
C      1  0.5869700000000  0.4816060000000  0.4101820000000 1.0
C      1  0.5876740000000  0.4381300000000  0.4763330000000 1.0
C      1  0.4592940000000  0.5355080000000  0.5108100000000 1.0
C      1  0.5152450000000  0.4128940000000  0.4406060000000 1.0
C      1  0.3852160000000  0.4874070000000  0.4820640000000 1.0
C      1  0.5359020000000  0.4605720000000  0.4357800000000 1.0
C      1  0.4734390000000  0.4355310000000  0.5498180000000 1.0
C      1  0.5558730000000  0.5477350000000  0.4070520000000 1.0
C      1  0.4098300000000  0.4222210000000  0.5229110000000 1.0
C      1  0.4593130000000  0.5298700000000  0.5427070000000 1.0
C      1  0.4165190000000  0.4980910000000  0.4497120000000 1.0
C      1  0.4624520000000  0.5968630000000  0.5336890000000 1.0
C      1  0.5267700000000  0.5140150000000  0.4268040000000 1.0
C      1  0.4765070000000  0.5714480000000  0.4851890000000 1.0
C      1  0.4142930000000  0.4162100000000  0.4944410000000 1.0
C      1  0.5457900000000  0.5290110000000  0.4975020000000 1.0
C      1  0.4455390000000  0.4151130000000  0.5942800000000 1.0
C      1  0.5703140000000  0.4007000000000  0.5628370000000 1.0
C      1  0.4756130000000  0.4648870000000  0.5349210000000 1.0
C      1  0.5456950000000  0.5602710000000  0.5008010000000 1.0
C      1  0.5693120000000  0.5170250000000  0.4095440000000 1.0
C      1  0.5902970000000  0.4184760000000  0.5563120000000 1.0
C      1  0.4016590000000  0.4686480000000  0.5295560000000 1.0
C      1  0.4653300000000  0.4739800000000  0.4853690000000 1.0
C      1  0.4482680000000  0.4145500000000  0.5153450000000 1.0
C      1  0.5628380000000  0.4619750000000  0.5744640000000 1.0
C      1  0.5507890000000  0.5083880000000  0.5527830000000 1.0
C      1  0.4892580000000  0.5070960000000  0.4381470000000 1.0
C      1  0.5353910000000  0.5876580000000  0.5663630000000 1.0
C      1  0.4164340000000  0.4566320000000  0.5040830000000 1.0
C      1  0.5016620000000  0.5248740000000  0.4716620000000 1.0
C      1  0.5596780000000  0.4491730000000  0.5244240000000 1.0
C      1  0.4873640000000  0.5555810000000  0.5308890000000 1.0
C      1  0.5905910000000  0.5337020000000  0.5329750000000 1.0
C      1  0.5675850000000  0.4963510000000  0.4916950000000 1.0
C      1  0.5089340000000  0.5546540000000  0.4696930000000 1.0
C      1  0.5065160000000  0.5229930000000  0.3920910000000 1.0
C      1  0.4803260000000  0.4415060000000  0.4632300000000 1.0
C      1  0.4395460000000  0.5556850000000  0.5530100000000 1.0
C      1  0.5151750000000  0.4185010000000  0.4940410000000 1.0
C      1  0.4174230000000  0.5122400000000  0.5799330000000 1.0
C      1  0.4110460000000  0.5431130000000  0.5418190000000 1.0
C      1  0.6002690000000  0.4639690000000  0.4754330000000 1.0
C      1  0.4786750000000  0.4681600000000  0.5899380000000 1.0
C      1  0.4836920000000  0.5201110000000  0.4979180000000 1.0
C      1  0.4444810000000  0.4226440000000  0.5439100000000 1.0
C      1  0.5319430000000  0.4666600000000  0.5148380000000 1.0
C      1  0.4828110000000  0.5946080000000  0.5612610000000 1.0
C      1  0.4637340000000  0.5446560000000  0.4037200000000 1.0
C      1  0.6048250000000  0.4763870000000  0.5222670000000 1.0
C      1  0.5143690000000  0.5340340000000  0.6136350000000 1.0
C      1  0.4385540000000  0.3977660000000  0.4893800000000 1.0
C      1  0.6172270000000  0.4761730000000  0.4952760000000 1.0
C      1  0.4097090000000  0.4737080000000  0.4686530000000 1.0
C      1  0.4952520000000  0.4541770000000  0.6095580000000 1.0
C      1  0.4438640000000  0.5655700000000  0.4894200000000 1.0
C      1  0.5833860000000  0.5256740000000  0.4848350000000 1.0
C      1  0.4573930000000  0.5682840000000  0.5197620000000 1.0
C      1  0.4600600000000  0.3906530000000  0.4727120000000 1.0
C      1  0.4638390000000  0.5483330000000  0.5838020000000 1.0
C      1  0.4603380000000  0.4015510000000  0.4471620000000 1.0
C      1  0.4848320000000  0.4228400000000  0.4385460000000 1.0
C      1  0.4742630000000  0.4445910000000  0.5109650000000 1.0
C      1  0.4006270000000  0.5548790000000  0.5144290000000 1.0
C      1  0.5385070000000  0.5572650000000  0.4701760000000 1.0
C      1  0.5109490000000  0.4685270000000  0.3826530000000 1.0
C      1  0.4972320000000  0.5273120000000  0.5782830000000 1.0
C      1  0.5154880000000  0.6060430000000  0.4794110000000 1.0
C      1  0.5480670000000  0.5262420000000  0.4646740000000 1.0
C      1  0.5679280000000  0.4917450000000  0.3882650000000 1.0
C      1  0.4471800000000  0.5151760000000  0.4092180000000 1.0
C      1  0.5208200000000  0.4444090000000  0.6004530000000 1.0
C      1  0.4911610000000  0.5383690000000  0.4319990000000 1.0
C      1  0.4752380000000  0.5111760000000  0.5925370000000 1.0
C      1  0.3793930000000  0.4762460000000  0.5066160000000 1.0
C      1  0.4932250000000  0.5556830000000  0.5974440000000 1.0
C      1  0.4148840000000  0.4952370000000  0.5349100000000 1.0
C      1  0.5605620000000  0.4801760000000  0.5487520000000 1.0
C      1  0.5872240000000  0.4544920000000  0.4137720000000 1.0
C      1  0.4562940000000  0.4067490000000  0.5706270000000 1.0
C      1  0.5747100000000  0.4773450000000  0.5190420000000 1.0
C      1  0.5142220000000  0.4070260000000  0.5427810000000 1.0
C      1  0.5413840000000  0.4137300000000  0.5609240000000 1.0
C      1  0.5769890000000  0.5198200000000  0.5679250000000 1.0
C      1  0.3819620000000  0.5128630000000  0.4713590000000 1.0
C      1  0.4352680000000  0.4878500000000  0.4257180000000 1.0
C      1  0.4053990000000  0.5299810000000  0.4551780000000 1.0
C      1  0.5012720000000  0.4765220000000  0.4329250000000 1.0
C      1  0.4945890000000  0.5512480000000  0.5007750000000 1.0
C      1  0.6148160000000  0.4897930000000  0.5449190000000 1.0
C      1  0.5284090000000  0.4315040000000  0.4208310000000 1.0
C      1  0.5261260000000  0.5746360000000  0.5209010000000 1.0
C      1  0.5869640000000  0.4641130000000  0.5888180000000 1.0
C      1  0.4461220000000  0.4721670000000  0.5444220000000 1.0
C      1  0.5605690000000  0.5454580000000  0.4391060000000 1.0
C      1  0.4795850000000  0.4717580000000  0.4541900000000 1.0
C      1  0.5651750000000  0.4605020000000  0.4520460000000 1.0
C      1  0.4869230000000  0.5079020000000  0.4064360000000 1.0
C      1  0.5042020000000  0.4451130000000  0.5548590000000 1.0
C      1  0.5757920000000  0.5470790000000  0.5788660000000 1.0
C      1  0.4963340000000  0.5920530000000  0.4333830000000 1.0
C      1  0.5554690000000  0.5933830000000  0.5201310000000 1.0
C      1  0.4637150000000  0.5212860000000  0.4552200000000 1.0
C      1  0.5380720000000  0.4977500000000  0.5093390000000 1.0
C      1  0.4480670000000  0.4504410000000  0.4661800000000 1.0
C      1  0.4010300000000  0.5801230000000  0.5304270000000 1.0
C      1  0.4936400000000  0.6088490000000  0.4603270000000 1.0
C      1  0.4654800000000  0.4895220000000  0.3961920000000 1.0
C      1  0.4991250000000  0.4896100000000  0.5350550000000 1.0
C      1  0.4892400000000  0.4096690000000  0.5651300000000 1.0
C      1  0.4501760000000  0.4667130000000  0.5942350000000 1.0
C      1  0.4782670000000  0.4114750000000  0.5076600000000 1.0
C      1  0.5611310000000  0.5234180000000  0.5255530000000 1.0
C      1  0.4827460000000  0.4970110000000  0.6172750000000 1.0
C      1  0.4065330000000  0.5177890000000  0.5540860000000 1.0
C      1  0.5596630000000  0.5558870000000  0.5994820000000 1.0
C      1  0.5378560000000  0.5219370000000  0.3960310000000 1.0
C      1  0.4456720000000  0.4225350000000  0.4311160000000 1.0
C      1  0.6048180000000  0.5255470000000  0.5061590000000 1.0
C      1  0.4854050000000  0.5682300000000  0.4153910000000 1.0
C      1  0.4790860000000  0.4621480000000  0.3935630000000 1.0
C      1  0.4196690000000  0.5811060000000  0.5506410000000 1.0
C      1  0.4555440000000  0.4904950000000  0.4505500000000 1.0
C      1  0.4932140000000  0.6115120000000  0.5343700000000 1.0
C      1  0.5783240000000  0.5571860000000  0.4727510000000 1.0
END
