TITL C-2778435-5768-1323 -0.00354142535721759 125000 -499.634571085131 0 0 86 (C1) n - 1
REM
REM in /home/nfs/bkarasulu/CARBON/AIRSS/Generating-Clusters/REBO/Only-C1/SD-CG/HFTN-CG
REM
REM
REM
REM
REM
REM ./C.cell (11c1c37f851c82e70ff6c80c92926a4b)
REM
REM compiler GCC version 9.2.1 20190827 (Red Hat 9.2.1-1)
REM options -cpp -mtune=generic -march=x86-64 -g -O0 -fpre-include=/usr/include/finclude/math-vector-fortran.h
REM seed -300269387 -353641462 -722701032 901398135 -946114140 -2051813927 -239559613 1997827364 -1146170785 -1073584883 1826018902 966091918 1119864339 -561558185 622863155 -1681639862 -427412983 -1632720784 1880294035 -769260341 368909586 -745637380 692454563 -1487983546 -926360086 -364111380 187700891 661033601 104689989 1461583702 20349137 -1288387581 630533574
REM
CELL 1.54180   50.00000   50.00000   50.00000   90.00000   90.00000   90.00000
LATT -1
SFAC C  
C      1  0.4828190000000  0.5209890000000  0.4990480000000 1.0
C      1  0.5246200000000  0.4407310000000  0.5557180000000 1.0
C      1  0.4010440000000  0.5444350000000  0.5195390000000 1.0
C      1  0.5394120000000  0.4780610000000  0.4907880000000 1.0
C      1  0.5360850000000  0.4353550000000  0.5308900000000 1.0
C      1  0.5172610000000  0.5247030000000  0.4442780000000 1.0
C      1  0.4268150000000  0.4731290000000  0.5808430000000 1.0
C      1  0.4951240000000  0.5474780000000  0.5639000000000 1.0
C      1  0.4831350000000  0.4583230000000  0.5762940000000 1.0
C      1  0.5081570000000  0.4300940000000  0.4870810000000 1.0
C      1  0.5149090000000  0.5408520000000  0.5372390000000 1.0
C      1  0.4603260000000  0.5271730000000  0.5214750000000 1.0
C      1  0.5656420000000  0.5359410000000  0.4571820000000 1.0
C      1  0.4805890000000  0.4562940000000  0.4308630000000 1.0
C      1  0.4397420000000  0.5706310000000  0.5039580000000 1.0
C      1  0.5128240000000  0.4707160000000  0.5687720000000 1.0
C      1  0.4785470000000  0.5238740000000  0.4256110000000 1.0
C      1  0.4995840000000  0.5486010000000  0.4367240000000 1.0
C      1  0.4808760000000  0.4278260000000  0.5371900000000 1.0
C      1  0.4836370000000  0.5079120000000  0.5366590000000 1.0
C      1  0.4440610000000  0.5667510000000  0.4770120000000 1.0
C      1  0.5574800000000  0.5499940000000  0.5180350000000 1.0
C      1  0.5382540000000  0.4248080000000  0.4789070000000 1.0
C      1  0.5769150000000  0.5066510000000  0.5284820000000 1.0
C      1  0.5065950000000  0.4495510000000  0.4313280000000 1.0
C      1  0.4338850000000  0.5006180000000  0.5078890000000 1.0
C      1  0.5496370000000  0.5174670000000  0.4366740000000 1.0
C      1  0.4449520000000  0.4424040000000  0.4814230000000 1.0
C      1  0.4273150000000  0.4372870000000  0.5019820000000 1.0
C      1  0.5332680000000  0.5280910000000  0.4714850000000 1.0
C      1  0.5524120000000  0.5682520000000  0.4985310000000 1.0
C      1  0.5082880000000  0.4766740000000  0.5157320000000 1.0
C      1  0.4085900000000  0.5217580000000  0.5056100000000 1.0
C      1  0.5306260000000  0.4674340000000  0.4389920000000 1.0
C      1  0.4885870000000  0.5627700000000  0.5344130000000 1.0
C      1  0.5531580000000  0.4241480000000  0.5092440000000 1.0
C      1  0.4341230000000  0.5215650000000  0.4549030000000 1.0
C      1  0.4949420000000  0.4364010000000  0.5593470000000 1.0
C      1  0.5478380000000  0.5583050000000  0.4735300000000 1.0
C      1  0.4582300000000  0.4730300000000  0.4478800000000 1.0
C      1  0.5725030000000  0.4888850000000  0.4709340000000 1.0
C      1  0.4586130000000  0.5565560000000  0.5285240000000 1.0
C      1  0.5103750000000  0.5163560000000  0.5167010000000 1.0
C      1  0.5666780000000  0.4326280000000  0.4614850000000 1.0
C      1  0.5168340000000  0.5022040000000  0.5720010000000 1.0
C      1  0.4720780000000  0.4853720000000  0.4178000000000 1.0
C      1  0.5407430000000  0.5155300000000  0.5675950000000 1.0
C      1  0.4666730000000  0.5530260000000  0.4353460000000 1.0
C      1  0.5710500000000  0.4693680000000  0.4960180000000 1.0
C      1  0.4775820000000  0.4374700000000  0.4781070000000 1.0
C      1  0.5166810000000  0.5870300000000  0.4936550000000 1.0
C      1  0.5616460000000  0.4534320000000  0.5639340000000 1.0
C      1  0.4637320000000  0.4451470000000  0.5165170000000 1.0
C      1  0.5242910000000  0.4969420000000  0.4266120000000 1.0
C      1  0.5011620000000  0.5669140000000  0.5056600000000 1.0
C      1  0.4572060000000  0.4651290000000  0.5778930000000 1.0
C      1  0.5765030000000  0.5164070000000  0.4785430000000 1.0
C      1  0.5642850000000  0.5222570000000  0.5062360000000 1.0
C      1  0.5447700000000  0.5421360000000  0.5461490000000 1.0
C      1  0.4887510000000  0.4883190000000  0.4981450000000 1.0
C      1  0.4730450000000  0.5604710000000  0.4674220000000 1.0
C      1  0.5571930000000  0.4873890000000  0.4466100000000 1.0
C      1  0.4832380000000  0.4192590000000  0.5055380000000 1.0
C      1  0.5133820000000  0.5747400000000  0.4445860000000 1.0
C      1  0.4387270000000  0.5493570000000  0.4512410000000 1.0
C      1  0.5422030000000  0.4560640000000  0.4660160000000 1.0
C      1  0.4679600000000  0.4684240000000  0.4843180000000 1.0
C      1  0.5238960000000  0.4511900000000  0.5051430000000 1.0
C      1  0.5542190000000  0.4689000000000  0.5427320000000 1.0
C      1  0.4532300000000  0.5051580000000  0.4385840000000 1.0
C      1  0.4274340000000  0.4523150000000  0.5282280000000 1.0
C      1  0.4892580000000  0.5488260000000  0.4869690000000 1.0
C      1  0.5683500000000  0.5184060000000  0.5527770000000 1.0
C      1  0.4942670000000  0.5170180000000  0.5636860000000 1.0
C      1  0.4402530000000  0.4739220000000  0.5497450000000 1.0
C      1  0.4977650000000  0.5022970000000  0.4111490000000 1.0
C      1  0.4354750000000  0.5642580000000  0.5523520000000 1.0
C      1  0.5736320000000  0.4792900000000  0.5248160000000 1.0
C      1  0.4506710000000  0.4989060000000  0.5367260000000 1.0
C      1  0.4241280000000  0.5138690000000  0.4790070000000 1.0
C      1  0.5203810000000  0.5888370000000  0.4665210000000 1.0
C      1  0.4196810000000  0.5649060000000  0.5259560000000 1.0
C      1  0.5264150000000  0.4772500000000  0.5399190000000 1.0
C      1  0.4455130000000  0.4723100000000  0.5076620000000 1.0
C      1  0.5728580000000  0.4396570000000  0.4917800000000 1.0
C      1  0.5343660000000  0.5087920000000  0.4972130000000 1.0
END
