TITL C-2778429-3646-783 0.00194179419247766 125000 -326.610794887474 0 0 57 (C1) n - 1
REM
REM in /home/nfs/bkarasulu/CARBON/AIRSS/Generating-Clusters/REBO/Only-C1/SD-CG/HFTN-CG
REM
REM
REM
REM
REM
REM ./C.cell (11c1c37f851c82e70ff6c80c92926a4b)
REM
REM compiler GCC version 9.2.1 20190827 (Red Hat 9.2.1-1)
REM options -cpp -mtune=generic -march=x86-64 -g -O0 -fpre-include=/usr/include/finclude/math-vector-fortran.h
REM seed -747290780 1231774935 946526469 -1766105624 2050707541 325184022 -779208849 -1920704548 -827248624 -1801999984 -1628083436 1387650086 -665847801 1868189904 -2122372093 13677022 1886936772 1393988028 1420476389 -147537190 986688286 1056101320 1261332313 385112441 1110871947 1177004166 1805522476 1625099631 -234050255 -1095020838 905263884 -1205029416 -2038577486
REM
CELL 1.54180   50.00000   50.00000   50.00000   90.00000   90.00000   90.00000
LATT -1
SFAC C  
C      1  0.5039520000000  0.5214520000000  0.4834370000000 1.0
C      1  0.4697170000000  0.4734670000000  0.5432190000000 1.0
C      1  0.4621090000000  0.4478730000000  0.4740770000000 1.0
C      1  0.5642120000000  0.4612320000000  0.4885680000000 1.0
C      1  0.4563050000000  0.5397770000000  0.4697870000000 1.0
C      1  0.4907550000000  0.4946470000000  0.5268780000000 1.0
C      1  0.5619520000000  0.4994160000000  0.4590450000000 1.0
C      1  0.5162860000000  0.4938620000000  0.5429250000000 1.0
C      1  0.5743230000000  0.4936920000000  0.4879180000000 1.0
C      1  0.5150420000000  0.4724720000000  0.5602710000000 1.0
C      1  0.5680680000000  0.5196510000000  0.5063520000000 1.0
C      1  0.4554410000000  0.5043170000000  0.5424360000000 1.0
C      1  0.5035250000000  0.4333890000000  0.5336370000000 1.0
C      1  0.5476930000000  0.5310590000000  0.5265880000000 1.0
C      1  0.5078420000000  0.4142200000000  0.4883090000000 1.0
C      1  0.5643110000000  0.5524900000000  0.4660280000000 1.0
C      1  0.5016920000000  0.5708130000000  0.5116770000000 1.0
C      1  0.4905040000000  0.4222840000000  0.5097980000000 1.0
C      1  0.5478540000000  0.4491750000000  0.5154700000000 1.0
C      1  0.4640560000000  0.5128930000000  0.4854500000000 1.0
C      1  0.4672590000000  0.4352690000000  0.5002750000000 1.0
C      1  0.5401220000000  0.4794420000000  0.5025270000000 1.0
C      1  0.5320740000000  0.4340100000000  0.5304290000000 1.0
C      1  0.5332980000000  0.5375480000000  0.4458200000000 1.0
C      1  0.5327860000000  0.5100430000000  0.4904940000000 1.0
C      1  0.4405480000000  0.4669270000000  0.4776680000000 1.0
C      1  0.5424200000000  0.4817360000000  0.4491530000000 1.0
C      1  0.4925870000000  0.5952390000000  0.5209050000000 1.0
C      1  0.4941160000000  0.4540890000000  0.5519930000000 1.0
C      1  0.4557460000000  0.5679250000000  0.6162650000000 1.0
C      1  0.5182660000000  0.5674520000000  0.4887230000000 1.0
C      1  0.5379240000000  0.4587070000000  0.4685050000000 1.0
C      1  0.4832400000000  0.4880240000000  0.4769330000000 1.0
C      1  0.4909250000000  0.5293980000000  0.4332480000000 1.0
C      1  0.4560340000000  0.4566410000000  0.5198540000000 1.0
C      1  0.4390470000000  0.4978700000000  0.4918340000000 1.0
C      1  0.5172690000000  0.5189480000000  0.4300240000000 1.0
C      1  0.4654250000000  0.5424760000000  0.5709830000000 1.0
C      1  0.5266860000000  0.5476910000000  0.5324620000000 1.0
C      1  0.4538880000000  0.5625380000000  0.4860470000000 1.0
C      1  0.4851690000000  0.4509620000000  0.4566850000000 1.0
C      1  0.4840400000000  0.4709770000000  0.5061860000000 1.0
C      1  0.4932160000000  0.5440890000000  0.5276550000000 1.0
C      1  0.4359620000000  0.5367610000000  0.4506730000000 1.0
C      1  0.5374630000000  0.5015550000000  0.5243700000000 1.0
C      1  0.5578530000000  0.5277030000000  0.4757480000000 1.0
C      1  0.5184190000000  0.4908560000000  0.4370760000000 1.0
C      1  0.4863870000000  0.5192800000000  0.5099830000000 1.0
C      1  0.5123290000000  0.4370210000000  0.4681440000000 1.0
C      1  0.4325040000000  0.5011660000000  0.5245200000000 1.0
C      1  0.4850800000000  0.5340540000000  0.4593760000000 1.0
C      1  0.5088950000000  0.4666540000000  0.4845440000000 1.0
C      1  0.5222050000000  0.5453050000000  0.4713780000000 1.0
C      1  0.4939590000000  0.4785320000000  0.4469440000000 1.0
C      1  0.4605470000000  0.5553030000000  0.5938060000000 1.0
C      1  0.4705590000000  0.5289780000000  0.5469670000000 1.0
C      1  0.4301160000000  0.4706480000000  0.5099330000000 1.0
END
