TITL C-2778426-5645-324 0.000843831975826475 125000 -511.801794405199 0 0 90 (C1) n - 1
REM
REM in /home/nfs/bkarasulu/CARBON/AIRSS/Generating-Clusters/REBO/Only-C1/SD-CG/HFTN-CG
REM
REM
REM
REM
REM
REM ./C.cell (11c1c37f851c82e70ff6c80c92926a4b)
REM
REM compiler GCC version 9.2.1 20190827 (Red Hat 9.2.1-1)
REM options -cpp -mtune=generic -march=x86-64 -g -O0 -fpre-include=/usr/include/finclude/math-vector-fortran.h
REM seed 1016820446 -1375942396 -1628618652 -1260474603 -1834025174 1752901411 840433900 1630802383 -81209587 -544580503 -83388090 1690828301 1317686994 -325206927 1863821312 1797775486 -2050348099 -1856983188 -732160339 165837022 -772568401 -53446919 -80610327 1579088648 -1504067145 1948967373 771443617 822333472 1810881896 -1724464831 1719913840 1943982720 -1053569905
REM
CELL 1.54180   50.00000   50.00000   50.00000   90.00000   90.00000   90.00000
LATT -1
SFAC C  
C      1  0.5063760000000  0.5121190000000  0.5198550000000 1.0
C      1  0.4787370000000  0.5530150000000  0.4339720000000 1.0
C      1  0.4910420000000  0.5664390000000  0.4822720000000 1.0
C      1  0.4762780000000  0.4817020000000  0.4205230000000 1.0
C      1  0.5860950000000  0.5043020000000  0.5088540000000 1.0
C      1  0.5446330000000  0.4458640000000  0.4482040000000 1.0
C      1  0.5751590000000  0.4678680000000  0.5435350000000 1.0
C      1  0.4437060000000  0.5445080000000  0.5290420000000 1.0
C      1  0.5154560000000  0.4516580000000  0.4745980000000 1.0
C      1  0.5300590000000  0.5114460000000  0.5976760000000 1.0
C      1  0.5875950000000  0.5715470000000  0.5495680000000 1.0
C      1  0.4516110000000  0.5271690000000  0.5735800000000 1.0
C      1  0.4630470000000  0.5237280000000  0.4943640000000 1.0
C      1  0.4939800000000  0.5301070000000  0.4526360000000 1.0
C      1  0.4463760000000  0.5128120000000  0.4435170000000 1.0
C      1  0.4319800000000  0.4924510000000  0.5412340000000 1.0
C      1  0.5401350000000  0.5639790000000  0.4408350000000 1.0
C      1  0.5721770000000  0.5178340000000  0.4544790000000 1.0
C      1  0.5527380000000  0.4590800000000  0.5286600000000 1.0
C      1  0.5262660000000  0.5179890000000  0.4310230000000 1.0
C      1  0.4098730000000  0.5078960000000  0.5248240000000 1.0
C      1  0.5954690000000  0.4811170000000  0.5287570000000 1.0
C      1  0.4268680000000  0.4845760000000  0.4828810000000 1.0
C      1  0.5091740000000  0.5589620000000  0.5406880000000 1.0
C      1  0.4055370000000  0.5369570000000  0.5225760000000 1.0
C      1  0.4625310000000  0.4434050000000  0.4862180000000 1.0
C      1  0.4737870000000  0.5137210000000  0.4306390000000 1.0
C      1  0.4898760000000  0.5046920000000  0.4720800000000 1.0
C      1  0.4759040000000  0.4826310000000  0.4554280000000 1.0
C      1  0.4399970000000  0.5216100000000  0.4754910000000 1.0
C      1  0.4604810000000  0.4736450000000  0.5408600000000 1.0
C      1  0.5059830000000  0.4710900000000  0.4500340000000 1.0
C      1  0.4633750000000  0.4447540000000  0.4580910000000 1.0
C      1  0.4945820000000  0.5282100000000  0.5438000000000 1.0
C      1  0.5747050000000  0.4578290000000  0.4850220000000 1.0
C      1  0.4814290000000  0.4251210000000  0.5054730000000 1.0
C      1  0.5160460000000  0.4965630000000  0.4911760000000 1.0
C      1  0.4627580000000  0.5411080000000  0.5489020000000 1.0
C      1  0.4834530000000  0.5653330000000  0.5528680000000 1.0
C      1  0.5666170000000  0.5479350000000  0.5492760000000 1.0
C      1  0.4732230000000  0.5184670000000  0.5883950000000 1.0
C      1  0.5482470000000  0.5270820000000  0.5492830000000 1.0
C      1  0.4404060000000  0.4754190000000  0.5130370000000 1.0
C      1  0.4786750000000  0.4661730000000  0.5060610000000 1.0
C      1  0.5278860000000  0.5711430000000  0.5254760000000 1.0
C      1  0.5104980000000  0.4679950000000  0.5019960000000 1.0
C      1  0.5388880000000  0.5188090000000  0.5236910000000 1.0
C      1  0.4145840000000  0.5134690000000  0.4917740000000 1.0
C      1  0.5106190000000  0.4198670000000  0.5199200000000 1.0
C      1  0.4701870000000  0.5510240000000  0.4999120000000 1.0
C      1  0.5043780000000  0.4984160000000  0.4300480000000 1.0
C      1  0.5943160000000  0.4757290000000  0.4964180000000 1.0
C      1  0.5466070000000  0.5594290000000  0.4730560000000 1.0
C      1  0.4612850000000  0.4439790000000  0.5256680000000 1.0
C      1  0.5610270000000  0.5735620000000  0.5285730000000 1.0
C      1  0.5141770000000  0.5507820000000  0.4681850000000 1.0
C      1  0.5329960000000  0.5248660000000  0.4583600000000 1.0
C      1  0.5382130000000  0.5177340000000  0.5735670000000 1.0
C      1  0.5401280000000  0.5074860000000  0.4796180000000 1.0
C      1  0.5688910000000  0.4907740000000  0.4497900000000 1.0
C      1  0.4417070000000  0.5649810000000  0.4947550000000 1.0
C      1  0.4789630000000  0.4989290000000  0.5043500000000 1.0
C      1  0.4344240000000  0.4425660000000  0.5046530000000 1.0
C      1  0.4817300000000  0.4444100000000  0.4328130000000 1.0
C      1  0.5577740000000  0.4451270000000  0.5041750000000 1.0
C      1  0.4192380000000  0.5476390000000  0.4976350000000 1.0
C      1  0.4549720000000  0.5636890000000  0.4461010000000 1.0
C      1  0.4320660000000  0.5088380000000  0.5678700000000 1.0
C      1  0.5278910000000  0.4715730000000  0.5954070000000 1.0
C      1  0.5467320000000  0.5745230000000  0.4989260000000 1.0
C      1  0.5234720000000  0.4215280000000  0.4597780000000 1.0
C      1  0.5614040000000  0.5186930000000  0.5013760000000 1.0
C      1  0.4129970000000  0.4581130000000  0.4899560000000 1.0
C      1  0.5067570000000  0.4126790000000  0.4866810000000 1.0
C      1  0.4421160000000  0.4832220000000  0.4565890000000 1.0
C      1  0.5672880000000  0.5361180000000  0.4750900000000 1.0
C      1  0.5078060000000  0.4282070000000  0.5485610000000 1.0
C      1  0.4519430000000  0.4615480000000  0.4318940000000 1.0
C      1  0.5129300000000  0.4422710000000  0.4358460000000 1.0
C      1  0.5021520000000  0.4106790000000  0.5689670000000 1.0
C      1  0.5325930000000  0.4323460000000  0.4969100000000 1.0
C      1  0.4940380000000  0.5077420000000  0.5682430000000 1.0
C      1  0.4353400000000  0.5431240000000  0.4497170000000 1.0
C      1  0.4613100000000  0.5768220000000  0.4713730000000 1.0
C      1  0.5250590000000  0.4658500000000  0.5290830000000 1.0
C      1  0.5100430000000  0.4816440000000  0.5800570000000 1.0
C      1  0.5327740000000  0.5451970000000  0.4218060000000 1.0
C      1  0.5639170000000  0.4636700000000  0.4584410000000 1.0
C      1  0.4851200000000  0.4769880000000  0.5571030000000 1.0
C      1  0.5083220000000  0.4563110000000  0.5495060000000 1.0
END
