TITL C-2778433-5640-1343 0.268875479507038 125000 -464.454895793979 0 0 79 (C1) n - 1
REM
REM in /home/nfs/bkarasulu/CARBON/AIRSS/Generating-Clusters/REBO/Only-C1/SD-CG/HFTN-CG
REM
REM
REM
REM
REM
REM ./C.cell (11c1c37f851c82e70ff6c80c92926a4b)
REM
REM compiler GCC version 9.2.1 20190827 (Red Hat 9.2.1-1)
REM options -cpp -mtune=generic -march=x86-64 -g -O0 -fpre-include=/usr/include/finclude/math-vector-fortran.h
REM seed -1723512101 1505314530 -373342541 1807148169 1868237853 2020755970 -1581245927 -1530641307 -317078679 2019142703 230677651 -580909646 -1188805109 -1683876013 1688938386 -663889079 924744329 88091805 -2069458392 -886033362 -1583224550 -1246975217 814106949 837344548 1857955945 1056356749 -903577795 -343145896 793542930 -502447939 1775910063 1289635906 108975198
REM
CELL 1.54180   50.00000   50.00000   50.00000   90.00000   90.00000   90.00000
LATT -1
SFAC C  
C      1  0.4136910000000  0.5137050000000  0.4196570000000 1.0
C      1  0.4945700000000  0.5398220000000  0.4434480000000 1.0
C      1  0.4678990000000  0.5681650000000  0.5483610000000 1.0
C      1  0.4778940000000  0.5476570000000  0.4667150000000 1.0
C      1  0.4603310000000  0.5621500000000  0.5230270000000 1.0
C      1  0.5349580000000  0.4339970000000  0.5309340000000 1.0
C      1  0.4326610000000  0.5322960000000  0.5196360000000 1.0
C      1  0.5169990000000  0.4668170000000  0.5753150000000 1.0
C      1  0.5587140000000  0.4481010000000  0.5279130000000 1.0
C      1  0.4850670000000  0.4898470000000  0.5212280000000 1.0
C      1  0.4457080000000  0.5380030000000  0.5768610000000 1.0
C      1  0.5543100000000  0.4953900000000  0.4290790000000 1.0
C      1  0.5815570000000  0.4180430000000  0.4720220000000 1.0
C      1  0.4530890000000  0.4819320000000  0.5604300000000 1.0
C      1  0.4738740000000  0.4770910000000  0.4352990000000 1.0
C      1  0.4311120000000  0.5566620000000  0.4963870000000 1.0
C      1  0.4167530000000  0.5083250000000  0.5081700000000 1.0
C      1  0.4146830000000  0.4856540000000  0.4993150000000 1.0
C      1  0.4315910000000  0.5299660000000  0.5492810000000 1.0
C      1  0.5220820000000  0.5574440000000  0.4963790000000 1.0
C      1  0.4459880000000  0.4546130000000  0.5177900000000 1.0
C      1  0.4187800000000  0.5358420000000  0.4792400000000 1.0
C      1  0.4328180000000  0.4840650000000  0.4638750000000 1.0
C      1  0.4367610000000  0.5165320000000  0.4692660000000 1.0
C      1  0.4928730000000  0.4545640000000  0.5739780000000 1.0
C      1  0.5276440000000  0.5011440000000  0.4265130000000 1.0
C      1  0.5132000000000  0.4121810000000  0.5370800000000 1.0
C      1  0.5614090000000  0.4905390000000  0.4580500000000 1.0
C      1  0.5857550000000  0.4425190000000  0.5343580000000 1.0
C      1  0.5089690000000  0.4754630000000  0.5140190000000 1.0
C      1  0.4827770000000  0.4966560000000  0.4690310000000 1.0
C      1  0.5346260000000  0.5356570000000  0.4771250000000 1.0
C      1  0.5469210000000  0.5604050000000  0.5191930000000 1.0
C      1  0.4640610000000  0.5027020000000  0.4265700000000 1.0
C      1  0.4360520000000  0.5062130000000  0.4381880000000 1.0
C      1  0.4953780000000  0.5666200000000  0.4862770000000 1.0
C      1  0.4619920000000  0.4709970000000  0.4632270000000 1.0
C      1  0.5663310000000  0.5400540000000  0.5168130000000 1.0
C      1  0.5642050000000  0.4390720000000  0.4724020000000 1.0
C      1  0.5229290000000  0.5410450000000  0.4482060000000 1.0
C      1  0.5870710000000  0.4791280000000  0.5009450000000 1.0
C      1  0.4334930000000  0.4612740000000  0.4892630000000 1.0
C      1  0.5754230000000  0.5038370000000  0.4835650000000 1.0
C      1  0.5097350000000  0.4482200000000  0.5209780000000 1.0
C      1  0.4645720000000  0.5327590000000  0.5090610000000 1.0
C      1  0.4600560000000  0.4782920000000  0.5303340000000 1.0
C      1  0.5409190000000  0.5439940000000  0.4273080000000 1.0
C      1  0.5557180000000  0.5091950000000  0.5559390000000 1.0
C      1  0.5739290000000  0.4656240000000  0.4734110000000 1.0
C      1  0.4638010000000  0.4468260000000  0.4831410000000 1.0
C      1  0.5008650000000  0.4734760000000  0.4360550000000 1.0
C      1  0.5570040000000  0.4718860000000  0.5115530000000 1.0
C      1  0.5242600000000  0.5133970000000  0.5520410000000 1.0
C      1  0.4434410000000  0.5067140000000  0.5683450000000 1.0
C      1  0.5164610000000  0.5568890000000  0.5298460000000 1.0
C      1  0.4567510000000  0.5697080000000  0.4780920000000 1.0
C      1  0.5076470000000  0.5292710000000  0.5373130000000 1.0
C      1  0.5059420000000  0.5781100000000  0.5443170000000 1.0
C      1  0.4450070000000  0.5862570000000  0.5053980000000 1.0
C      1  0.5340400000000  0.4873160000000  0.5680380000000 1.0
C      1  0.5338080000000  0.4851830000000  0.5030920000000 1.0
C      1  0.4627320000000  0.5601560000000  0.5740540000000 1.0
C      1  0.5359420000000  0.5019810000000  0.4774980000000 1.0
C      1  0.4783790000000  0.5879090000000  0.4985630000000 1.0
C      1  0.4619100000000  0.4390800000000  0.5377610000000 1.0
C      1  0.4853140000000  0.5221360000000  0.4224620000000 1.0
C      1  0.4855330000000  0.4327230000000  0.4931760000000 1.0
C      1  0.5364480000000  0.4346760000000  0.4742500000000 1.0
C      1  0.5139460000000  0.4955510000000  0.4564390000000 1.0
C      1  0.5083220000000  0.5115510000000  0.4088020000000 1.0
C      1  0.6052080000000  0.4629670000000  0.5182890000000 1.0
C      1  0.4673820000000  0.4545640000000  0.5616210000000 1.0
C      1  0.5633440000000  0.5274120000000  0.4916430000000 1.0
C      1  0.6179750000000  0.4414160000000  0.5388550000000 1.0
C      1  0.5727830000000  0.5244120000000  0.5397660000000 1.0
C      1  0.5105950000000  0.4318170000000  0.4807810000000 1.0
C      1  0.4862750000000  0.5180600000000  0.5239450000000 1.0
C      1  0.4851550000000  0.4263110000000  0.5243760000000 1.0
C      1  0.4658020000000  0.5219730000000  0.4790230000000 1.0
END
