TITL C-2778423-5760-198 0.393081862368207 125000 -717.17864778389 0 0 121 (C1) n - 1
REM
REM in /home/nfs/bkarasulu/CARBON/AIRSS/Generating-Clusters/REBO/Only-C1/SD-CG/HFTN-CG
REM
REM
REM
REM
REM
REM ./C.cell (11c1c37f851c82e70ff6c80c92926a4b)
REM
REM compiler GCC version 9.2.1 20190827 (Red Hat 9.2.1-1)
REM options -cpp -mtune=generic -march=x86-64 -g -O0 -fpre-include=/usr/include/finclude/math-vector-fortran.h
REM seed -649421697 -1409403622 1949244344 879877898 -42808631 2075806655 -1761731205 94001941 522220895 1208767136 1590654490 507042391 887331308 -2023998479 -1682558148 -1008023755 162344291 -1376294300 -1082689696 274098998 -1967090436 879050407 -438492138 5503221 -457691839 183367655 -1127559730 893841278 -1890354375 -2089053816 684350496 1081628163 615184329
REM
CELL 1.54180   50.00000   50.00000   50.00000   90.00000   90.00000   90.00000
LATT -1
SFAC C  
C      1  0.5297920000000  0.5261910000000  0.4855730000000 1.0
C      1  0.5883270000000  0.4425730000000  0.4953910000000 1.0
C      1  0.4254990000000  0.4914520000000  0.4347160000000 1.0
C      1  0.4765380000000  0.5579340000000  0.5127880000000 1.0
C      1  0.5530040000000  0.4677300000000  0.5312970000000 1.0
C      1  0.4613690000000  0.4615310000000  0.5847580000000 1.0
C      1  0.5116570000000  0.5520740000000  0.4405900000000 1.0
C      1  0.5709010000000  0.4442720000000  0.4704270000000 1.0
C      1  0.4665730000000  0.5103390000000  0.4220540000000 1.0
C      1  0.5261390000000  0.5532910000000  0.4987420000000 1.0
C      1  0.4910110000000  0.5124720000000  0.4103520000000 1.0
C      1  0.5259130000000  0.5022910000000  0.5034680000000 1.0
C      1  0.5562090000000  0.4486220000000  0.5592670000000 1.0
C      1  0.5771630000000  0.4691870000000  0.4527040000000 1.0
C      1  0.4771250000000  0.5362710000000  0.5293730000000 1.0
C      1  0.4789810000000  0.5400060000000  0.4718790000000 1.0
C      1  0.5729070000000  0.5177290000000  0.4606400000000 1.0
C      1  0.4255820000000  0.5015050000000  0.4867020000000 1.0
C      1  0.4313710000000  0.5504960000000  0.4868700000000 1.0
C      1  0.5298720000000  0.4834510000000  0.4524320000000 1.0
C      1  0.4666940000000  0.5641620000000  0.4745920000000 1.0
C      1  0.5310310000000  0.5055970000000  0.5875480000000 1.0
C      1  0.4984610000000  0.4941380000000  0.5190580000000 1.0
C      1  0.5444610000000  0.4807400000000  0.5863980000000 1.0
C      1  0.4444640000000  0.4929280000000  0.4138650000000 1.0
C      1  0.5442050000000  0.4957430000000  0.4259880000000 1.0
C      1  0.4998220000000  0.5860840000000  0.4786300000000 1.0
C      1  0.5282530000000  0.4209120000000  0.5106960000000 1.0
C      1  0.4542880000000  0.4464790000000  0.5393310000000 1.0
C      1  0.4251520000000  0.5861290000000  0.5196840000000 1.0
C      1  0.5055180000000  0.4620870000000  0.6073880000000 1.0
C      1  0.4377180000000  0.4906620000000  0.5515720000000 1.0
C      1  0.5864340000000  0.4481120000000  0.5217470000000 1.0
C      1  0.4948540000000  0.5420760000000  0.5501900000000 1.0
C      1  0.4472960000000  0.4195000000000  0.4278050000000 1.0
C      1  0.5021130000000  0.4646740000000  0.5356780000000 1.0
C      1  0.5309550000000  0.4335980000000  0.5684900000000 1.0
C      1  0.5600350000000  0.5693260000000  0.4692870000000 1.0
C      1  0.4433490000000  0.5613480000000  0.4386150000000 1.0
C      1  0.4466910000000  0.5787930000000  0.4980240000000 1.0
C      1  0.5747800000000  0.5350950000000  0.5058890000000 1.0
C      1  0.5823160000000  0.4922950000000  0.4681700000000 1.0
C      1  0.4978260000000  0.4348080000000  0.4808510000000 1.0
C      1  0.5219180000000  0.4079600000000  0.5476980000000 1.0
C      1  0.4668880000000  0.4358330000000  0.4726650000000 1.0
C      1  0.3910790000000  0.5188440000000  0.4579370000000 1.0
C      1  0.5068960000000  0.4941780000000  0.5514600000000 1.0
C      1  0.4433180000000  0.4800010000000  0.3901030000000 1.0
C      1  0.5605710000000  0.4212560000000  0.4521760000000 1.0
C      1  0.5606120000000  0.5313890000000  0.4819460000000 1.0
C      1  0.4413900000000  0.4452990000000  0.5140680000000 1.0
C      1  0.5132280000000  0.5635160000000  0.5430130000000 1.0
C      1  0.5036720000000  0.4029800000000  0.5178630000000 1.0
C      1  0.5285220000000  0.4299060000000  0.4131660000000 1.0
C      1  0.4250620000000  0.5214350000000  0.5300010000000 1.0
C      1  0.5853940000000  0.4780490000000  0.5348500000000 1.0
C      1  0.5349840000000  0.4941470000000  0.5352440000000 1.0
C      1  0.5385050000000  0.5319750000000  0.5684840000000 1.0
C      1  0.5045420000000  0.6118310000000  0.5479410000000 1.0
C      1  0.5293450000000  0.4577440000000  0.5924580000000 1.0
C      1  0.5001960000000  0.5632510000000  0.4964150000000 1.0
C      1  0.5441210000000  0.4630660000000  0.4744260000000 1.0
C      1  0.4836760000000  0.4430760000000  0.5789620000000 1.0
C      1  0.4391500000000  0.4729530000000  0.5002630000000 1.0
C      1  0.4300880000000  0.5478250000000  0.4589790000000 1.0
C      1  0.4758650000000  0.5914220000000  0.5106800000000 1.0
C      1  0.4002910000000  0.5294290000000  0.6281320000000 1.0
C      1  0.5388720000000  0.5466270000000  0.4245820000000 1.0
C      1  0.5586890000000  0.4672160000000  0.4306080000000 1.0
C      1  0.4472300000000  0.4657490000000  0.5603860000000 1.0
C      1  0.4900110000000  0.4128790000000  0.5536560000000 1.0
C      1  0.5639650000000  0.5501820000000  0.5324290000000 1.0
C      1  0.5019380000000  0.5000600000000  0.4557400000000 1.0
C      1  0.4987950000000  0.6117200000000  0.4955870000000 1.0
C      1  0.4060500000000  0.5330020000000  0.6028160000000 1.0
C      1  0.4888940000000  0.5517140000000  0.4173030000000 1.0
C      1  0.5281200000000  0.5977500000000  0.5043130000000 1.0
C      1  0.4642610000000  0.5598410000000  0.4217090000000 1.0
C      1  0.4728940000000  0.5098020000000  0.5139180000000 1.0
C      1  0.5019830000000  0.4685960000000  0.4420910000000 1.0
C      1  0.5220480000000  0.5027490000000  0.4063440000000 1.0
C      1  0.5777330000000  0.5242840000000  0.5431170000000 1.0
C      1  0.5173120000000  0.4467190000000  0.4612020000000 1.0
C      1  0.4460170000000  0.4963200000000  0.5206250000000 1.0
C      1  0.5659860000000  0.3959190000000  0.4500120000000 1.0
C      1  0.5700020000000  0.4787880000000  0.5655070000000 1.0
C      1  0.4134440000000  0.5782570000000  0.5424060000000 1.0
C      1  0.4710120000000  0.4893490000000  0.4556420000000 1.0
C      1  0.5099200000000  0.5805630000000  0.4530670000000 1.0
C      1  0.5069040000000  0.5294160000000  0.4624110000000 1.0
C      1  0.5614340000000  0.5535410000000  0.4474990000000 1.0
C      1  0.4301510000000  0.4835130000000  0.4629640000000 1.0
C      1  0.5586780000000  0.5219000000000  0.4336450000000 1.0
C      1  0.5020390000000  0.4425470000000  0.5137040000000 1.0
C      1  0.4525170000000  0.4240560000000  0.4981480000000 1.0
C      1  0.4815920000000  0.4112000000000  0.5003870000000 1.0
C      1  0.5400320000000  0.4408830000000  0.4363990000000 1.0
C      1  0.5564420000000  0.5073050000000  0.5567510000000 1.0
C      1  0.5898210000000  0.5070230000000  0.5187560000000 1.0
C      1  0.4792380000000  0.4319910000000  0.5368270000000 1.0
C      1  0.5776390000000  0.4883510000000  0.4960950000000 1.0
C      1  0.4238350000000  0.5168150000000  0.5600410000000 1.0
C      1  0.4083890000000  0.5616110000000  0.5629610000000 1.0
C      1  0.5401320000000  0.5551650000000  0.5483550000000 1.0
C      1  0.4520800000000  0.5152290000000  0.4525640000000 1.0
C      1  0.5042660000000  0.4490940000000  0.5627380000000 1.0
C      1  0.4609280000000  0.4383740000000  0.4423560000000 1.0
C      1  0.4254930000000  0.5261360000000  0.5007460000000 1.0
C      1  0.4554860000000  0.4650910000000  0.4716030000000 1.0
C      1  0.4720180000000  0.4630010000000  0.4340300000000 1.0
C      1  0.4182100000000  0.5196600000000  0.4508500000000 1.0
C      1  0.5503270000000  0.4131380000000  0.5289940000000 1.0
C      1  0.4121730000000  0.5368010000000  0.5759030000000 1.0
C      1  0.5052200000000  0.5906490000000  0.5286450000000 1.0
C      1  0.5479490000000  0.4783590000000  0.5009640000000 1.0
C      1  0.5156490000000  0.5354850000000  0.4046660000000 1.0
C      1  0.5694730000000  0.4317770000000  0.5370560000000 1.0
C      1  0.5071200000000  0.5200230000000  0.5678480000000 1.0
C      1  0.5439440000000  0.5753430000000  0.4923610000000 1.0
C      1  0.4788330000000  0.4699230000000  0.6080790000000 1.0
C      1  0.4648530000000  0.5164500000000  0.4841420000000 1.0
END
