TITL C-2778427-5640-995 -0.00294286599524717 125000 -452.021389936089 0 0 79 (C1) n - 1
REM
REM in /home/nfs/bkarasulu/CARBON/AIRSS/Generating-Clusters/REBO/Only-C1/SD-CG/HFTN-CG
REM
REM
REM
REM
REM
REM ./C.cell (11c1c37f851c82e70ff6c80c92926a4b)
REM
REM compiler GCC version 9.2.1 20190827 (Red Hat 9.2.1-1)
REM options -cpp -mtune=generic -march=x86-64 -g -O0 -fpre-include=/usr/include/finclude/math-vector-fortran.h
REM seed -1051325954 -1952536327 1764698920 -821035938 1332054767 554851156 -804877429 -158740903 -1182403940 -1069977194 1110872627 326999133 878169479 -259877393 1554413223 -1594758506 1740298416 915824025 -1069450599 2089045988 -1359495502 -1476666358 627187545 509380873 1830672950 2072990792 -886487767 1109456594 -778361903 173215947 1235425591 -823007166 1932496141
REM
CELL 1.54180   50.00000   50.00000   50.00000   90.00000   90.00000   90.00000
LATT -1
SFAC C  
C      1  0.4359190000000  0.5382740000000  0.4874980000000 1.0
C      1  0.4440000000000  0.5103200000000  0.4754880000000 1.0
C      1  0.4902700000000  0.4413450000000  0.4651670000000 1.0
C      1  0.5017320000000  0.4725360000000  0.4430470000000 1.0
C      1  0.5298720000000  0.4901490000000  0.4484280000000 1.0
C      1  0.4708490000000  0.4963200000000  0.5516100000000 1.0
C      1  0.4907100000000  0.4577290000000  0.5694360000000 1.0
C      1  0.5234000000000  0.5139170000000  0.4671120000000 1.0
C      1  0.4963740000000  0.4498670000000  0.5037160000000 1.0
C      1  0.5292430000000  0.5550630000000  0.4437520000000 1.0
C      1  0.5433640000000  0.5358740000000  0.4781460000000 1.0
C      1  0.5237020000000  0.4382720000000  0.4668860000000 1.0
C      1  0.4480130000000  0.4676480000000  0.5357720000000 1.0
C      1  0.5249980000000  0.4596350000000  0.5723550000000 1.0
C      1  0.5486680000000  0.5112970000000  0.4290130000000 1.0
C      1  0.5391600000000  0.4708420000000  0.5167960000000 1.0
C      1  0.5324890000000  0.5746590000000  0.5205860000000 1.0
C      1  0.4245140000000  0.4860660000000  0.4799280000000 1.0
C      1  0.5772950000000  0.4693220000000  0.5049160000000 1.0
C      1  0.4960920000000  0.5167550000000  0.5082650000000 1.0
C      1  0.5352390000000  0.4870300000000  0.4947370000000 1.0
C      1  0.5158880000000  0.5040070000000  0.5316900000000 1.0
C      1  0.5070230000000  0.4676400000000  0.5455360000000 1.0
C      1  0.4981240000000  0.4781290000000  0.5182530000000 1.0
C      1  0.4689540000000  0.4884800000000  0.5203890000000 1.0
C      1  0.4636220000000  0.5424700000000  0.5158330000000 1.0
C      1  0.5693980000000  0.5419070000000  0.5302210000000 1.0
C      1  0.4619760000000  0.5574190000000  0.4869600000000 1.0
C      1  0.5671600000000  0.5110570000000  0.5186620000000 1.0
C      1  0.5563680000000  0.5384970000000  0.4470630000000 1.0
C      1  0.4568350000000  0.5025520000000  0.4468640000000 1.0
C      1  0.5558790000000  0.5655160000000  0.5335680000000 1.0
C      1  0.4847630000000  0.5449500000000  0.4672040000000 1.0
C      1  0.4642020000000  0.4407770000000  0.5110780000000 1.0
C      1  0.5641660000000  0.5074850000000  0.4592770000000 1.0
C      1  0.5410350000000  0.4413910000000  0.4898600000000 1.0
C      1  0.5083700000000  0.4246830000000  0.5232900000000 1.0
C      1  0.4483250000000  0.4592460000000  0.4968170000000 1.0
C      1  0.5066180000000  0.5426690000000  0.5220290000000 1.0
C      1  0.4266570000000  0.5119310000000  0.5269970000000 1.0
C      1  0.5467330000000  0.5293650000000  0.5620380000000 1.0
C      1  0.4796150000000  0.4937420000000  0.4686710000000 1.0
C      1  0.5029390000000  0.4705720000000  0.4774420000000 1.0
C      1  0.5551250000000  0.5080880000000  0.4907120000000 1.0
C      1  0.4662210000000  0.5395320000000  0.5490760000000 1.0
C      1  0.5102980000000  0.5416020000000  0.4268760000000 1.0
C      1  0.5354390000000  0.4377880000000  0.5211480000000 1.0
C      1  0.4300990000000  0.4833910000000  0.5125610000000 1.0
C      1  0.5437050000000  0.5129660000000  0.5401660000000 1.0
C      1  0.5665170000000  0.4807730000000  0.5344260000000 1.0
C      1  0.5118950000000  0.4899650000000  0.5794750000000 1.0
C      1  0.5250000000000  0.5440250000000  0.5705320000000 1.0
C      1  0.5623740000000  0.4595370000000  0.4843570000000 1.0
C      1  0.4453540000000  0.4745270000000  0.4388880000000 1.0
C      1  0.5196680000000  0.5159820000000  0.4180090000000 1.0
C      1  0.4837980000000  0.5427990000000  0.4372340000000 1.0
C      1  0.5186300000000  0.5661780000000  0.4670250000000 1.0
C      1  0.4612240000000  0.4604950000000  0.5665220000000 1.0
C      1  0.4955400000000  0.5179980000000  0.4774700000000 1.0
C      1  0.4245100000000  0.4697040000000  0.4574100000000 1.0
C      1  0.4724170000000  0.4555820000000  0.4397080000000 1.0
C      1  0.4801470000000  0.4210310000000  0.5261730000000 1.0
C      1  0.5584120000000  0.4741790000000  0.4569720000000 1.0
C      1  0.5022380000000  0.5813590000000  0.5141300000000 1.0
C      1  0.5372130000000  0.4510200000000  0.4456130000000 1.0
C      1  0.4464150000000  0.4895980000000  0.5736280000000 1.0
C      1  0.4220120000000  0.5339470000000  0.5109710000000 1.0
C      1  0.4643260000000  0.4634600000000  0.4720480000000 1.0
C      1  0.4923070000000  0.5729440000000  0.4856080000000 1.0
C      1  0.5453970000000  0.4572820000000  0.5474340000000 1.0
C      1  0.4643320000000  0.5256690000000  0.4284880000000 1.0
C      1  0.4996520000000  0.5361950000000  0.5547690000000 1.0
C      1  0.4982550000000  0.5043590000000  0.5587460000000 1.0
C      1  0.4439440000000  0.5160200000000  0.5523120000000 1.0
C      1  0.4827030000000  0.5647660000000  0.5330150000000 1.0
C      1  0.4632330000000  0.5128380000000  0.5016620000000 1.0
C      1  0.5258510000000  0.5542920000000  0.4968590000000 1.0
C      1  0.5039010000000  0.4937200000000  0.4183100000000 1.0
C      1  0.4412980000000  0.4389860000000  0.5492710000000 1.0
END
