TITL C-2778436-5916-65 -0.00716344237864649 125000 -851.1078731994 0 0 149 (C1) n - 1
REM
REM in /home/nfs/bkarasulu/CARBON/AIRSS/Generating-Clusters/REBO/Only-C1/SD-CG/HFTN-CG
REM
REM
REM
REM
REM
REM ./C.cell (11c1c37f851c82e70ff6c80c92926a4b)
REM
REM compiler GCC version 9.2.1 20190827 (Red Hat 9.2.1-1)
REM options -cpp -mtune=generic -march=x86-64 -g -O0 -fpre-include=/usr/include/finclude/math-vector-fortran.h
REM seed -155517999 767447640 -992077110 -1159375013 -1980097452 -1991742049 1823694881 -1914080653 -1304251975 -1650041598 -586096845 891735172 -1608626813 -1864397580 -704737047 369470095 -161211904 11580320 1973936494 1518190603 -1150428247 1709811945 566797381 -1930851777 -1047856295 406064005 1673518583 1165556948 532952597 -1988129237 183216793 -1703122415 -174931229
REM
CELL 1.54180   50.00000   50.00000   50.00000   90.00000   90.00000   90.00000
LATT -1
SFAC C  
C      1  0.5487440000000  0.5386260000000  0.5831380000000 1.0
C      1  0.4709700000000  0.4137680000000  0.4500930000000 1.0
C      1  0.5697590000000  0.5384700000000  0.4539760000000 1.0
C      1  0.5341980000000  0.4851870000000  0.5402770000000 1.0
C      1  0.4827880000000  0.4710320000000  0.4945750000000 1.0
C      1  0.4631630000000  0.4900220000000  0.5683980000000 1.0
C      1  0.4174160000000  0.4831920000000  0.5472490000000 1.0
C      1  0.4892560000000  0.5612040000000  0.4938920000000 1.0
C      1  0.4729680000000  0.5146300000000  0.4081880000000 1.0
C      1  0.5202580000000  0.4772740000000  0.6006240000000 1.0
C      1  0.4655810000000  0.4305570000000  0.4199320000000 1.0
C      1  0.4703160000000  0.5276290000000  0.5570460000000 1.0
C      1  0.4835210000000  0.5287360000000  0.5034610000000 1.0
C      1  0.5351290000000  0.5761800000000  0.5607540000000 1.0
C      1  0.4562850000000  0.5949640000000  0.5399460000000 1.0
C      1  0.4663850000000  0.4609320000000  0.4049360000000 1.0
C      1  0.5181370000000  0.5937440000000  0.5297130000000 1.0
C      1  0.5672150000000  0.4371930000000  0.4621140000000 1.0
C      1  0.5549930000000  0.4691660000000  0.5203260000000 1.0
C      1  0.5231400000000  0.5749580000000  0.4782150000000 1.0
C      1  0.4322690000000  0.5373360000000  0.5495950000000 1.0
C      1  0.5860720000000  0.4348470000000  0.4831060000000 1.0
C      1  0.4853370000000  0.5076140000000  0.5259470000000 1.0
C      1  0.4569520000000  0.4772620000000  0.4776390000000 1.0
C      1  0.4050620000000  0.5323030000000  0.5401260000000 1.0
C      1  0.4932910000000  0.5760570000000  0.4338200000000 1.0
C      1  0.5616180000000  0.5656230000000  0.4825880000000 1.0
C      1  0.4521140000000  0.5495820000000  0.5291320000000 1.0
C      1  0.4007700000000  0.5022450000000  0.4743540000000 1.0
C      1  0.5060440000000  0.4873180000000  0.4853450000000 1.0
C      1  0.4981900000000  0.5112600000000  0.5572580000000 1.0
C      1  0.5005920000000  0.6043350000000  0.4268730000000 1.0
C      1  0.5191750000000  0.5547010000000  0.5056910000000 1.0
C      1  0.4079940000000  0.5302410000000  0.4843010000000 1.0
C      1  0.5278930000000  0.4799600000000  0.4624200000000 1.0
C      1  0.4350700000000  0.4753240000000  0.5730250000000 1.0
C      1  0.5378170000000  0.5893460000000  0.5053080000000 1.0
C      1  0.5221360000000  0.4429160000000  0.4355250000000 1.0
C      1  0.5350600000000  0.4711820000000  0.4243900000000 1.0
C      1  0.5340790000000  0.4241900000000  0.5712800000000 1.0
C      1  0.5206210000000  0.5153920000000  0.5097300000000 1.0
C      1  0.5925030000000  0.5270050000000  0.5312790000000 1.0
C      1  0.5466290000000  0.5255530000000  0.5268540000000 1.0
C      1  0.5303930000000  0.5298100000000  0.4089740000000 1.0
C      1  0.5340810000000  0.4054790000000  0.5277760000000 1.0
C      1  0.5209270000000  0.5668180000000  0.5785670000000 1.0
C      1  0.5583380000000  0.4652940000000  0.4573800000000 1.0
C      1  0.4724350000000  0.4116230000000  0.4806080000000 1.0
C      1  0.5839130000000  0.5071900000000  0.5573640000000 1.0
C      1  0.5063740000000  0.4808780000000  0.5293890000000 1.0
C      1  0.4981200000000  0.5215730000000  0.4307460000000 1.0
C      1  0.5485720000000  0.4360580000000  0.5233060000000 1.0
C      1  0.4479970000000  0.5027660000000  0.4618520000000 1.0
C      1  0.4319530000000  0.5573660000000  0.4510320000000 1.0
C      1  0.5681510000000  0.5361060000000  0.5621070000000 1.0
C      1  0.5295770000000  0.4461000000000  0.5955520000000 1.0
C      1  0.5022820000000  0.4317760000000  0.5820410000000 1.0
C      1  0.4259620000000  0.5041180000000  0.4182210000000 1.0
C      1  0.4542030000000  0.5315950000000  0.4493360000000 1.0
C      1  0.5979840000000  0.4999050000000  0.5124580000000 1.0
C      1  0.4657740000000  0.4415660000000  0.4919000000000 1.0
C      1  0.5985270000000  0.4744430000000  0.5253420000000 1.0
C      1  0.5073190000000  0.4096850000000  0.5570240000000 1.0
C      1  0.4968690000000  0.4219620000000  0.4296430000000 1.0
C      1  0.5496880000000  0.5450630000000  0.4992070000000 1.0
C      1  0.5163440000000  0.4494260000000  0.5200710000000 1.0
C      1  0.5155820000000  0.5382860000000  0.5923190000000 1.0
C      1  0.4955470000000  0.5627300000000  0.4623590000000 1.0
C      1  0.4846660000000  0.5333770000000  0.4555670000000 1.0
C      1  0.5851290000000  0.5037320000000  0.4847800000000 1.0
C      1  0.5552850000000  0.5123870000000  0.4903340000000 1.0
C      1  0.4546220000000  0.5635050000000  0.4741810000000 1.0
C      1  0.5251030000000  0.5017520000000  0.4368380000000 1.0
C      1  0.5836530000000  0.4863130000000  0.4602490000000 1.0
C      1  0.5634590000000  0.4997880000000  0.5325540000000 1.0
C      1  0.4899470000000  0.6022580000000  0.5200080000000 1.0
C      1  0.4776730000000  0.5889730000000  0.4992260000000 1.0
C      1  0.5365150000000  0.4872620000000  0.5004970000000 1.0
C      1  0.4444580000000  0.4502250000000  0.4678190000000 1.0
C      1  0.5265790000000  0.5216700000000  0.4767040000000 1.0
C      1  0.5064780000000  0.4371390000000  0.4912710000000 1.0
C      1  0.4038330000000  0.5071890000000  0.5288760000000 1.0
C      1  0.4698100000000  0.4659510000000  0.5231880000000 1.0
C      1  0.5860830000000  0.5345830000000  0.4780880000000 1.0
C      1  0.4622910000000  0.5695950000000  0.4412260000000 1.0
C      1  0.5724820000000  0.5549160000000  0.5339940000000 1.0
C      1  0.5701820000000  0.4583890000000  0.5658490000000 1.0
C      1  0.4875990000000  0.5835930000000  0.5467710000000 1.0
C      1  0.5491540000000  0.4154310000000  0.4576840000000 1.0
C      1  0.4752880000000  0.5004420000000  0.5942030000000 1.0
C      1  0.4532480000000  0.4327910000000  0.5445460000000 1.0
C      1  0.4958820000000  0.4839690000000  0.4184340000000 1.0
C      1  0.5786250000000  0.4264170000000  0.5131540000000 1.0
C      1  0.4825120000000  0.4749070000000  0.5518870000000 1.0
C      1  0.4145900000000  0.5577330000000  0.4780630000000 1.0
C      1  0.4998050000000  0.4044440000000  0.4932750000000 1.0
C      1  0.4391110000000  0.4385180000000  0.5139700000000 1.0
C      1  0.4364320000000  0.5172210000000  0.4904850000000 1.0
C      1  0.5435980000000  0.5552540000000  0.4277210000000 1.0
C      1  0.5287810000000  0.5225620000000  0.5529670000000 1.0
C      1  0.4462300000000  0.5269990000000  0.4176640000000 1.0
C      1  0.4906050000000  0.4454470000000  0.5385170000000 1.0
C      1  0.4804690000000  0.4880010000000  0.3894770000000 1.0
C      1  0.4409220000000  0.4750420000000  0.4218900000000 1.0
C      1  0.4095290000000  0.4695670000000  0.4685330000000 1.0
C      1  0.5890440000000  0.5476160000000  0.5049090000000 1.0
C      1  0.5069150000000  0.5536100000000  0.4190780000000 1.0
C      1  0.5095430000000  0.5396830000000  0.5315170000000 1.0
C      1  0.5361920000000  0.5416340000000  0.4581250000000 1.0
C      1  0.5276530000000  0.4071580000000  0.4758900000000 1.0
C      1  0.5043310000000  0.4005530000000  0.5238550000000 1.0
C      1  0.4929140000000  0.5371610000000  0.3947300000000 1.0
C      1  0.4249370000000  0.5773040000000  0.4971390000000 1.0
C      1  0.5475290000000  0.5739970000000  0.4555010000000 1.0
C      1  0.4189040000000  0.4954010000000  0.4482100000000 1.0
C      1  0.5510530000000  0.4707390000000  0.5865800000000 1.0
C      1  0.4513240000000  0.5926360000000  0.4880790000000 1.0
C      1  0.4795220000000  0.4513870000000  0.5840800000000 1.0
C      1  0.5983550000000  0.4510900000000  0.5093710000000 1.0
C      1  0.4461510000000  0.4079540000000  0.4994880000000 1.0
C      1  0.4826490000000  0.5298350000000  0.5950130000000 1.0
C      1  0.5092970000000  0.5064840000000  0.3958240000000 1.0
C      1  0.4834410000000  0.5525800000000  0.5420640000000 1.0
C      1  0.5564940000000  0.4355440000000  0.5548980000000 1.0
C      1  0.4256300000000  0.4567930000000  0.4412460000000 1.0
C      1  0.4281660000000  0.5087270000000  0.5679510000000 1.0
C      1  0.4327810000000  0.5007400000000  0.5151100000000 1.0
C      1  0.4559970000000  0.5039040000000  0.5379460000000 1.0
C      1  0.5498850000000  0.5756580000000  0.5332940000000 1.0
C      1  0.5627130000000  0.4888580000000  0.4335100000000 1.0
C      1  0.5137690000000  0.5066850000000  0.5862490000000 1.0
C      1  0.4954750000000  0.5166300000000  0.4786930000000 1.0
C      1  0.5400110000000  0.4350670000000  0.4912040000000 1.0
C      1  0.4887470000000  0.4751050000000  0.5976100000000 1.0
C      1  0.5391820000000  0.4950020000000  0.5703400000000 1.0
C      1  0.4676350000000  0.5532830000000  0.4118670000000 1.0
C      1  0.4554630000000  0.4504470000000  0.5683160000000 1.0
C      1  0.4390360000000  0.4704930000000  0.5242500000000 1.0
C      1  0.4409760000000  0.5780170000000  0.5237900000000 1.0
C      1  0.4681120000000  0.4885120000000  0.4373360000000 1.0
C      1  0.4548680000000  0.5410620000000  0.4970520000000 1.0
C      1  0.4794420000000  0.4154270000000  0.5404390000000 1.0
C      1  0.4511120000000  0.5295320000000  0.5822110000000 1.0
C      1  0.4420410000000  0.4285900000000  0.4424540000000 1.0
C      1  0.5231610000000  0.4483010000000  0.4651750000000 1.0
C      1  0.4140990000000  0.4495950000000  0.4934180000000 1.0
C      1  0.4980780000000  0.4528170000000  0.4153310000000 1.0
C      1  0.5880610000000  0.4755950000000  0.5525090000000 1.0
C      1  0.5542630000000  0.5187830000000  0.4308520000000 1.0
END
