TITL C-2778431-5191-430 -0.00041576080068216 125000 -993.621139397303 0 0 170 (C1) n - 1
REM
REM in /home/nfs/bkarasulu/CARBON/AIRSS/Generating-Clusters/REBO/Only-C1/SD-CG/HFTN-CG
REM
REM
REM
REM
REM
REM ./C.cell (11c1c37f851c82e70ff6c80c92926a4b)
REM
REM compiler GCC version 9.2.1 20190827 (Red Hat 9.2.1-1)
REM options -cpp -mtune=generic -march=x86-64 -g -O0 -fpre-include=/usr/include/finclude/math-vector-fortran.h
REM seed -1944512548 1200274818 824043468 -2093077499 -1099418725 -328451496 1812760362 -597599221 1923160442 -777821864 -1621861588 1639112940 -375773748 930830242 469688659 -1161873588 544121465 -1126568226 1343354445 1851381448 963294065 -1505331594 -798696215 1839685869 21720569 1271919520 -990685629 -640589403 -1964969978 -1783891838 -846759568 511961710 668922715
REM
CELL 1.54180   50.00000   50.00000   50.00000   90.00000   90.00000   90.00000
LATT -1
SFAC C  
C      1  0.5211440000000  0.5484670000000  0.4122310000000 1.0
C      1  0.4885250000000  0.4518100000000  0.4522460000000 1.0
C      1  0.5366520000000  0.5233240000000  0.5868860000000 1.0
C      1  0.5231900000000  0.4084710000000  0.5431040000000 1.0
C      1  0.5303520000000  0.4168700000000  0.4317580000000 1.0
C      1  0.5466600000000  0.4399250000000  0.4734620000000 1.0
C      1  0.6099280000000  0.4907590000000  0.4947160000000 1.0
C      1  0.5353830000000  0.5855870000000  0.5319340000000 1.0
C      1  0.5625950000000  0.4346470000000  0.5696380000000 1.0
C      1  0.4407210000000  0.4928860000000  0.5414090000000 1.0
C      1  0.5026820000000  0.5200350000000  0.4084850000000 1.0
C      1  0.4610870000000  0.6242300000000  0.4486910000000 1.0
C      1  0.5814010000000  0.5323350000000  0.4292430000000 1.0
C      1  0.5276180000000  0.4915920000000  0.5954780000000 1.0
C      1  0.4612120000000  0.5452580000000  0.5369000000000 1.0
C      1  0.5590210000000  0.5164540000000  0.5110890000000 1.0
C      1  0.4487890000000  0.5406820000000  0.4168240000000 1.0
C      1  0.5356490000000  0.3906620000000  0.4831400000000 1.0
C      1  0.4594250000000  0.6037050000000  0.4668400000000 1.0
C      1  0.5031240000000  0.4627320000000  0.4920340000000 1.0
C      1  0.4806300000000  0.5951650000000  0.4850200000000 1.0
C      1  0.4786980000000  0.4663420000000  0.4015590000000 1.0
C      1  0.5504340000000  0.5197110000000  0.4727260000000 1.0
C      1  0.5631610000000  0.4585340000000  0.5463450000000 1.0
C      1  0.4723800000000  0.5093610000000  0.6048290000000 1.0
C      1  0.4364460000000  0.4311750000000  0.5574140000000 1.0
C      1  0.5998870000000  0.4952470000000  0.5221960000000 1.0
C      1  0.4314290000000  0.5331070000000  0.4690040000000 1.0
C      1  0.5293500000000  0.4335790000000  0.5205280000000 1.0
C      1  0.4394150000000  0.5603040000000  0.4582530000000 1.0
C      1  0.5588440000000  0.5600050000000  0.4589560000000 1.0
C      1  0.5126060000000  0.5659250000000  0.5830450000000 1.0
C      1  0.5721260000000  0.4984720000000  0.4853190000000 1.0
C      1  0.4373540000000  0.4268090000000  0.5868400000000 1.0
C      1  0.5055520000000  0.5097310000000  0.6076110000000 1.0
C      1  0.4973110000000  0.4294050000000  0.5210740000000 1.0
C      1  0.5678170000000  0.4233750000000  0.5189110000000 1.0
C      1  0.5715140000000  0.4748840000000  0.4489600000000 1.0
C      1  0.4619820000000  0.4949980000000  0.4364840000000 1.0
C      1  0.4563330000000  0.4328430000000  0.4386720000000 1.0
C      1  0.5284200000000  0.4653580000000  0.4724920000000 1.0
C      1  0.5221500000000  0.5398530000000  0.5252560000000 1.0
C      1  0.4783470000000  0.5621960000000  0.4932990000000 1.0
C      1  0.5843220000000  0.5501140000000  0.4516090000000 1.0
C      1  0.5053960000000  0.4247030000000  0.4191980000000 1.0
C      1  0.4757430000000  0.4745550000000  0.5377450000000 1.0
C      1  0.4588720000000  0.5628930000000  0.5674760000000 1.0
C      1  0.4091410000000  0.5372370000000  0.5746370000000 1.0
C      1  0.4061550000000  0.4804620000000  0.4989880000000 1.0
C      1  0.5111610000000  0.5066020000000  0.4860870000000 1.0
C      1  0.5019080000000  0.3951670000000  0.5199010000000 1.0
C      1  0.5964380000000  0.5271720000000  0.5251010000000 1.0
C      1  0.4875060000000  0.5031570000000  0.4657120000000 1.0
C      1  0.5457150000000  0.4709720000000  0.5798170000000 1.0
C      1  0.4699780000000  0.5390260000000  0.5102400000000 1.0
C      1  0.5368270000000  0.4547140000000  0.4210270000000 1.0
C      1  0.4650640000000  0.4979280000000  0.5758550000000 1.0
C      1  0.5808070000000  0.4487480000000  0.5121840000000 1.0
C      1  0.4829100000000  0.4162340000000  0.4348930000000 1.0
C      1  0.4898440000000  0.5613290000000  0.5596800000000 1.0
C      1  0.4411940000000  0.5712560000000  0.5407210000000 1.0
C      1  0.5300840000000  0.4449910000000  0.5642310000000 1.0
C      1  0.5275220000000  0.4152180000000  0.4618830000000 1.0
C      1  0.5002980000000  0.5316190000000  0.5502490000000 1.0
C      1  0.4719480000000  0.4012500000000  0.5337710000000 1.0
C      1  0.5039160000000  0.4295110000000  0.6018980000000 1.0
C      1  0.5098770000000  0.5825360000000  0.4803200000000 1.0
C      1  0.5595900000000  0.4704930000000  0.4988320000000 1.0
C      1  0.4647820000000  0.4450770000000  0.5436340000000 1.0
C      1  0.4088320000000  0.4862940000000  0.5311000000000 1.0
C      1  0.4299180000000  0.4648560000000  0.4962650000000 1.0
C      1  0.5394370000000  0.6072650000000  0.4612480000000 1.0
C      1  0.4552730000000  0.4911950000000  0.3975230000000 1.0
C      1  0.5535350000000  0.5370890000000  0.4140950000000 1.0
C      1  0.5637860000000  0.5079230000000  0.5922930000000 1.0
C      1  0.5886690000000  0.4566410000000  0.5685780000000 1.0
C      1  0.5312250000000  0.5405560000000  0.4921410000000 1.0
C      1  0.4558000000000  0.4329080000000  0.4921460000000 1.0
C      1  0.4221560000000  0.5485970000000  0.5289990000000 1.0
C      1  0.4359390000000  0.5407050000000  0.5792270000000 1.0
C      1  0.5992990000000  0.5466330000000  0.4986200000000 1.0
C      1  0.4251040000000  0.4297270000000  0.4777790000000 1.0
C      1  0.5305810000000  0.4628140000000  0.3924130000000 1.0
C      1  0.3971100000000  0.4681850000000  0.4515940000000 1.0
C      1  0.4696860000000  0.4615200000000  0.4982280000000 1.0
C      1  0.4551130000000  0.4145690000000  0.5177510000000 1.0
C      1  0.5565120000000  0.4328630000000  0.4274110000000 1.0
C      1  0.4041470000000  0.5163920000000  0.4620840000000 1.0
C      1  0.5176020000000  0.5899970000000  0.5598130000000 1.0
C      1  0.4334130000000  0.5181080000000  0.5219580000000 1.0
C      1  0.5239560000000  0.4823890000000  0.5353060000000 1.0
C      1  0.4591550000000  0.4474680000000  0.5854010000000 1.0
C      1  0.5074300000000  0.5716710000000  0.4310800000000 1.0
C      1  0.4865060000000  0.5536390000000  0.4458120000000 1.0
C      1  0.5556140000000  0.4157060000000  0.5446280000000 1.0
C      1  0.5901440000000  0.5056960000000  0.4325820000000 1.0
C      1  0.4377440000000  0.5856880000000  0.4708130000000 1.0
C      1  0.4920030000000  0.4066170000000  0.5566520000000 1.0
C      1  0.4640010000000  0.4623110000000  0.4308230000000 1.0
C      1  0.4376240000000  0.4499720000000  0.5232550000000 1.0
C      1  0.4189410000000  0.4495900000000  0.4559090000000 1.0
C      1  0.5446700000000  0.4891840000000  0.4579520000000 1.0
C      1  0.4956580000000  0.5833500000000  0.5355010000000 1.0
C      1  0.4207180000000  0.4605250000000  0.5502130000000 1.0
C      1  0.4119760000000  0.5628130000000  0.5033920000000 1.0
C      1  0.5946160000000  0.4666560000000  0.5363290000000 1.0
C      1  0.5409310000000  0.5659530000000  0.5658310000000 1.0
C      1  0.5175370000000  0.4828020000000  0.5645320000000 1.0
C      1  0.4110500000000  0.5075190000000  0.4307010000000 1.0
C      1  0.5167520000000  0.4614950000000  0.4416950000000 1.0
C      1  0.4895320000000  0.4119030000000  0.4928770000000 1.0
C      1  0.5681060000000  0.4447660000000  0.4520920000000 1.0
C      1  0.5354270000000  0.4944630000000  0.4992960000000 1.0
C      1  0.5507460000000  0.4856720000000  0.3999360000000 1.0
C      1  0.4003970000000  0.5358900000000  0.5487830000000 1.0
C      1  0.4190810000000  0.4279620000000  0.5066950000000 1.0
C      1  0.4561020000000  0.5238710000000  0.5604370000000 1.0
C      1  0.5597570000000  0.5638380000000  0.5375270000000 1.0
C      1  0.4420960000000  0.4649260000000  0.4697640000000 1.0
C      1  0.3954600000000  0.4878380000000  0.4737680000000 1.0
C      1  0.4395170000000  0.5107770000000  0.4183200000000 1.0
C      1  0.5045650000000  0.4334320000000  0.4743000000000 1.0
C      1  0.4467560000000  0.5925500000000  0.5200660000000 1.0
C      1  0.5125110000000  0.5425500000000  0.6015490000000 1.0
C      1  0.3983530000000  0.4828930000000  0.4268080000000 1.0
C      1  0.4934640000000  0.5246190000000  0.4399550000000 1.0
C      1  0.5504650000000  0.5680410000000  0.4858000000000 1.0
C      1  0.5258290000000  0.4991060000000  0.4333250000000 1.0
C      1  0.6034510000000  0.5500750000000  0.4724240000000 1.0
C      1  0.5457320000000  0.4190230000000  0.4970310000000 1.0
C      1  0.5959930000000  0.4932580000000  0.4637900000000 1.0
C      1  0.5762460000000  0.5006440000000  0.5464380000000 1.0
C      1  0.5461870000000  0.5974430000000  0.4874370000000 1.0
C      1  0.5737650000000  0.4840410000000  0.4168770000000 1.0
C      1  0.5006520000000  0.6108770000000  0.5069450000000 1.0
C      1  0.5217310000000  0.5218050000000  0.4569680000000 1.0
C      1  0.4060460000000  0.5333340000000  0.4916410000000 1.0
C      1  0.4576960000000  0.5569600000000  0.4371050000000 1.0
C      1  0.5398590000000  0.5337740000000  0.5545970000000 1.0
C      1  0.4729740000000  0.4735220000000  0.4680990000000 1.0
C      1  0.4731060000000  0.6025040000000  0.5232990000000 1.0
C      1  0.5278360000000  0.4350970000000  0.5954530000000 1.0
C      1  0.4843580000000  0.4319320000000  0.5780770000000 1.0
C      1  0.4690850000000  0.4173730000000  0.4661610000000 1.0
C      1  0.4283070000000  0.5852950000000  0.4976980000000 1.0
C      1  0.4796130000000  0.5391290000000  0.6099420000000 1.0
C      1  0.5034100000000  0.4478730000000  0.4003430000000 1.0
C      1  0.4978120000000  0.5071470000000  0.5740780000000 1.0
C      1  0.4533250000000  0.5144200000000  0.4966850000000 1.0
C      1  0.5031790000000  0.5511350000000  0.4756840000000 1.0
C      1  0.4997980000000  0.4832610000000  0.5173260000000 1.0
C      1  0.4577420000000  0.4877970000000  0.5127770000000 1.0
C      1  0.5356730000000  0.5119040000000  0.4060830000000 1.0
C      1  0.4947760000000  0.4858680000000  0.4323900000000 1.0
C      1  0.5687660000000  0.5463550000000  0.5113340000000 1.0
C      1  0.5424860000000  0.4600960000000  0.5258450000000 1.0
C      1  0.4911930000000  0.5144640000000  0.5092560000000 1.0
C      1  0.5375430000000  0.5478590000000  0.4418430000000 1.0
C      1  0.4552550000000  0.5112260000000  0.4656820000000 1.0
C      1  0.5288560000000  0.6061480000000  0.5090910000000 1.0
C      1  0.3993230000000  0.5171120000000  0.5203360000000 1.0
C      1  0.5739360000000  0.5347000000000  0.5488830000000 1.0
C      1  0.4989900000000  0.4448490000000  0.5502480000000 1.0
C      1  0.5739470000000  0.4859110000000  0.5734240000000 1.0
C      1  0.4782650000000  0.5085000000000  0.5396500000000 1.0
C      1  0.5185500000000  0.5902790000000  0.4492630000000 1.0
C      1  0.4861450000000  0.4990500000000  0.3958440000000 1.0
C      1  0.5129570000000  0.5697430000000  0.5117580000000 1.0
C      1  0.5446030000000  0.5050940000000  0.5369500000000 1.0
C      1  0.4481690000000  0.4723710000000  0.5676860000000 1.0
END
