TITL C-2778435-5768-753 -0.0644017304848606 125000 -585.31241519258 0 0 102 (C1) n - 1
REM
REM in /home/nfs/bkarasulu/CARBON/AIRSS/Generating-Clusters/REBO/Only-C1/SD-CG/HFTN-CG
REM
REM
REM
REM
REM
REM ./C.cell (11c1c37f851c82e70ff6c80c92926a4b)
REM
REM compiler GCC version 9.2.1 20190827 (Red Hat 9.2.1-1)
REM options -cpp -mtune=generic -march=x86-64 -g -O0 -fpre-include=/usr/include/finclude/math-vector-fortran.h
REM seed -486507480 111344267 715774458 1317389087 1463265797 1112094577 -1867000543 -112079698 1190776246 1503851494 909600326 -48269096 -506375325 -1051534739 589637504 -818840465 1166562634 -1528477342 -1073940278 1236721831 -889835685 -1483652905 976056150 -1429718605 989409674 210095316 -1582554896 -646540197 -240744893 -1055438811 -1508062402 -216819164 56279396
REM
CELL 1.54180   50.00000   50.00000   50.00000   90.00000   90.00000   90.00000
LATT -1
SFAC C  
C      1  0.4553690000000  0.4672090000000  0.5027210000000 1.0
C      1  0.4930970000000  0.5752270000000  0.5274190000000 1.0
C      1  0.4908440000000  0.4691630000000  0.4646660000000 1.0
C      1  0.5362610000000  0.4713360000000  0.5587350000000 1.0
C      1  0.4095940000000  0.4794150000000  0.5176560000000 1.0
C      1  0.4473610000000  0.4570050000000  0.5409190000000 1.0
C      1  0.4727100000000  0.5210780000000  0.5168820000000 1.0
C      1  0.4530870000000  0.5462880000000  0.5304390000000 1.0
C      1  0.5299740000000  0.4429570000000  0.4209410000000 1.0
C      1  0.4351390000000  0.4388870000000  0.5079700000000 1.0
C      1  0.4595940000000  0.4232740000000  0.5143120000000 1.0
C      1  0.5849240000000  0.4439940000000  0.4549290000000 1.0
C      1  0.5716450000000  0.5571030000000  0.4929380000000 1.0
C      1  0.4755090000000  0.5849070000000  0.4903160000000 1.0
C      1  0.4877960000000  0.5039300000000  0.4243430000000 1.0
C      1  0.4201440000000  0.4477210000000  0.4836900000000 1.0
C      1  0.4620170000000  0.4828200000000  0.4327780000000 1.0
C      1  0.5247400000000  0.5420520000000  0.4515490000000 1.0
C      1  0.4982140000000  0.5379580000000  0.5038350000000 1.0
C      1  0.5467520000000  0.4350420000000  0.5078840000000 1.0
C      1  0.5346500000000  0.5473470000000  0.5171150000000 1.0
C      1  0.5244920000000  0.4342400000000  0.5502140000000 1.0
C      1  0.5241090000000  0.4192680000000  0.5020310000000 1.0
C      1  0.5194140000000  0.5174670000000  0.4202980000000 1.0
C      1  0.5098580000000  0.4590990000000  0.4399170000000 1.0
C      1  0.4612680000000  0.4468940000000  0.4793360000000 1.0
C      1  0.5393300000000  0.4874020000000  0.5043370000000 1.0
C      1  0.4269440000000  0.5456270000000  0.5085360000000 1.0
C      1  0.4645220000000  0.5766290000000  0.5270710000000 1.0
C      1  0.5692720000000  0.4617890000000  0.5384440000000 1.0
C      1  0.5459620000000  0.5118610000000  0.4857220000000 1.0
C      1  0.5067050000000  0.4198080000000  0.5278800000000 1.0
C      1  0.5014400000000  0.4523550000000  0.4881630000000 1.0
C      1  0.5441400000000  0.5014850000000  0.5710720000000 1.0
C      1  0.4774430000000  0.4719910000000  0.5415590000000 1.0
C      1  0.5443310000000  0.4970330000000  0.4309060000000 1.0
C      1  0.5420290000000  0.4673640000000  0.4389100000000 1.0
C      1  0.5515370000000  0.4898060000000  0.5337170000000 1.0
C      1  0.4942390000000  0.5043230000000  0.5903100000000 1.0
C      1  0.5795340000000  0.4774370000000  0.5075490000000 1.0
C      1  0.4271100000000  0.4773960000000  0.5404730000000 1.0
C      1  0.5060380000000  0.4916140000000  0.4468470000000 1.0
C      1  0.4620950000000  0.4553640000000  0.4406080000000 1.0
C      1  0.4223980000000  0.5190790000000  0.5688010000000 1.0
C      1  0.4749280000000  0.5778120000000  0.4512610000000 1.0
C      1  0.4672460000000  0.4895000000000  0.4718520000000 1.0
C      1  0.4544210000000  0.5589080000000  0.4689760000000 1.0
C      1  0.5945140000000  0.5050920000000  0.5492710000000 1.0
C      1  0.5202050000000  0.4824980000000  0.5861310000000 1.0
C      1  0.5210290000000  0.5282910000000  0.4800620000000 1.0
C      1  0.4817340000000  0.5380730000000  0.4665990000000 1.0
C      1  0.4375280000000  0.4973130000000  0.4412300000000 1.0
C      1  0.5553700000000  0.5757630000000  0.4773920000000 1.0
C      1  0.5058440000000  0.4505460000000  0.5188770000000 1.0
C      1  0.4709890000000  0.5298350000000  0.4353490000000 1.0
C      1  0.5268890000000  0.5453760000000  0.5562410000000 1.0
C      1  0.5642370000000  0.5543780000000  0.5215340000000 1.0
C      1  0.5485010000000  0.5288540000000  0.4353770000000 1.0
C      1  0.5612880000000  0.4950100000000  0.4603140000000 1.0
C      1  0.5611840000000  0.4611000000000  0.4629710000000 1.0
C      1  0.5733590000000  0.5345240000000  0.4477150000000 1.0
C      1  0.4894740000000  0.4719950000000  0.5794480000000 1.0
C      1  0.5129020000000  0.5000760000000  0.5335340000000 1.0
C      1  0.5066350000000  0.4215120000000  0.4764790000000 1.0
C      1  0.4994620000000  0.5417120000000  0.4297930000000 1.0
C      1  0.4798570000000  0.4878950000000  0.5146010000000 1.0
C      1  0.5678600000000  0.5119100000000  0.5524990000000 1.0
C      1  0.4744820000000  0.5262770000000  0.5835260000000 1.0
C      1  0.5076020000000  0.4845190000000  0.4973380000000 1.0
C      1  0.4420050000000  0.4927390000000  0.4881270000000 1.0
C      1  0.4726470000000  0.5362010000000  0.5539010000000 1.0
C      1  0.4656920000000  0.4918680000000  0.5652240000000 1.0
C      1  0.4811300000000  0.4316090000000  0.4560730000000 1.0
C      1  0.4689130000000  0.4334220000000  0.5401430000000 1.0
C      1  0.4955920000000  0.5646370000000  0.4828710000000 1.0
C      1  0.5530510000000  0.5544110000000  0.5517090000000 1.0
C      1  0.4361200000000  0.4462580000000  0.4574940000000 1.0
C      1  0.5968110000000  0.4810700000000  0.5356140000000 1.0
C      1  0.5165860000000  0.4708370000000  0.5337460000000 1.0
C      1  0.4362610000000  0.4973220000000  0.5593320000000 1.0
C      1  0.5833260000000  0.4985910000000  0.4861640000000 1.0
C      1  0.4075420000000  0.4727330000000  0.4895180000000 1.0
C      1  0.4316660000000  0.5416980000000  0.4584170000000 1.0
C      1  0.4955530000000  0.5076730000000  0.4750550000000 1.0
C      1  0.5284400000000  0.5207380000000  0.5233730000000 1.0
C      1  0.5174640000000  0.5186550000000  0.5696120000000 1.0
C      1  0.4463380000000  0.5703220000000  0.4992290000000 1.0
C      1  0.5553030000000  0.4600310000000  0.4931690000000 1.0
C      1  0.4197960000000  0.5254270000000  0.4819870000000 1.0
C      1  0.4167000000000  0.4947230000000  0.4679980000000 1.0
C      1  0.5292550000000  0.5736370000000  0.4555210000000 1.0
C      1  0.5240060000000  0.5830490000000  0.4861740000000 1.0
C      1  0.4947180000000  0.4469060000000  0.5570780000000 1.0
C      1  0.4419190000000  0.5251780000000  0.4375710000000 1.0
C      1  0.5002680000000  0.5452970000000  0.5374260000000 1.0
C      1  0.5498460000000  0.4394990000000  0.5364040000000 1.0
C      1  0.5192990000000  0.5714800000000  0.5141420000000 1.0
C      1  0.4752750000000  0.4177840000000  0.4874100000000 1.0
C      1  0.4901430000000  0.5091350000000  0.5511220000000 1.0
C      1  0.5739960000000  0.5299050000000  0.4787690000000 1.0
C      1  0.5000030000000  0.5712900000000  0.4408630000000 1.0
C      1  0.4431630000000  0.5170670000000  0.5056580000000 1.0
END
