TITL C-2778430-5657-530 0.00239638226818686 125000 -1018.32774186504 0 0 174 (C1) n - 1
REM
REM in /home/nfs/bkarasulu/CARBON/AIRSS/Generating-Clusters/REBO/Only-C1/SD-CG/HFTN-CG
REM
REM
REM
REM
REM
REM ./C.cell (11c1c37f851c82e70ff6c80c92926a4b)
REM
REM compiler GCC version 9.2.1 20190827 (Red Hat 9.2.1-1)
REM options -cpp -mtune=generic -march=x86-64 -g -O0 -fpre-include=/usr/include/finclude/math-vector-fortran.h
REM seed -81022105 -1568140438 505544060 -1907261591 -103218274 -819535767 -925864773 423255162 493219595 1469832701 541068876 -1663465050 -499956530 -1397376851 -416763349 1401416288 871533651 -2081025096 -1421356326 1700031894 -1554439701 -1084854139 216255135 1391252871 -1893640165 2047924777 -1172793924 -755636244 -62764947 1521226385 -1495377838 201470369 81299673
REM
CELL 1.54180   50.00000   50.00000   50.00000   90.00000   90.00000   90.00000
LATT -1
SFAC C  
C      1  0.4311910000000  0.5665420000000  0.4561510000000 1.0
C      1  0.6061340000000  0.5159580000000  0.5396940000000 1.0
C      1  0.4198440000000  0.4998330000000  0.4623840000000 1.0
C      1  0.5922450000000  0.5653440000000  0.5068200000000 1.0
C      1  0.5183840000000  0.4361860000000  0.5283620000000 1.0
C      1  0.5076600000000  0.4854370000000  0.5339150000000 1.0
C      1  0.4763720000000  0.5901610000000  0.5074790000000 1.0
C      1  0.5811310000000  0.4706270000000  0.4551820000000 1.0
C      1  0.5189040000000  0.6006370000000  0.4799200000000 1.0
C      1  0.4877830000000  0.3957380000000  0.4582270000000 1.0
C      1  0.4842030000000  0.5470500000000  0.5182910000000 1.0
C      1  0.4751670000000  0.3706770000000  0.5574920000000 1.0
C      1  0.4996610000000  0.4109940000000  0.4862000000000 1.0
C      1  0.4850210000000  0.5551330000000  0.5506570000000 1.0
C      1  0.5863880000000  0.4997560000000  0.4817160000000 1.0
C      1  0.5081980000000  0.4994530000000  0.4617730000000 1.0
C      1  0.4882570000000  0.5161430000000  0.4003100000000 1.0
C      1  0.5272030000000  0.5053120000000  0.5660750000000 1.0
C      1  0.5677450000000  0.5092040000000  0.4357310000000 1.0
C      1  0.4955180000000  0.5128800000000  0.5355440000000 1.0
C      1  0.5150680000000  0.4345910000000  0.4740890000000 1.0
C      1  0.6035740000000  0.4563970000000  0.5088710000000 1.0
C      1  0.5639280000000  0.5830040000000  0.5442330000000 1.0
C      1  0.4436330000000  0.5088970000000  0.4929490000000 1.0
C      1  0.4337670000000  0.4249310000000  0.5009950000000 1.0
C      1  0.4452770000000  0.4542670000000  0.5335060000000 1.0
C      1  0.4175130000000  0.5690670000000  0.5443380000000 1.0
C      1  0.4998700000000  0.4869330000000  0.5746010000000 1.0
C      1  0.5194400000000  0.4355680000000  0.5737750000000 1.0
C      1  0.5072360000000  0.4385290000000  0.4118190000000 1.0
C      1  0.5141650000000  0.5656070000000  0.5371130000000 1.0
C      1  0.5879890000000  0.5684980000000  0.5367920000000 1.0
C      1  0.4392480000000  0.5487050000000  0.5546350000000 1.0
C      1  0.5862230000000  0.5011040000000  0.5709930000000 1.0
C      1  0.4462440000000  0.5214420000000  0.4329660000000 1.0
C      1  0.5733100000000  0.5487610000000  0.4373900000000 1.0
C      1  0.4996650000000  0.5470760000000  0.4094060000000 1.0
C      1  0.5390830000000  0.4698810000000  0.5986660000000 1.0
C      1  0.5629600000000  0.4835770000000  0.5787010000000 1.0
C      1  0.5625680000000  0.5487750000000  0.4150550000000 1.0
C      1  0.4628540000000  0.4884460000000  0.5122570000000 1.0
C      1  0.6035160000000  0.4846830000000  0.5518730000000 1.0
C      1  0.4153350000000  0.5162670000000  0.4993390000000 1.0
C      1  0.5840250000000  0.5726780000000  0.4811020000000 1.0
C      1  0.4903840000000  0.4432170000000  0.5189230000000 1.0
C      1  0.5357010000000  0.5871200000000  0.4535270000000 1.0
C      1  0.6058080000000  0.4720290000000  0.4782600000000 1.0
C      1  0.3908500000000  0.4839000000000  0.4718210000000 1.0
C      1  0.5006190000000  0.4497390000000  0.4494560000000 1.0
C      1  0.5414880000000  0.5667000000000  0.5574720000000 1.0
C      1  0.4975970000000  0.5910430000000  0.5627450000000 1.0
C      1  0.5335770000000  0.5489460000000  0.4115330000000 1.0
C      1  0.5136900000000  0.4670420000000  0.4004370000000 1.0
C      1  0.4191860000000  0.5539090000000  0.4788030000000 1.0
C      1  0.5418460000000  0.5020110000000  0.5971210000000 1.0
C      1  0.4789590000000  0.4336500000000  0.4125840000000 1.0
C      1  0.4163290000000  0.4683650000000  0.4581600000000 1.0
C      1  0.5074320000000  0.5788590000000  0.5113370000000 1.0
C      1  0.5193390000000  0.4246110000000  0.4356340000000 1.0
C      1  0.5430700000000  0.5314790000000  0.5388040000000 1.0
C      1  0.5805440000000  0.4814490000000  0.5073630000000 1.0
C      1  0.5336820000000  0.5087660000000  0.4912760000000 1.0
C      1  0.5311220000000  0.4801450000000  0.4758130000000 1.0
C      1  0.5153770000000  0.4755850000000  0.4394050000000 1.0
C      1  0.4388890000000  0.5279250000000  0.5789560000000 1.0
C      1  0.5335010000000  0.4874610000000  0.5150510000000 1.0
C      1  0.5607140000000  0.5182950000000  0.4766590000000 1.0
C      1  0.4892420000000  0.4992780000000  0.5996010000000 1.0
C      1  0.5678810000000  0.5474030000000  0.4673910000000 1.0
C      1  0.4405450000000  0.4577800000000  0.4429380000000 1.0
C      1  0.4551290000000  0.5974970000000  0.5255790000000 1.0
C      1  0.4227560000000  0.4426350000000  0.4753640000000 1.0
C      1  0.4180510000000  0.4836650000000  0.5594820000000 1.0
C      1  0.5433270000000  0.4659260000000  0.4271440000000 1.0
C      1  0.5648990000000  0.4518390000000  0.5011420000000 1.0
C      1  0.5030370000000  0.6113500000000  0.5082840000000 1.0
C      1  0.4944760000000  0.5483520000000  0.4746500000000 1.0
C      1  0.4674950000000  0.5756110000000  0.5672650000000 1.0
C      1  0.4131950000000  0.4552010000000  0.5407090000000 1.0
C      1  0.4561270000000  0.5074190000000  0.5377820000000 1.0
C      1  0.4614170000000  0.5032650000000  0.4163420000000 1.0
C      1  0.5438680000000  0.5918200000000  0.5012070000000 1.0
C      1  0.4789670000000  0.5010760000000  0.4763620000000 1.0
C      1  0.4745420000000  0.4859510000000  0.5558170000000 1.0
C      1  0.4685390000000  0.5667370000000  0.4870670000000 1.0
C      1  0.4432390000000  0.5524290000000  0.5025960000000 1.0
C      1  0.4857940000000  0.4813710000000  0.4263070000000 1.0
C      1  0.4499010000000  0.5107120000000  0.4615120000000 1.0
C      1  0.4556790000000  0.4508510000000  0.5012800000000 1.0
C      1  0.4542150000000  0.5368000000000  0.5308160000000 1.0
C      1  0.4322250000000  0.5518830000000  0.4323140000000 1.0
C      1  0.4605110000000  0.4609500000000  0.5571330000000 1.0
C      1  0.4735260000000  0.4214290000000  0.5018960000000 1.0
C      1  0.5900780000000  0.5094030000000  0.4511530000000 1.0
C      1  0.4698930000000  0.5915730000000  0.4431910000000 1.0
C      1  0.5157950000000  0.5699230000000  0.5767480000000 1.0
C      1  0.3747390000000  0.5211560000000  0.5223920000000 1.0
C      1  0.5422980000000  0.5976630000000  0.5292900000000 1.0
C      1  0.5143830000000  0.4040890000000  0.5375310000000 1.0
C      1  0.5190260000000  0.5721680000000  0.4281630000000 1.0
C      1  0.4396310000000  0.4272550000000  0.4500500000000 1.0
C      1  0.3985640000000  0.4359130000000  0.5548520000000 1.0
C      1  0.5755940000000  0.4340110000000  0.4540930000000 1.0
C      1  0.5481390000000  0.5004660000000  0.5400140000000 1.0
C      1  0.4958480000000  0.5438660000000  0.4434180000000 1.0
C      1  0.6000650000000  0.5468390000000  0.5521770000000 1.0
C      1  0.5663740000000  0.4454020000000  0.4279340000000 1.0
C      1  0.5631170000000  0.5863240000000  0.4607110000000 1.0
C      1  0.5288330000000  0.4629010000000  0.5460580000000 1.0
C      1  0.4480750000000  0.3977050000000  0.4589740000000 1.0
C      1  0.5134350000000  0.6054180000000  0.5403770000000 1.0
C      1  0.5393490000000  0.5109570000000  0.4518510000000 1.0
C      1  0.3951740000000  0.5419550000000  0.4743690000000 1.0
C      1  0.4848680000000  0.4826560000000  0.3918470000000 1.0
C      1  0.5911210000000  0.4417560000000  0.4805120000000 1.0
C      1  0.5358900000000  0.4565510000000  0.5074800000000 1.0
C      1  0.4849550000000  0.4691190000000  0.5210850000000 1.0
C      1  0.3904360000000  0.5153820000000  0.4598070000000 1.0
C      1  0.5431260000000  0.4842380000000  0.4011840000000 1.0
C      1  0.5078810000000  0.4616180000000  0.4880780000000 1.0
C      1  0.5255560000000  0.4011540000000  0.5062200000000 1.0
C      1  0.4707620000000  0.4634240000000  0.4498890000000 1.0
C      1  0.4658050000000  0.4556700000000  0.3999940000000 1.0
C      1  0.5549110000000  0.5401290000000  0.5685860000000 1.0
C      1  0.4482710000000  0.4726510000000  0.4162850000000 1.0
C      1  0.5719550000000  0.4232980000000  0.5092160000000 1.0
C      1  0.5384550000000  0.4170770000000  0.5569560000000 1.0
C      1  0.5153990000000  0.5365950000000  0.5681440000000 1.0
C      1  0.5665460000000  0.5025630000000  0.4092080000000 1.0
C      1  0.4671250000000  0.3754710000000  0.4754560000000 1.0
C      1  0.5181240000000  0.4013850000000  0.4520630000000 1.0
C      1  0.5884570000000  0.4584170000000  0.5390430000000 1.0
C      1  0.3982410000000  0.5347300000000  0.5134790000000 1.0
C      1  0.5194020000000  0.5221090000000  0.4315600000000 1.0
C      1  0.5501100000000  0.4638690000000  0.4594490000000 1.0
C      1  0.5112530000000  0.5508970000000  0.6045650000000 1.0
C      1  0.4846630000000  0.5253720000000  0.5649020000000 1.0
C      1  0.4298530000000  0.4995660000000  0.5815050000000 1.0
C      1  0.4542840000000  0.5806260000000  0.4633080000000 1.0
C      1  0.4507190000000  0.3997410000000  0.4927920000000 1.0
C      1  0.4445350000000  0.5851270000000  0.5494510000000 1.0
C      1  0.3700760000000  0.4941970000000  0.5181460000000 1.0
C      1  0.5151920000000  0.5356490000000  0.5283750000000 1.0
C      1  0.5770530000000  0.5025150000000  0.5280630000000 1.0
C      1  0.4777320000000  0.4678930000000  0.4817700000000 1.0
C      1  0.5158210000000  0.5007520000000  0.4083530000000 1.0
C      1  0.5468500000000  0.4312520000000  0.4685370000000 1.0
C      1  0.4932800000000  0.3861090000000  0.5482730000000 1.0
C      1  0.5667800000000  0.4332650000000  0.5474040000000 1.0
C      1  0.4155990000000  0.5283910000000  0.4198100000000 1.0
C      1  0.5593720000000  0.5441920000000  0.5168440000000 1.0
C      1  0.4141690000000  0.4899000000000  0.5121020000000 1.0
C      1  0.4884930000000  0.5761160000000  0.4323290000000 1.0
C      1  0.5127770000000  0.5277890000000  0.4893370000000 1.0
C      1  0.5182790000000  0.5667880000000  0.4846380000000 1.0
C      1  0.4426890000000  0.4794870000000  0.5983040000000 1.0
C      1  0.4135160000000  0.5582970000000  0.5180370000000 1.0
C      1  0.5516470000000  0.4104640000000  0.5261350000000 1.0
C      1  0.5162040000000  0.4603090000000  0.5838660000000 1.0
C      1  0.4786320000000  0.5170480000000  0.5061470000000 1.0
C      1  0.5584930000000  0.4643210000000  0.5546540000000 1.0
C      1  0.4613650000000  0.5488400000000  0.5872900000000 1.0
C      1  0.5886640000000  0.5328840000000  0.5165620000000 1.0
C      1  0.4861650000000  0.5368540000000  0.5986060000000 1.0
C      1  0.4520910000000  0.4567560000000  0.5845370000000 1.0
C      1  0.3888600000000  0.4743070000000  0.5009640000000 1.0
C      1  0.5485740000000  0.5591120000000  0.4927430000000 1.0
C      1  0.3916320000000  0.5195800000000  0.4288580000000 1.0
C      1  0.4117210000000  0.4503200000000  0.5070730000000 1.0
C      1  0.5829340000000  0.5293230000000  0.5693220000000 1.0
C      1  0.4296410000000  0.4910200000000  0.5343370000000 1.0
C      1  0.5367700000000  0.4012340000000  0.4755790000000 1.0
C      1  0.5374970000000  0.5320480000000  0.5939090000000 1.0
C      1  0.4685300000000  0.4145750000000  0.4371820000000 1.0
END
