TITL C-2778431-5191-1176 -0.00117613435494932 125000 -257.643149993928 0 0 46 (C1) n - 1
REM
REM in /home/nfs/bkarasulu/CARBON/AIRSS/Generating-Clusters/REBO/Only-C1/SD-CG/HFTN-CG
REM
REM
REM
REM
REM
REM ./C.cell (11c1c37f851c82e70ff6c80c92926a4b)
REM
REM compiler GCC version 9.2.1 20190827 (Red Hat 9.2.1-1)
REM options -cpp -mtune=generic -march=x86-64 -g -O0 -fpre-include=/usr/include/finclude/math-vector-fortran.h
REM seed -2033674532 -148931530 386651398 1600582644 -715399146 866083711 -572492213 -517462318 -1320271007 304637545 -1294218782 -188322966 -1198297864 2020681082 -1726985563 -976043487 84860585 -299185287 820434786 -911429309 -444995142 386071082 57406917 1710399417 -174104432 -391608927 1887060349 53278767 -19353388 1466272919 -1293866868 512881486 1387563190
REM
CELL 1.54180   50.00000   50.00000   50.00000   90.00000   90.00000   90.00000
LATT -1
SFAC C  
C      1  0.5556580000000  0.5209060000000  0.5271460000000 1.0
C      1  0.5195120000000  0.5289590000000  0.4760930000000 1.0
C      1  0.4884450000000  0.5545080000000  0.5116640000000 1.0
C      1  0.4582130000000  0.4610140000000  0.4967950000000 1.0
C      1  0.4615530000000  0.4927790000000  0.4883960000000 1.0
C      1  0.4674970000000  0.5031070000000  0.4314190000000 1.0
C      1  0.5345150000000  0.5492150000000  0.5626100000000 1.0
C      1  0.4832270000000  0.5279200000000  0.4487470000000 1.0
C      1  0.4436980000000  0.5385440000000  0.4857290000000 1.0
C      1  0.5462890000000  0.4667640000000  0.5069640000000 1.0
C      1  0.4560200000000  0.4847190000000  0.4554140000000 1.0
C      1  0.5039680000000  0.4697050000000  0.4284450000000 1.0
C      1  0.5373820000000  0.4904940000000  0.5470920000000 1.0
C      1  0.4853060000000  0.5010280000000  0.4666930000000 1.0
C      1  0.4562000000000  0.4876330000000  0.5437270000000 1.0
C      1  0.4330590000000  0.5269030000000  0.5083050000000 1.0
C      1  0.4534720000000  0.4630800000000  0.5295620000000 1.0
C      1  0.4820370000000  0.4363190000000  0.4990840000000 1.0
C      1  0.5285300000000  0.4648980000000  0.5329380000000 1.0
C      1  0.5028680000000  0.4465140000000  0.4521230000000 1.0
C      1  0.5560950000000  0.5398590000000  0.5465050000000 1.0
C      1  0.4618040000000  0.5435530000000  0.4660950000000 1.0
C      1  0.5627640000000  0.4869860000000  0.4617640000000 1.0
C      1  0.4853660000000  0.5072810000000  0.5059380000000 1.0
C      1  0.4973070000000  0.4963150000000  0.4288320000000 1.0
C      1  0.4894820000000  0.5254110000000  0.5564050000000 1.0
C      1  0.4976460000000  0.5486930000000  0.4869370000000 1.0
C      1  0.5067900000000  0.4788950000000  0.4749080000000 1.0
C      1  0.5373110000000  0.4984140000000  0.5134850000000 1.0
C      1  0.5141020000000  0.5042230000000  0.4943800000000 1.0
C      1  0.4931370000000  0.5536160000000  0.5393160000000 1.0
C      1  0.4753960000000  0.5192150000000  0.5288720000000 1.0
C      1  0.4457230000000  0.5141880000000  0.5304730000000 1.0
C      1  0.5476520000000  0.5406190000000  0.4795610000000 1.0
C      1  0.5299690000000  0.4649550000000  0.4583590000000 1.0
C      1  0.4801450000000  0.4480130000000  0.5272600000000 1.0
C      1  0.4953480000000  0.4273800000000  0.4774040000000 1.0
C      1  0.5157650000000  0.5172870000000  0.4466140000000 1.0
C      1  0.5161370000000  0.5676080000000  0.5498730000000 1.0
C      1  0.5181720000000  0.5280690000000  0.5735110000000 1.0
C      1  0.4869710000000  0.4910690000000  0.5547370000000 1.0
C      1  0.5003530000000  0.4633530000000  0.5399830000000 1.0
C      1  0.5180310000000  0.4993720000000  0.5651920000000 1.0
C      1  0.5389180000000  0.4951630000000  0.4452220000000 1.0
C      1  0.4776070000000  0.4620800000000  0.4688690000000 1.0
C      1  0.5545600000000  0.4633780000000  0.4805610000000 1.0
END
