TITL C-2778429-3646-966 -0.000905636316379598 125000 -569.937625781999 0 0 97 (C1) n - 1
REM
REM in /home/nfs/bkarasulu/CARBON/AIRSS/Generating-Clusters/REBO/Only-C1/SD-CG/HFTN-CG
REM
REM
REM
REM
REM
REM ./C.cell (11c1c37f851c82e70ff6c80c92926a4b)
REM
REM compiler GCC version 9.2.1 20190827 (Red Hat 9.2.1-1)
REM options -cpp -mtune=generic -march=x86-64 -g -O0 -fpre-include=/usr/include/finclude/math-vector-fortran.h
REM seed 1735940602 -583717512 -729126466 691224418 -513284164 518266292 1816343793 241417859 -1653911873 -1688764446 994740287 -341575895 396155111 -1665964464 1433708074 319507054 -935099667 -1164208818 1968935638 398677891 1641761516 940775880 1459139423 1914626973 -143659634 1525630835 681618797 934262380 1347792139 -744428487 1559083954 1129164270 1870147762
REM
CELL 1.54180   50.00000   50.00000   50.00000   90.00000   90.00000   90.00000
LATT -1
SFAC C  
C      1  0.4871070000000  0.5806460000000  0.4966290000000 1.0
C      1  0.4921760000000  0.5279750000000  0.4194440000000 1.0
C      1  0.4709930000000  0.4807310000000  0.4227800000000 1.0
C      1  0.5218840000000  0.4964550000000  0.5872870000000 1.0
C      1  0.5213250000000  0.4131640000000  0.4970520000000 1.0
C      1  0.4965130000000  0.5486570000000  0.4754250000000 1.0
C      1  0.5738220000000  0.5435370000000  0.5585630000000 1.0
C      1  0.5395660000000  0.4636130000000  0.4983510000000 1.0
C      1  0.4078760000000  0.5432920000000  0.5112520000000 1.0
C      1  0.5608890000000  0.4575730000000  0.4738730000000 1.0
C      1  0.4290140000000  0.4788180000000  0.4640020000000 1.0
C      1  0.5717640000000  0.5608040000000  0.5290000000000 1.0
C      1  0.4559590000000  0.4343070000000  0.5542100000000 1.0
C      1  0.5313290000000  0.5388260000000  0.4994000000000 1.0
C      1  0.5089620000000  0.4589860000000  0.4648550000000 1.0
C      1  0.4792190000000  0.5838860000000  0.5452360000000 1.0
C      1  0.4887310000000  0.4280140000000  0.4799210000000 1.0
C      1  0.4873710000000  0.4452170000000  0.5520990000000 1.0
C      1  0.4700150000000  0.5093670000000  0.4224950000000 1.0
C      1  0.4963040000000  0.4686770000000  0.4171390000000 1.0
C      1  0.4755190000000  0.4805900000000  0.5742950000000 1.0
C      1  0.4797070000000  0.5076890000000  0.5602460000000 1.0
C      1  0.5190130000000  0.5246360000000  0.5839350000000 1.0
C      1  0.4718610000000  0.4858550000000  0.4952240000000 1.0
C      1  0.4562020000000  0.5642440000000  0.5358520000000 1.0
C      1  0.5000660000000  0.4926380000000  0.5402670000000 1.0
C      1  0.5180140000000  0.5253380000000  0.4727110000000 1.0
C      1  0.4658970000000  0.5565080000000  0.4848650000000 1.0
C      1  0.4592910000000  0.4644180000000  0.5130560000000 1.0
C      1  0.4519480000000  0.5004470000000  0.4717910000000 1.0
C      1  0.4805310000000  0.4729710000000  0.4671500000000 1.0
C      1  0.5320640000000  0.5106200000000  0.4489820000000 1.0
C      1  0.5297930000000  0.4974020000000  0.5481160000000 1.0
C      1  0.5430970000000  0.5450270000000  0.5712370000000 1.0
C      1  0.5006990000000  0.4544920000000  0.4976050000000 1.0
C      1  0.5712430000000  0.4908650000000  0.4363370000000 1.0
C      1  0.5555890000000  0.5033840000000  0.5302250000000 1.0
C      1  0.5242570000000  0.4403900000000  0.5168220000000 1.0
C      1  0.4866510000000  0.5556300000000  0.5602280000000 1.0
C      1  0.5736210000000  0.4828670000000  0.4899810000000 1.0
C      1  0.5109600000000  0.5793850000000  0.4734910000000 1.0
C      1  0.4394820000000  0.4391480000000  0.5244710000000 1.0
C      1  0.5717800000000  0.5144820000000  0.4819540000000 1.0
C      1  0.5373790000000  0.4452130000000  0.5475680000000 1.0
C      1  0.4664210000000  0.5581040000000  0.4510400000000 1.0
C      1  0.5455080000000  0.5673870000000  0.5453390000000 1.0
C      1  0.4309700000000  0.4571190000000  0.4972160000000 1.0
C      1  0.4204290000000  0.5236920000000  0.4964290000000 1.0
C      1  0.4778080000000  0.4269080000000  0.4359150000000 1.0
C      1  0.4547160000000  0.4661070000000  0.5617200000000 1.0
C      1  0.5357930000000  0.4727270000000  0.5671880000000 1.0
C      1  0.5790480000000  0.5357030000000  0.5075640000000 1.0
C      1  0.5164420000000  0.5629850000000  0.4441310000000 1.0
C      1  0.5455980000000  0.5117520000000  0.5013730000000 1.0
C      1  0.5044790000000  0.4436110000000  0.4346260000000 1.0
C      1  0.4861460000000  0.5493520000000  0.5267400000000 1.0
C      1  0.4651930000000  0.4287960000000  0.4612570000000 1.0
C      1  0.5128340000000  0.4474530000000  0.5697020000000 1.0
C      1  0.4394960000000  0.4465230000000  0.4668230000000 1.0
C      1  0.5593850000000  0.4537520000000  0.5256800000000 1.0
C      1  0.5455190000000  0.5480780000000  0.4498710000000 1.0
C      1  0.4406320000000  0.5406060000000  0.5524020000000 1.0
C      1  0.5631240000000  0.5190880000000  0.4525130000000 1.0
C      1  0.4563960000000  0.5165790000000  0.5433920000000 1.0
C      1  0.4908730000000  0.5523980000000  0.4352790000000 1.0
C      1  0.4393840000000  0.4806100000000  0.5436270000000 1.0
C      1  0.5297870000000  0.5294360000000  0.5460130000000 1.0
C      1  0.4885140000000  0.4644740000000  0.5277420000000 1.0
C      1  0.4912790000000  0.4186450000000  0.5123470000000 1.0
C      1  0.5447770000000  0.4287550000000  0.4774970000000 1.0
C      1  0.4952270000000  0.4995910000000  0.5098750000000 1.0
C      1  0.4542880000000  0.5203960000000  0.4459020000000 1.0
C      1  0.5779660000000  0.5227640000000  0.5370550000000 1.0
C      1  0.4407130000000  0.5488150000000  0.4398410000000 1.0
C      1  0.4233600000000  0.5568750000000  0.5306060000000 1.0
C      1  0.5293720000000  0.4775810000000  0.4488930000000 1.0
C      1  0.5180420000000  0.4864580000000  0.4205750000000 1.0
C      1  0.4573450000000  0.4688580000000  0.4478720000000 1.0
C      1  0.5372050000000  0.5600530000000  0.4774220000000 1.0
C      1  0.4932750000000  0.5316920000000  0.5735740000000 1.0
C      1  0.5366220000000  0.4384350000000  0.4453460000000 1.0
C      1  0.5226700000000  0.5781690000000  0.5296210000000 1.0
C      1  0.4511840000000  0.5289650000000  0.4972060000000 1.0
C      1  0.4211140000000  0.4897420000000  0.4947190000000 1.0
C      1  0.5242750000000  0.4906030000000  0.4946500000000 1.0
C      1  0.5704120000000  0.4795470000000  0.5180130000000 1.0
C      1  0.5005440000000  0.4732340000000  0.5854630000000 1.0
C      1  0.5185000000000  0.5467950000000  0.5242980000000 1.0
C      1  0.4415450000000  0.4998780000000  0.5188950000000 1.0
C      1  0.5177150000000  0.5158400000000  0.4194500000000 1.0
C      1  0.4785460000000  0.5217640000000  0.4691390000000 1.0
C      1  0.4687140000000  0.4231090000000  0.5247340000000 1.0
C      1  0.5577910000000  0.4652390000000  0.4435350000000 1.0
C      1  0.5155240000000  0.4188530000000  0.4639200000000 1.0
C      1  0.4740930000000  0.5227490000000  0.5169290000000 1.0
C      1  0.4968110000000  0.5890150000000  0.5229780000000 1.0
C      1  0.5011120000000  0.4975530000000  0.4706450000000 1.0
END
