TITL C-2778430-5657-311 0.00245863905555482 125000 -1119.69680322843 0 0 192 (C1) n - 1
REM
REM in /home/nfs/bkarasulu/CARBON/AIRSS/Generating-Clusters/REBO/Only-C1/SD-CG/HFTN-CG
REM
REM
REM
REM
REM
REM ./C.cell (11c1c37f851c82e70ff6c80c92926a4b)
REM
REM compiler GCC version 9.2.1 20190827 (Red Hat 9.2.1-1)
REM options -cpp -mtune=generic -march=x86-64 -g -O0 -fpre-include=/usr/include/finclude/math-vector-fortran.h
REM seed 464495966 -1979999178 -236533913 -119623308 470969262 686903520 -1801547809 1256608340 -739713288 396220123 2040202189 -778820225 -867988831 931554750 256660532 388770083 -819807014 541274558 174454265 1545190439 -572598851 1894714731 -1826968571 1657532987 -923130633 -964541271 -245954750 1685548872 -1213768051 112719070 -279462080 -1693035714 -125863343
REM
CELL 1.54180   50.00000   50.00000   50.00000   90.00000   90.00000   90.00000
LATT -1
SFAC C  
C      1  0.4518570000000  0.4979940000000  0.5649940000000 1.0
C      1  0.5988140000000  0.4826440000000  0.4537390000000 1.0
C      1  0.4905590000000  0.4291210000000  0.4955970000000 1.0
C      1  0.5050610000000  0.4240670000000  0.5808550000000 1.0
C      1  0.5902830000000  0.5324790000000  0.5226480000000 1.0
C      1  0.4863930000000  0.5241730000000  0.4197160000000 1.0
C      1  0.4730090000000  0.5025130000000  0.4358420000000 1.0
C      1  0.4229520000000  0.5277060000000  0.4897110000000 1.0
C      1  0.4924970000000  0.4767180000000  0.4676390000000 1.0
C      1  0.5177990000000  0.5364710000000  0.4247710000000 1.0
C      1  0.4701220000000  0.5719790000000  0.4243430000000 1.0
C      1  0.4656770000000  0.3975750000000  0.4595960000000 1.0
C      1  0.5136170000000  0.4803920000000  0.6028770000000 1.0
C      1  0.5461260000000  0.4740690000000  0.5242840000000 1.0
C      1  0.6012850000000  0.5645740000000  0.5251100000000 1.0
C      1  0.5337100000000  0.5881290000000  0.4457110000000 1.0
C      1  0.4845790000000  0.4651430000000  0.5383270000000 1.0
C      1  0.5590580000000  0.4818780000000  0.4577220000000 1.0
C      1  0.5001840000000  0.5049390000000  0.5856560000000 1.0
C      1  0.4729540000000  0.5892720000000  0.4521770000000 1.0
C      1  0.4547450000000  0.6017920000000  0.4960220000000 1.0
C      1  0.4969500000000  0.5385480000000  0.5924810000000 1.0
C      1  0.4635320000000  0.4533690000000  0.4338690000000 1.0
C      1  0.6079250000000  0.4681240000000  0.4764520000000 1.0
C      1  0.6101960000000  0.4864380000000  0.5029130000000 1.0
C      1  0.5089270000000  0.4377850000000  0.4446870000000 1.0
C      1  0.5357690000000  0.4156700000000  0.4256000000000 1.0
C      1  0.5434560000000  0.5396130000000  0.4597410000000 1.0
C      1  0.4604940000000  0.5436810000000  0.4634010000000 1.0
C      1  0.5121020000000  0.4042140000000  0.4474270000000 1.0
C      1  0.4412400000000  0.4282830000000  0.5566980000000 1.0
C      1  0.5219310000000  0.4107400000000  0.5576450000000 1.0
C      1  0.5379480000000  0.4824490000000  0.4389820000000 1.0
C      1  0.4101120000000  0.4418760000000  0.5491430000000 1.0
C      1  0.5326640000000  0.4962270000000  0.4941670000000 1.0
C      1  0.4888790000000  0.5187300000000  0.5355160000000 1.0
C      1  0.5609050000000  0.4993260000000  0.5083590000000 1.0
C      1  0.4126580000000  0.4536010000000  0.4769180000000 1.0
C      1  0.4984010000000  0.5619860000000  0.5247230000000 1.0
C      1  0.5252920000000  0.5823040000000  0.5173270000000 1.0
C      1  0.4923090000000  0.4610570000000  0.4958510000000 1.0
C      1  0.5375650000000  0.4939270000000  0.6130150000000 1.0
C      1  0.5951530000000  0.4658780000000  0.5255320000000 1.0
C      1  0.4682790000000  0.5385090000000  0.5646340000000 1.0
C      1  0.5122770000000  0.4906250000000  0.5508530000000 1.0
C      1  0.5720020000000  0.4633180000000  0.5856660000000 1.0
C      1  0.4148590000000  0.5460850000000  0.5435470000000 1.0
C      1  0.4370020000000  0.5002420000000  0.4817370000000 1.0
C      1  0.4855490000000  0.5770880000000  0.4900110000000 1.0
C      1  0.5194890000000  0.5147900000000  0.4003790000000 1.0
C      1  0.4441500000000  0.5348360000000  0.5856520000000 1.0
C      1  0.5580440000000  0.4176570000000  0.5155040000000 1.0
C      1  0.4570530000000  0.3979910000000  0.5120310000000 1.0
C      1  0.4554520000000  0.4881610000000  0.3962310000000 1.0
C      1  0.4422820000000  0.4703470000000  0.4131040000000 1.0
C      1  0.5468250000000  0.4267340000000  0.5468500000000 1.0
C      1  0.5142150000000  0.3972170000000  0.4777770000000 1.0
C      1  0.4394790000000  0.5011960000000  0.4383190000000 1.0
C      1  0.4334740000000  0.4967630000000  0.5376340000000 1.0
C      1  0.4395180000000  0.5608480000000  0.4473000000000 1.0
C      1  0.4162840000000  0.5433160000000  0.4628670000000 1.0
C      1  0.5065980000000  0.6261350000000  0.5599990000000 1.0
C      1  0.5264630000000  0.4259270000000  0.5125050000000 1.0
C      1  0.5108580000000  0.6109220000000  0.5104040000000 1.0
C      1  0.4424300000000  0.4049980000000  0.4835460000000 1.0
C      1  0.4870420000000  0.3918050000000  0.4389830000000 1.0
C      1  0.4620300000000  0.5010010000000  0.5968790000000 1.0
C      1  0.5064070000000  0.4273590000000  0.4125490000000 1.0
C      1  0.5055280000000  0.4444660000000  0.5296790000000 1.0
C      1  0.5788390000000  0.5052220000000  0.4641010000000 1.0
C      1  0.5445200000000  0.4514960000000  0.5701850000000 1.0
C      1  0.5015840000000  0.5414380000000  0.4982390000000 1.0
C      1  0.5844200000000  0.4378270000000  0.5093940000000 1.0
C      1  0.4646210000000  0.5582580000000  0.4899240000000 1.0
C      1  0.5318840000000  0.5013040000000  0.5741270000000 1.0
C      1  0.4900930000000  0.4155130000000  0.5253800000000 1.0
C      1  0.5505830000000  0.4429330000000  0.4150120000000 1.0
C      1  0.4493070000000  0.4964080000000  0.5100410000000 1.0
C      1  0.4630840000000  0.4100700000000  0.5428910000000 1.0
C      1  0.5245190000000  0.6059820000000  0.4801730000000 1.0
C      1  0.4799980000000  0.4907190000000  0.5196820000000 1.0
C      1  0.5794500000000  0.5243530000000  0.4292410000000 1.0
C      1  0.5764590000000  0.5831860000000  0.4848590000000 1.0
C      1  0.4573520000000  0.4573160000000  0.5277400000000 1.0
C      1  0.4583840000000  0.4584620000000  0.4930570000000 1.0
C      1  0.4912100000000  0.5368370000000  0.4693130000000 1.0
C      1  0.4216510000000  0.5688190000000  0.4847670000000 1.0
C      1  0.5860390000000  0.4752530000000  0.4289590000000 1.0
C      1  0.4547500000000  0.5222240000000  0.3959210000000 1.0
C      1  0.5153300000000  0.4525900000000  0.5861880000000 1.0
C      1  0.5003780000000  0.5351180000000  0.5580720000000 1.0
C      1  0.4274780000000  0.5221760000000  0.4162430000000 1.0
C      1  0.4837830000000  0.4791550000000  0.3882730000000 1.0
C      1  0.5038840000000  0.4597840000000  0.4035340000000 1.0
C      1  0.5374130000000  0.5245090000000  0.5286800000000 1.0
C      1  0.5112090000000  0.5142440000000  0.5116540000000 1.0
C      1  0.5382550000000  0.5696860000000  0.5886770000000 1.0
C      1  0.4107930000000  0.5186370000000  0.4451990000000 1.0
C      1  0.5477530000000  0.5195010000000  0.5951930000000 1.0
C      1  0.4590080000000  0.5242330000000  0.5244350000000 1.0
C      1  0.5297100000000  0.5451750000000  0.5980910000000 1.0
C      1  0.5204480000000  0.4362560000000  0.4830540000000 1.0
C      1  0.5569050000000  0.5412680000000  0.4316430000000 1.0
C      1  0.4533410000000  0.4336660000000  0.4706950000000 1.0
C      1  0.5322580000000  0.5095230000000  0.4675490000000 1.0
C      1  0.4260570000000  0.4590850000000  0.5030190000000 1.0
C      1  0.5093990000000  0.5207860000000  0.4517900000000 1.0
C      1  0.5291900000000  0.5447030000000  0.5510940000000 1.0
C      1  0.5344560000000  0.4638000000000  0.4039070000000 1.0
C      1  0.3977850000000  0.5211430000000  0.5321650000000 1.0
C      1  0.5657790000000  0.4517210000000  0.5342150000000 1.0
C      1  0.4788710000000  0.4285290000000  0.4524490000000 1.0
C      1  0.4678630000000  0.5295900000000  0.6043160000000 1.0
C      1  0.4684350000000  0.5946260000000  0.5418590000000 1.0
C      1  0.4868610000000  0.4762020000000  0.4280290000000 1.0
C      1  0.5943210000000  0.4995420000000  0.5301300000000 1.0
C      1  0.5518450000000  0.5821530000000  0.5308930000000 1.0
C      1  0.4464950000000  0.5490390000000  0.4160480000000 1.0
C      1  0.5526100000000  0.5945810000000  0.4734470000000 1.0
C      1  0.4476350000000  0.5917180000000  0.5217580000000 1.0
C      1  0.4903800000000  0.5688760000000  0.5776980000000 1.0
C      1  0.6062740000000  0.5521000000000  0.5535040000000 1.0
C      1  0.5627370000000  0.5057440000000  0.5413120000000 1.0
C      1  0.4208960000000  0.5286190000000  0.5723800000000 1.0
C      1  0.4757030000000  0.4322030000000  0.4098490000000 1.0
C      1  0.5891360000000  0.4442680000000  0.4800590000000 1.0
C      1  0.4242220000000  0.4604450000000  0.4344180000000 1.0
C      1  0.3969220000000  0.5201520000000  0.5041980000000 1.0
C      1  0.4706480000000  0.5542560000000  0.5344150000000 1.0
C      1  0.4818970000000  0.4895590000000  0.5617110000000 1.0
C      1  0.4812050000000  0.4557480000000  0.5889820000000 1.0
C      1  0.5360860000000  0.5632340000000  0.4237690000000 1.0
C      1  0.5181950000000  0.4700510000000  0.5108850000000 1.0
C      1  0.5547450000000  0.5403230000000  0.5066190000000 1.0
C      1  0.5755040000000  0.4482330000000  0.4283450000000 1.0
C      1  0.5591320000000  0.5442970000000  0.5660570000000 1.0
C      1  0.4836970000000  0.6064870000000  0.4946270000000 1.0
C      1  0.4433370000000  0.5440990000000  0.5069520000000 1.0
C      1  0.5161640000000  0.5681410000000  0.4897380000000 1.0
C      1  0.4190440000000  0.4820620000000  0.4590620000000 1.0
C      1  0.3815350000000  0.4837220000000  0.5101930000000 1.0
C      1  0.3898450000000  0.4673190000000  0.5391240000000 1.0
C      1  0.4890810000000  0.5003260000000  0.4896580000000 1.0
C      1  0.5540830000000  0.4112240000000  0.4539600000000 1.0
C      1  0.5469250000000  0.4039970000000  0.4861140000000 1.0
C      1  0.4816260000000  0.3989870000000  0.4884260000000 1.0
C      1  0.4853800000000  0.5521580000000  0.4076230000000 1.0
C      1  0.4593300000000  0.4729500000000  0.4617000000000 1.0
C      1  0.5267310000000  0.3898810000000  0.5080960000000 1.0
C      1  0.4315910000000  0.4353250000000  0.5245420000000 1.0
C      1  0.6140150000000  0.5118300000000  0.4803900000000 1.0
C      1  0.4656460000000  0.5061620000000  0.4679860000000 1.0
C      1  0.3901420000000  0.4989390000000  0.4605890000000 1.0
C      1  0.5623720000000  0.5459980000000  0.4814170000000 1.0
C      1  0.5839210000000  0.4878470000000  0.5881510000000 1.0
C      1  0.4424560000000  0.5581530000000  0.5534910000000 1.0
C      1  0.3954300000000  0.4982640000000  0.5496180000000 1.0
C      1  0.5774400000000  0.5156380000000  0.5876900000000 1.0
C      1  0.4298530000000  0.4355090000000  0.4459260000000 1.0
C      1  0.4329420000000  0.4663880000000  0.5495690000000 1.0
C      1  0.5419570000000  0.4943120000000  0.4083130000000 1.0
C      1  0.4330430000000  0.4753790000000  0.5814510000000 1.0
C      1  0.5879360000000  0.5577900000000  0.4708100000000 1.0
C      1  0.4650410000000  0.5782880000000  0.5658370000000 1.0
C      1  0.4924620000000  0.5622090000000  0.4482250000000 1.0
C      1  0.4155480000000  0.4220780000000  0.4712810000000 1.0
C      1  0.5615800000000  0.4581100000000  0.4711710000000 1.0
C      1  0.5500320000000  0.5767510000000  0.5627530000000 1.0
C      1  0.5057830000000  0.3914470000000  0.5272800000000 1.0
C      1  0.4774190000000  0.4797870000000  0.6064700000000 1.0
C      1  0.4891550000000  0.4032930000000  0.5630850000000 1.0
C      1  0.5803260000000  0.5820280000000  0.5138670000000 1.0
C      1  0.5222070000000  0.5617840000000  0.4610390000000 1.0
C      1  0.5987940000000  0.5311940000000  0.4565640000000 1.0
C      1  0.4129040000000  0.4806820000000  0.5183030000000 1.0
C      1  0.4456010000000  0.5867340000000  0.4692690000000 1.0
C      1  0.5003260000000  0.6030700000000  0.5406050000000 1.0
C      1  0.5111750000000  0.5734620000000  0.5536330000000 1.0
C      1  0.5037860000000  0.5993010000000  0.4578150000000 1.0
C      1  0.4126720000000  0.5011830000000  0.5719000000000 1.0
C      1  0.5498400000000  0.4802190000000  0.5572250000000 1.0
C      1  0.4544020000000  0.4489320000000  0.5781040000000 1.0
C      1  0.5803910000000  0.4297580000000  0.4505960000000 1.0
C      1  0.5652760000000  0.5519630000000  0.5354600000000 1.0
C      1  0.4252190000000  0.5675570000000  0.5188370000000 1.0
C      1  0.5729160000000  0.4986230000000  0.4178150000000 1.0
C      1  0.5125330000000  0.4678600000000  0.4458990000000 1.0
C      1  0.3796970000000  0.5024110000000  0.4870230000000 1.0
C      1  0.5832880000000  0.5148290000000  0.4950320000000 1.0
C      1  0.5894360000000  0.5373720000000  0.5712400000000 1.0
C      1  0.5422520000000  0.4385630000000  0.4666880000000 1.0
C      1  0.4871600000000  0.5113620000000  0.3898360000000 1.0
END
