TITL C-2778431-5191-593 -0.00516149135821669 125000 -402.857734077 0 0 70 (C1) n - 1
REM
REM in /home/nfs/bkarasulu/CARBON/AIRSS/Generating-Clusters/REBO/Only-C1/SD-CG/HFTN-CG
REM
REM
REM
REM
REM
REM ./C.cell (11c1c37f851c82e70ff6c80c92926a4b)
REM
REM compiler GCC version 9.2.1 20190827 (Red Hat 9.2.1-1)
REM options -cpp -mtune=generic -march=x86-64 -g -O0 -fpre-include=/usr/include/finclude/math-vector-fortran.h
REM seed -314721155 -1224140763 -585035703 -1338289176 98984380 -70810502 1240666876 1208370027 -118806068 -1060356286 731414746 1786605714 1615513265 -745386084 -1852446327 1265579067 991299027 734598639 -205608400 -2097334828 -1344546035 1028809120 -1163829848 2146685273 1038272422 1788077660 301662813 -1661777277 -1231411179 287655144 -1494551225 -885334869 1845009528
REM
CELL 1.54180   50.00000   50.00000   50.00000   90.00000   90.00000   90.00000
LATT -1
SFAC C  
C      1  0.4108590000000  0.5206440000000  0.4806150000000 1.0
C      1  0.5179630000000  0.5161720000000  0.5786500000000 1.0
C      1  0.4808030000000  0.5553550000000  0.4468620000000 1.0
C      1  0.4551510000000  0.4520690000000  0.5333370000000 1.0
C      1  0.4699980000000  0.4586010000000  0.5062000000000 1.0
C      1  0.5154980000000  0.5529940000000  0.4862730000000 1.0
C      1  0.5540550000000  0.4187760000000  0.4914400000000 1.0
C      1  0.4573160000000  0.5696320000000  0.4901500000000 1.0
C      1  0.4782590000000  0.4889930000000  0.5151100000000 1.0
C      1  0.4664210000000  0.5354240000000  0.4246970000000 1.0
C      1  0.4977320000000  0.5513720000000  0.5104640000000 1.0
C      1  0.5336870000000  0.5247380000000  0.4803150000000 1.0
C      1  0.4469300000000  0.5489470000000  0.4453040000000 1.0
C      1  0.5593140000000  0.4688550000000  0.5135010000000 1.0
C      1  0.5329130000000  0.4433200000000  0.4320880000000 1.0
C      1  0.5281470000000  0.5284190000000  0.4469010000000 1.0
C      1  0.5514420000000  0.5336410000000  0.5310910000000 1.0
C      1  0.5438840000000  0.4723520000000  0.4451720000000 1.0
C      1  0.4938750000000  0.5120920000000  0.5040920000000 1.0
C      1  0.5183130000000  0.5374360000000  0.5606790000000 1.0
C      1  0.4715240000000  0.5177440000000  0.5533850000000 1.0
C      1  0.4388040000000  0.4692980000000  0.4838870000000 1.0
C      1  0.4686360000000  0.5458720000000  0.5605740000000 1.0
C      1  0.5067300000000  0.4506160000000  0.4704850000000 1.0
C      1  0.4888720000000  0.5160100000000  0.4776240000000 1.0
C      1  0.5300430000000  0.4708310000000  0.4156130000000 1.0
C      1  0.4803170000000  0.4779770000000  0.5678290000000 1.0
C      1  0.4897730000000  0.5651140000000  0.5566430000000 1.0
C      1  0.5154860000000  0.4273170000000  0.5445160000000 1.0
C      1  0.5017350000000  0.5394760000000  0.4615450000000 1.0
C      1  0.4670510000000  0.5508520000000  0.5089110000000 1.0
C      1  0.5166650000000  0.4949430000000  0.4098060000000 1.0
C      1  0.4463840000000  0.4908830000000  0.5063240000000 1.0
C      1  0.5285500000000  0.5176530000000  0.4225090000000 1.0
C      1  0.5299220000000  0.5792270000000  0.4819990000000 1.0
C      1  0.5689210000000  0.4822980000000  0.4502880000000 1.0
C      1  0.5670690000000  0.4983160000000  0.5212510000000 1.0
C      1  0.4965230000000  0.5073340000000  0.5461700000000 1.0
C      1  0.5378680000000  0.5588530000000  0.5332490000000 1.0
C      1  0.5253470000000  0.4942060000000  0.4870970000000 1.0
C      1  0.5584920000000  0.4403240000000  0.5135390000000 1.0
C      1  0.5029000000000  0.4885670000000  0.5808990000000 1.0
C      1  0.5318160000000  0.4824990000000  0.5118750000000 1.0
C      1  0.4475410000000  0.5047550000000  0.5352470000000 1.0
C      1  0.5094540000000  0.5672220000000  0.5356180000000 1.0
C      1  0.4680780000000  0.5000540000000  0.4579310000000 1.0
C      1  0.4508110000000  0.4729170000000  0.4618440000000 1.0
C      1  0.5238960000000  0.4045350000000  0.5003580000000 1.0
C      1  0.5214100000000  0.4752930000000  0.4669470000000 1.0
C      1  0.4428000000000  0.5087010000000  0.4790310000000 1.0
C      1  0.5266730000000  0.5618360000000  0.5713640000000 1.0
C      1  0.5119100000000  0.5282200000000  0.5283540000000 1.0
C      1  0.4882660000000  0.4948200000000  0.4105100000000 1.0
C      1  0.4306190000000  0.5357100000000  0.4619680000000 1.0
C      1  0.5566410000000  0.5074590000000  0.5494240000000 1.0
C      1  0.4663190000000  0.5772560000000  0.4655580000000 1.0
C      1  0.5345320000000  0.4235580000000  0.5255060000000 1.0
C      1  0.4856980000000  0.4367740000000  0.5356920000000 1.0
C      1  0.5561370000000  0.5214860000000  0.5024470000000 1.0
C      1  0.4907740000000  0.4686730000000  0.5387670000000 1.0
C      1  0.5195770000000  0.4299820000000  0.4537960000000 1.0
C      1  0.4408190000000  0.5549060000000  0.5513290000000 1.0
C      1  0.4488300000000  0.5374180000000  0.5269970000000 1.0
C      1  0.4714870000000  0.5081360000000  0.4286730000000 1.0
C      1  0.4536530000000  0.4760700000000  0.5510490000000 1.0
C      1  0.5181770000000  0.4831260000000  0.5375870000000 1.0
C      1  0.4981650000000  0.4205860000000  0.5091190000000 1.0
C      1  0.5328480000000  0.4099310000000  0.4687830000000 1.0
C      1  0.5336230000000  0.4913410000000  0.5648310000000 1.0
C      1  0.4892780000000  0.4431970000000  0.4923100000000 1.0
END
