TITL C-2778433-5640-574 -0.00195839176372266 125000 -292.767129550475 0 0 51 (C1) n - 1
REM
REM in /home/nfs/bkarasulu/CARBON/AIRSS/Generating-Clusters/REBO/Only-C1/SD-CG/HFTN-CG
REM
REM
REM
REM
REM
REM ./C.cell (11c1c37f851c82e70ff6c80c92926a4b)
REM
REM compiler GCC version 9.2.1 20190827 (Red Hat 9.2.1-1)
REM options -cpp -mtune=generic -march=x86-64 -g -O0 -fpre-include=/usr/include/finclude/math-vector-fortran.h
REM seed 1033510334 1422950625 -1301718281 1165693795 456392390 729623808 67747770 -995831505 -1153583357 -1226588656 -1281540851 -1284468422 -747527995 -197635142 1967151707 -628273554 -1011208571 -887442760 -1883049323 2000594260 676587902 -1311430081 -1045196619 -435282329 70929896 -1643806063 629150560 -860432024 -102435107 -238808381 -1341224107 737046943 1832118005
REM
CELL 1.54180   50.00000   50.00000   50.00000   90.00000   90.00000   90.00000
LATT -1
SFAC C  
C      1  0.5526110000000  0.4375360000000  0.5306580000000 1.0
C      1  0.5396640000000  0.5361760000000  0.4841430000000 1.0
C      1  0.4925990000000  0.5004020000000  0.5632020000000 1.0
C      1  0.5691100000000  0.4217890000000  0.4839980000000 1.0
C      1  0.5470060000000  0.4619270000000  0.4892340000000 1.0
C      1  0.4794270000000  0.4621050000000  0.4472550000000 1.0
C      1  0.5065400000000  0.4520000000000  0.5478950000000 1.0
C      1  0.4908230000000  0.4450380000000  0.5007300000000 1.0
C      1  0.4859440000000  0.5616510000000  0.4537120000000 1.0
C      1  0.5371740000000  0.5249770000000  0.5456650000000 1.0
C      1  0.4222150000000  0.5269710000000  0.4847950000000 1.0
C      1  0.5065930000000  0.4909390000000  0.5160340000000 1.0
C      1  0.4575780000000  0.5683800000000  0.5212680000000 1.0
C      1  0.5229680000000  0.5601280000000  0.4959680000000 1.0
C      1  0.5195170000000  0.4786490000000  0.4542300000000 1.0
C      1  0.5082950000000  0.4475310000000  0.4503860000000 1.0
C      1  0.5601630000000  0.4282730000000  0.4582850000000 1.0
C      1  0.4968630000000  0.4362960000000  0.4785470000000 1.0
C      1  0.4904660000000  0.4655010000000  0.5246730000000 1.0
C      1  0.5832170000000  0.5102640000000  0.5125220000000 1.0
C      1  0.4596360000000  0.5176040000000  0.4950750000000 1.0
C      1  0.4572120000000  0.4665000000000  0.5025720000000 1.0
C      1  0.4370390000000  0.5000170000000  0.5339790000000 1.0
C      1  0.4682790000000  0.5480060000000  0.5378160000000 1.0
C      1  0.5078750000000  0.5119640000000  0.5392080000000 1.0
C      1  0.5406840000000  0.4533430000000  0.4583740000000 1.0
C      1  0.4814080000000  0.5108360000000  0.4398730000000 1.0
C      1  0.5150330000000  0.5602000000000  0.5234260000000 1.0
C      1  0.5033050000000  0.4930000000000  0.5860120000000 1.0
C      1  0.5068470000000  0.4932880000000  0.4821790000000 1.0
C      1  0.5521150000000  0.5124450000000  0.4985300000000 1.0
C      1  0.4342520000000  0.5172180000000  0.5118490000000 1.0
C      1  0.5260120000000  0.5327820000000  0.4569500000000 1.0
C      1  0.4741260000000  0.4854970000000  0.4313320000000 1.0
C      1  0.5594030000000  0.4405520000000  0.5035680000000 1.0
C      1  0.4601130000000  0.5658860000000  0.4939480000000 1.0
C      1  0.5084220000000  0.5091490000000  0.4534170000000 1.0
C      1  0.5112100000000  0.5579850000000  0.4665910000000 1.0
C      1  0.4946530000000  0.5402940000000  0.5315160000000 1.0
C      1  0.5349780000000  0.5537050000000  0.5438340000000 1.0
C      1  0.4598150000000  0.4747220000000  0.5329280000000 1.0
C      1  0.4534670000000  0.5301100000000  0.5541130000000 1.0
C      1  0.4336210000000  0.5311010000000  0.4598000000000 1.0
C      1  0.5581620000000  0.5150840000000  0.5308490000000 1.0
C      1  0.4655440000000  0.5413740000000  0.4813250000000 1.0
C      1  0.4685940000000  0.4639720000000  0.4728640000000 1.0
C      1  0.4655960000000  0.5357920000000  0.4490700000000 1.0
C      1  0.5348750000000  0.4876890000000  0.4976200000000 1.0
C      1  0.4631370000000  0.4990370000000  0.5559810000000 1.0
C      1  0.5316540000000  0.4419140000000  0.5473430000000 1.0
C      1  0.4641650000000  0.4923990000000  0.4848570000000 1.0
END
