TITL C-2778424-3986-737 0.171133929622693 125000 -285.76984403147 0 0 51 (C1) n - 1
REM
REM in /home/nfs/bkarasulu/CARBON/AIRSS/Generating-Clusters/REBO/Only-C1/SD-CG/HFTN-CG
REM
REM
REM
REM
REM
REM ./C.cell (11c1c37f851c82e70ff6c80c92926a4b)
REM
REM compiler GCC version 9.2.1 20190827 (Red Hat 9.2.1-1)
REM options -cpp -mtune=generic -march=x86-64 -g -O0 -fpre-include=/usr/include/finclude/math-vector-fortran.h
REM seed -1177109471 -1530639973 -1906202524 -831047671 -623965256 1475826169 -1055562552 -2121065463 -462042900 1917316897 -485164561 1743176715 1119372263 -1808133145 -875344568 -639959552 -187607541 1480195071 1634993957 627641617 1531805179 1179131506 -1800384935 -252451008 464602436 1642578698 -474571910 1539825360 1382288377 -277871937 -767934381 1936275549 -1414457650
REM
CELL 1.54180   50.00000   50.00000   50.00000   90.00000   90.00000   90.00000
LATT -1
SFAC C  
C      1  0.5264180000000  0.5269660000000  0.5687150000000 1.0
C      1  0.4952970000000  0.4661260000000  0.4437960000000 1.0
C      1  0.4365630000000  0.5923530000000  0.5152890000000 1.0
C      1  0.5397630000000  0.4766560000000  0.5652960000000 1.0
C      1  0.4678110000000  0.4649810000000  0.4591120000000 1.0
C      1  0.5126140000000  0.4916490000000  0.4874250000000 1.0
C      1  0.4775490000000  0.5360870000000  0.5493560000000 1.0
C      1  0.5126390000000  0.5401430000000  0.4896740000000 1.0
C      1  0.5335880000000  0.5798260000000  0.4649900000000 1.0
C      1  0.4956320000000  0.4482740000000  0.4217120000000 1.0
C      1  0.4669980000000  0.4881930000000  0.5494890000000 1.0
C      1  0.4772680000000  0.5406970000000  0.4321640000000 1.0
C      1  0.5572510000000  0.5136500000000  0.4962490000000 1.0
C      1  0.5489000000000  0.4467880000000  0.5275230000000 1.0
C      1  0.4697960000000  0.5123290000000  0.4730520000000 1.0
C      1  0.4737330000000  0.4249310000000  0.5145470000000 1.0
C      1  0.4552830000000  0.4835270000000  0.4706220000000 1.0
C      1  0.4811970000000  0.5164190000000  0.4449470000000 1.0
C      1  0.5381050000000  0.5028570000000  0.5710290000000 1.0
C      1  0.4596780000000  0.5602870000000  0.5435700000000 1.0
C      1  0.5594080000000  0.4984310000000  0.4719890000000 1.0
C      1  0.4855970000000  0.4320140000000  0.5391190000000 1.0
C      1  0.4537360000000  0.5714670000000  0.5182060000000 1.0
C      1  0.5402860000000  0.5115690000000  0.4497810000000 1.0
C      1  0.5233080000000  0.5149710000000  0.4751440000000 1.0
C      1  0.5327880000000  0.4540720000000  0.5501880000000 1.0
C      1  0.4661530000000  0.5096450000000  0.5621170000000 1.0
C      1  0.4863040000000  0.4926770000000  0.4940020000000 1.0
C      1  0.5390160000000  0.5326440000000  0.5073080000000 1.0
C      1  0.4689710000000  0.5612760000000  0.4965350000000 1.0
C      1  0.4249220000000  0.4019160000000  0.5112800000000 1.0
C      1  0.5120740000000  0.5679160000000  0.4772280000000 1.0
C      1  0.4735530000000  0.5636530000000  0.4200780000000 1.0
C      1  0.5760190000000  0.4488320000000  0.5281740000000 1.0
C      1  0.5244120000000  0.5038640000000  0.4277920000000 1.0
C      1  0.4811860000000  0.5322230000000  0.4967290000000 1.0
C      1  0.5347880000000  0.4400890000000  0.5041330000000 1.0
C      1  0.4483400000000  0.4658010000000  0.5099170000000 1.0
C      1  0.4673990000000  0.4844300000000  0.5180460000000 1.0
C      1  0.4979450000000  0.4958980000000  0.4346620000000 1.0
C      1  0.5184500000000  0.4600130000000  0.4636590000000 1.0
C      1  0.5428440000000  0.5456420000000  0.5314930000000 1.0
C      1  0.5427140000000  0.4743620000000  0.4641730000000 1.0
C      1  0.5141700000000  0.4421820000000  0.4849610000000 1.0
C      1  0.5466690000000  0.5582360000000  0.5541560000000 1.0
C      1  0.4857550000000  0.5783330000000  0.4808380000000 1.0
C      1  0.4893160000000  0.4307840000000  0.4917160000000 1.0
C      1  0.4765200000000  0.5169090000000  0.5233550000000 1.0
C      1  0.4485830000000  0.4130730000000  0.5128640000000 1.0
C      1  0.5056050000000  0.5416960000000  0.5603730000000 1.0
C      1  0.5070860000000  0.4426460000000  0.5514240000000 1.0
END
