TITL C-2778423-5760-1347 -0.0025527460597201 125000 -703.734009289029 0 0 124 (C1) n - 1
REM
REM in /home/nfs/bkarasulu/CARBON/AIRSS/Generating-Clusters/REBO/Only-C1/SD-CG/HFTN-CG
REM
REM
REM
REM
REM
REM ./C.cell (11c1c37f851c82e70ff6c80c92926a4b)
REM
REM compiler GCC version 9.2.1 20190827 (Red Hat 9.2.1-1)
REM options -cpp -mtune=generic -march=x86-64 -g -O0 -fpre-include=/usr/include/finclude/math-vector-fortran.h
REM seed -323205519 1120686577 921189973 1031541572 -1239425804 362418758 -1902744431 1477058468 -1039581680 1917877663 -558136631 358296322 1624797033 -1855877542 -1068320917 192121212 776961469 1718201722 1471472667 -1049321154 -1438846716 462834145 -188026657 1840695953 1919634397 -1105328600 -2063754435 -814689223 -158711157 485341867 -489541339 -1915082172 1241368183
REM
CELL 1.54180   50.00000   50.00000   50.00000   90.00000   90.00000   90.00000
LATT -1
SFAC C  
C      1  0.5490640000000  0.5568780000000  0.4722690000000 1.0
C      1  0.4459980000000  0.4366220000000  0.5000730000000 1.0
C      1  0.4641140000000  0.5293060000000  0.5893650000000 1.0
C      1  0.5733580000000  0.4993170000000  0.5481330000000 1.0
C      1  0.5361590000000  0.6000990000000  0.4123250000000 1.0
C      1  0.4185560000000  0.4735360000000  0.5160410000000 1.0
C      1  0.5888780000000  0.4929120000000  0.4853560000000 1.0
C      1  0.4999000000000  0.4599090000000  0.4606700000000 1.0
C      1  0.5007310000000  0.5339250000000  0.5526630000000 1.0
C      1  0.4813540000000  0.5540570000000  0.5732860000000 1.0
C      1  0.4563980000000  0.4623310000000  0.4711760000000 1.0
C      1  0.4286910000000  0.4501520000000  0.4450570000000 1.0
C      1  0.5924200000000  0.5188560000000  0.5016520000000 1.0
C      1  0.5136460000000  0.5147140000000  0.5276960000000 1.0
C      1  0.5720690000000  0.5516810000000  0.5334030000000 1.0
C      1  0.5708410000000  0.5204550000000  0.5262110000000 1.0
C      1  0.5591150000000  0.4453390000000  0.5069750000000 1.0
C      1  0.5687250000000  0.4147600000000  0.4806830000000 1.0
C      1  0.5127620000000  0.5067260000000  0.4746120000000 1.0
C      1  0.5047300000000  0.5766570000000  0.5703940000000 1.0
C      1  0.4550570000000  0.4560780000000  0.4317440000000 1.0
C      1  0.4487320000000  0.4847360000000  0.4462860000000 1.0
C      1  0.4656470000000  0.4328960000000  0.5201650000000 1.0
C      1  0.5359760000000  0.5026660000000  0.4579570000000 1.0
C      1  0.4776620000000  0.4656250000000  0.5776750000000 1.0
C      1  0.5542910000000  0.5411690000000  0.5604660000000 1.0
C      1  0.4756500000000  0.5700210000000  0.5437590000000 1.0
C      1  0.4103690000000  0.5204180000000  0.5310950000000 1.0
C      1  0.5475380000000  0.5307040000000  0.4422560000000 1.0
C      1  0.4821840000000  0.5702820000000  0.4475900000000 1.0
C      1  0.4474550000000  0.5382960000000  0.4465640000000 1.0
C      1  0.5170160000000  0.5793670000000  0.5456270000000 1.0
C      1  0.5060050000000  0.4894990000000  0.6042110000000 1.0
C      1  0.5418250000000  0.5145460000000  0.5094890000000 1.0
C      1  0.4541340000000  0.5225380000000  0.5409000000000 1.0
C      1  0.4685340000000  0.5890290000000  0.4571780000000 1.0
C      1  0.4727130000000  0.4512530000000  0.5479050000000 1.0
C      1  0.5300570000000  0.4557850000000  0.4690930000000 1.0
C      1  0.4186680000000  0.5230010000000  0.4701820000000 1.0
C      1  0.5149700000000  0.4311430000000  0.5196490000000 1.0
C      1  0.5497360000000  0.4746300000000  0.4611020000000 1.0
C      1  0.5509300000000  0.4861340000000  0.5246250000000 1.0
C      1  0.4876440000000  0.3905590000000  0.5094220000000 1.0
C      1  0.5584990000000  0.5254770000000  0.4818570000000 1.0
C      1  0.5049790000000  0.5355610000000  0.4792100000000 1.0
C      1  0.4861930000000  0.4643590000000  0.6075090000000 1.0
C      1  0.5328080000000  0.5125740000000  0.4197770000000 1.0
C      1  0.5269130000000  0.4230280000000  0.5462740000000 1.0
C      1  0.5329400000000  0.4403810000000  0.5703540000000 1.0
C      1  0.4705730000000  0.4680650000000  0.5017610000000 1.0
C      1  0.4966630000000  0.5814950000000  0.5208430000000 1.0
C      1  0.5781040000000  0.4430880000000  0.4804730000000 1.0
C      1  0.5776710000000  0.5388170000000  0.4494460000000 1.0
C      1  0.4275200000000  0.4796570000000  0.5453300000000 1.0
C      1  0.5288100000000  0.5051880000000  0.5905210000000 1.0
C      1  0.5758810000000  0.4685620000000  0.4685310000000 1.0
C      1  0.4251320000000  0.5060370000000  0.5057950000000 1.0
C      1  0.5879040000000  0.4763620000000  0.5362000000000 1.0
C      1  0.5035700000000  0.4629830000000  0.5558660000000 1.0
C      1  0.4556080000000  0.4700100000000  0.5303100000000 1.0
C      1  0.4815730000000  0.5664470000000  0.4873940000000 1.0
C      1  0.4476730000000  0.5096650000000  0.4082350000000 1.0
C      1  0.5445130000000  0.5599870000000  0.5058280000000 1.0
C      1  0.5335100000000  0.5802200000000  0.4281070000000 1.0
C      1  0.5529070000000  0.4211920000000  0.5273310000000 1.0
C      1  0.5013630000000  0.5929820000000  0.4796340000000 1.0
C      1  0.4823380000000  0.4553600000000  0.4250400000000 1.0
C      1  0.4751380000000  0.5169030000000  0.5608330000000 1.0
C      1  0.5031600000000  0.4697410000000  0.5094650000000 1.0
C      1  0.5061600000000  0.4386880000000  0.4265480000000 1.0
C      1  0.4291010000000  0.5201830000000  0.4295020000000 1.0
C      1  0.4069720000000  0.4944350000000  0.4791550000000 1.0
C      1  0.4192730000000  0.4965700000000  0.4486760000000 1.0
C      1  0.4231570000000  0.4536080000000  0.4967380000000 1.0
C      1  0.5239560000000  0.4837030000000  0.4321250000000 1.0
C      1  0.4787130000000  0.5208620000000  0.4898490000000 1.0
C      1  0.4119100000000  0.5508820000000  0.5269560000000 1.0
C      1  0.4776770000000  0.4980450000000  0.5879870000000 1.0
C      1  0.4157020000000  0.4542910000000  0.4690230000000 1.0
C      1  0.5752910000000  0.5070730000000  0.4580780000000 1.0
C      1  0.5215440000000  0.4054450000000  0.4890110000000 1.0
C      1  0.4348540000000  0.5239250000000  0.5758320000000 1.0
C      1  0.5249430000000  0.4683130000000  0.5342280000000 1.0
C      1  0.5196040000000  0.4665800000000  0.5856830000000 1.0
C      1  0.5233920000000  0.5015330000000  0.5563930000000 1.0
C      1  0.4898170000000  0.5008980000000  0.5130150000000 1.0
C      1  0.4748540000000  0.5970760000000  0.4994180000000 1.0
C      1  0.4561680000000  0.5008110000000  0.5196310000000 1.0
C      1  0.5423800000000  0.5651490000000  0.5389180000000 1.0
C      1  0.4934720000000  0.4826800000000  0.4350920000000 1.0
C      1  0.5804870000000  0.5648970000000  0.4629890000000 1.0
C      1  0.5017770000000  0.5455590000000  0.4492200000000 1.0
C      1  0.4314190000000  0.5376030000000  0.4937460000000 1.0
C      1  0.5455900000000  0.4780150000000  0.5669610000000 1.0
C      1  0.5765530000000  0.5490720000000  0.4996210000000 1.0
C      1  0.5006140000000  0.3928670000000  0.4695130000000 1.0
C      1  0.5259800000000  0.5324250000000  0.5717950000000 1.0
C      1  0.4893720000000  0.4185200000000  0.5087050000000 1.0
C      1  0.4204860000000  0.5061560000000  0.5549230000000 1.0
C      1  0.5017800000000  0.4185060000000  0.4471550000000 1.0
C      1  0.4307860000000  0.5690180000000  0.5052380000000 1.0
C      1  0.4561510000000  0.4288730000000  0.4719860000000 1.0
C      1  0.5476520000000  0.4079500000000  0.4988720000000 1.0
C      1  0.5771690000000  0.4717240000000  0.5083360000000 1.0
C      1  0.5295810000000  0.4506300000000  0.4989690000000 1.0
C      1  0.4642060000000  0.4937770000000  0.4815560000000 1.0
C      1  0.5006630000000  0.5161020000000  0.4320660000000 1.0
C      1  0.5532890000000  0.4526890000000  0.5458570000000 1.0
C      1  0.4671740000000  0.5118810000000  0.4367940000000 1.0
C      1  0.4469290000000  0.5855830000000  0.4834550000000 1.0
C      1  0.4598820000000  0.5483420000000  0.5252850000000 1.0
C      1  0.5583270000000  0.5095670000000  0.5735000000000 1.0
C      1  0.5313800000000  0.4535030000000  0.4246360000000 1.0
C      1  0.4315560000000  0.5460240000000  0.5530660000000 1.0
C      1  0.4428210000000  0.5591520000000  0.4621990000000 1.0
C      1  0.4624380000000  0.5451260000000  0.4957820000000 1.0
C      1  0.5617170000000  0.4958680000000  0.4288490000000 1.0
C      1  0.4424230000000  0.5740570000000  0.5369410000000 1.0
C      1  0.5303700000000  0.5566570000000  0.4468140000000 1.0
C      1  0.4944190000000  0.4874020000000  0.4746750000000 1.0
C      1  0.5130250000000  0.5603280000000  0.4994580000000 1.0
C      1  0.5594440000000  0.4682140000000  0.4228650000000 1.0
C      1  0.4725800000000  0.4091040000000  0.4621130000000 1.0
C      1  0.5007750000000  0.4313140000000  0.4793010000000 1.0
END
