TITL C-2778423-5760-577 -0.000561618669932411 125000 -494.365154471903 0 0 84 (C1) n - 1
REM
REM in /home/nfs/bkarasulu/CARBON/AIRSS/Generating-Clusters/REBO/Only-C1/SD-CG/HFTN-CG
REM
REM
REM
REM
REM
REM ./C.cell (11c1c37f851c82e70ff6c80c92926a4b)
REM
REM compiler GCC version 9.2.1 20190827 (Red Hat 9.2.1-1)
REM options -cpp -mtune=generic -march=x86-64 -g -O0 -fpre-include=/usr/include/finclude/math-vector-fortran.h
REM seed 1900670892 -199878150 1676369465 -697786289 1677084437 -798446155 -1668369367 -2027184906 881565121 -700934231 -1757643481 -492120162 -979133609 1866588743 -17941001 79396370 706926869 -1951906797 1152602158 574585456 -504371825 312592053 2122973769 1689063076 -1069770690 -239356158 -1051327611 -1882084482 -555415745 1998889159 -1383268475 10680975 1846024936
REM
CELL 1.54180   50.00000   50.00000   50.00000   90.00000   90.00000   90.00000
LATT -1
SFAC C  
C      1  0.5349040000000  0.5008180000000  0.4665990000000 1.0
C      1  0.5316530000000  0.4617660000000  0.5259800000000 1.0
C      1  0.4312780000000  0.4568350000000  0.4918400000000 1.0
C      1  0.4651300000000  0.5263830000000  0.4251920000000 1.0
C      1  0.5344260000000  0.5638010000000  0.4672570000000 1.0
C      1  0.5671930000000  0.4778860000000  0.4357270000000 1.0
C      1  0.4834050000000  0.4924110000000  0.4826850000000 1.0
C      1  0.5568270000000  0.4816890000000  0.5301170000000 1.0
C      1  0.5022970000000  0.4955570000000  0.4383880000000 1.0
C      1  0.5501450000000  0.4605940000000  0.4968850000000 1.0
C      1  0.4770320000000  0.5716420000000  0.4545120000000 1.0
C      1  0.5373730000000  0.4289600000000  0.4761050000000 1.0
C      1  0.4830860000000  0.4602870000000  0.4713870000000 1.0
C      1  0.4840130000000  0.4770230000000  0.4451260000000 1.0
C      1  0.4344450000000  0.5115840000000  0.4856340000000 1.0
C      1  0.4987640000000  0.4212370000000  0.4975750000000 1.0
C      1  0.4399170000000  0.5219300000000  0.4558490000000 1.0
C      1  0.4649600000000  0.5217730000000  0.5612530000000 1.0
C      1  0.4539740000000  0.4436940000000  0.4765750000000 1.0
C      1  0.5290390000000  0.4715180000000  0.4751540000000 1.0
C      1  0.4931690000000  0.5466300000000  0.4545410000000 1.0
C      1  0.5851960000000  0.4709960000000  0.4557260000000 1.0
C      1  0.4916020000000  0.4726120000000  0.5621700000000 1.0
C      1  0.5143640000000  0.5155730000000  0.5252250000000 1.0
C      1  0.4469310000000  0.5022650000000  0.4309010000000 1.0
C      1  0.5796930000000  0.4715990000000  0.4860010000000 1.0
C      1  0.4258560000000  0.5261400000000  0.5328140000000 1.0
C      1  0.5093150000000  0.5396550000000  0.5081000000000 1.0
C      1  0.5279390000000  0.5552340000000  0.5398630000000 1.0
C      1  0.5118740000000  0.5805950000000  0.4865070000000 1.0
C      1  0.4533050000000  0.4591770000000  0.5609520000000 1.0
C      1  0.5183040000000  0.4248240000000  0.5192950000000 1.0
C      1  0.5204340000000  0.5466220000000  0.4456760000000 1.0
C      1  0.4548470000000  0.5503620000000  0.4438760000000 1.0
C      1  0.5384920000000  0.4984650000000  0.5719650000000 1.0
C      1  0.5143680000000  0.4435640000000  0.5474960000000 1.0
C      1  0.5091110000000  0.5719810000000  0.5193120000000 1.0
C      1  0.4661220000000  0.5854730000000  0.5002820000000 1.0
C      1  0.5813200000000  0.4725320000000  0.5188140000000 1.0
C      1  0.5567390000000  0.5075400000000  0.5493170000000 1.0
C      1  0.4916450000000  0.4960950000000  0.5411030000000 1.0
C      1  0.4547720000000  0.4675130000000  0.5871770000000 1.0
C      1  0.5234880000000  0.4679910000000  0.5696750000000 1.0
C      1  0.4447630000000  0.4525360000000  0.4460450000000 1.0
C      1  0.5299120000000  0.4495710000000  0.4506300000000 1.0
C      1  0.5052710000000  0.4396320000000  0.4719360000000 1.0
C      1  0.4571410000000  0.4762900000000  0.4353510000000 1.0
C      1  0.4675640000000  0.5370650000000  0.5147340000000 1.0
C      1  0.4679270000000  0.4228970000000  0.4976690000000 1.0
C      1  0.4235070000000  0.4708670000000  0.5194930000000 1.0
C      1  0.4689130000000  0.4887040000000  0.5224860000000 1.0
C      1  0.5717310000000  0.5173360000000  0.5202650000000 1.0
C      1  0.5263100000000  0.5184070000000  0.4317410000000 1.0
C      1  0.4194370000000  0.4863370000000  0.4912790000000 1.0
C      1  0.4904400000000  0.5317350000000  0.4824730000000 1.0
C      1  0.4600100000000  0.5408940000000  0.4758970000000 1.0
C      1  0.5636580000000  0.5189110000000  0.4686720000000 1.0
C      1  0.5502440000000  0.5386080000000  0.5368850000000 1.0
C      1  0.4730450000000  0.4401990000000  0.5212880000000 1.0
C      1  0.4837710000000  0.4647610000000  0.5110460000000 1.0
C      1  0.5654780000000  0.4999260000000  0.4944540000000 1.0
C      1  0.4816380000000  0.5869720000000  0.5235680000000 1.0
C      1  0.4803620000000  0.4434310000000  0.5508000000000 1.0
C      1  0.4286590000000  0.5347760000000  0.5068300000000 1.0
C      1  0.5365860000000  0.5520150000000  0.4986760000000 1.0
C      1  0.5434640000000  0.4293700000000  0.5057260000000 1.0
C      1  0.4796840000000  0.4792340000000  0.5931790000000 1.0
C      1  0.4927970000000  0.5212040000000  0.4237250000000 1.0
C      1  0.4440000000000  0.4796940000000  0.5398750000000 1.0
C      1  0.5490380000000  0.4582000000000  0.4288810000000 1.0
C      1  0.4625080000000  0.5097310000000  0.5007700000000 1.0
C      1  0.4732560000000  0.5405420000000  0.5409960000000 1.0
C      1  0.4843340000000  0.5867960000000  0.4772890000000 1.0
C      1  0.5145910000000  0.5150950000000  0.5580950000000 1.0
C      1  0.5106280000000  0.4925730000000  0.5907050000000 1.0
C      1  0.5111320000000  0.4670680000000  0.5019500000000 1.0
C      1  0.5683990000000  0.5482960000000  0.5100960000000 1.0
C      1  0.5621990000000  0.5473100000000  0.4772780000000 1.0
C      1  0.5114470000000  0.5060210000000  0.4865720000000 1.0
C      1  0.4408540000000  0.5092650000000  0.5506280000000 1.0
C      1  0.5542720000000  0.5053270000000  0.4398660000000 1.0
C      1  0.4495650000000  0.5601790000000  0.4994810000000 1.0
C      1  0.4873480000000  0.5134630000000  0.5767160000000 1.0
C      1  0.5353670000000  0.4979340000000  0.5093260000000 1.0
END
