TITL C-2778432-5617-1347 -0.00298591359280149 125000 -419.87111401358 0 0 72 (C1) n - 1
REM
REM in /home/nfs/bkarasulu/CARBON/AIRSS/Generating-Clusters/REBO/Only-C1/SD-CG/HFTN-CG
REM
REM
REM
REM
REM
REM ./C.cell (11c1c37f851c82e70ff6c80c92926a4b)
REM
REM compiler GCC version 9.2.1 20190827 (Red Hat 9.2.1-1)
REM options -cpp -mtune=generic -march=x86-64 -g -O0 -fpre-include=/usr/include/finclude/math-vector-fortran.h
REM seed -1276190513 1812554719 1023086151 -1093603659 1252737931 -543352123 328702367 -828608542 -1884028935 669375971 484838785 -406955147 -2038304300 -611822619 -1807478927 -2071586243 1066821981 -441770320 1449401030 455942613 952701870 1292542917 -937507042 627251732 -2073612512 463192154 -1957761956 -1849971502 194405568 487203617 906054567 -697832564 771973981
REM
CELL 1.54180   50.00000   50.00000   50.00000   90.00000   90.00000   90.00000
LATT -1
SFAC C  
C      1  0.5151470000000  0.4928140000000  0.4677200000000 1.0
C      1  0.5570840000000  0.5119490000000  0.4678520000000 1.0
C      1  0.5404080000000  0.4511270000000  0.4798500000000 1.0
C      1  0.5282810000000  0.5254380000000  0.4220850000000 1.0
C      1  0.3943080000000  0.5135170000000  0.4506320000000 1.0
C      1  0.5143750000000  0.4789740000000  0.4918980000000 1.0
C      1  0.4806850000000  0.5692970000000  0.4621500000000 1.0
C      1  0.5499680000000  0.5813790000000  0.4948830000000 1.0
C      1  0.4638620000000  0.5026080000000  0.5797950000000 1.0
C      1  0.5168130000000  0.4107170000000  0.5614790000000 1.0
C      1  0.5222440000000  0.4415270000000  0.5037130000000 1.0
C      1  0.4681170000000  0.5363510000000  0.5588460000000 1.0
C      1  0.4513210000000  0.5008320000000  0.5515830000000 1.0
C      1  0.4313540000000  0.4800520000000  0.5396160000000 1.0
C      1  0.5352720000000  0.4789970000000  0.5579620000000 1.0
C      1  0.5654620000000  0.4646350000000  0.4741240000000 1.0
C      1  0.4652770000000  0.5391090000000  0.4573640000000 1.0
C      1  0.4903230000000  0.4644470000000  0.4964320000000 1.0
C      1  0.5046420000000  0.5393930000000  0.4511400000000 1.0
C      1  0.5661170000000  0.6008980000000  0.5046570000000 1.0
C      1  0.4420020000000  0.4887320000000  0.4560690000000 1.0
C      1  0.4997110000000  0.5336370000000  0.4099670000000 1.0
C      1  0.4793850000000  0.4905910000000  0.5366590000000 1.0
C      1  0.5110710000000  0.4851770000000  0.3916750000000 1.0
C      1  0.4668720000000  0.5052630000000  0.4528570000000 1.0
C      1  0.5296560000000  0.5442190000000  0.5416210000000 1.0
C      1  0.4608550000000  0.5687830000000  0.5139620000000 1.0
C      1  0.4834470000000  0.5476430000000  0.4297530000000 1.0
C      1  0.4929700000000  0.4335730000000  0.4883090000000 1.0
C      1  0.5094370000000  0.5221170000000  0.5846500000000 1.0
C      1  0.5612540000000  0.5125300000000  0.5326630000000 1.0
C      1  0.4947140000000  0.5143010000000  0.4671090000000 1.0
C      1  0.4908990000000  0.4587870000000  0.5417190000000 1.0
C      1  0.5538000000000  0.5536160000000  0.5003620000000 1.0
C      1  0.4905150000000  0.4880630000000  0.4366520000000 1.0
C      1  0.5377250000000  0.4982060000000  0.4518050000000 1.0
C      1  0.4765130000000  0.4313010000000  0.5416680000000 1.0
C      1  0.5545730000000  0.5410950000000  0.5260660000000 1.0
C      1  0.4916810000000  0.5657440000000  0.5080470000000 1.0
C      1  0.5064780000000  0.4757450000000  0.5645590000000 1.0
C      1  0.5243380000000  0.4556050000000  0.5349860000000 1.0
C      1  0.5080810000000  0.5336170000000  0.4910440000000 1.0
C      1  0.4496470000000  0.5416210000000  0.5126610000000 1.0
C      1  0.5050290000000  0.5402950000000  0.5239540000000 1.0
C      1  0.4435000000000  0.4373580000000  0.4771330000000 1.0
C      1  0.4991400000000  0.4635970000000  0.4457890000000 1.0
C      1  0.5123430000000  0.4486580000000  0.4659010000000 1.0
C      1  0.5330680000000  0.4789280000000  0.5128060000000 1.0
C      1  0.4995700000000  0.5768570000000  0.4807740000000 1.0
C      1  0.4669140000000  0.4208160000000  0.4912670000000 1.0
C      1  0.4367870000000  0.4401540000000  0.5079080000000 1.0
C      1  0.5259240000000  0.5868310000000  0.4803570000000 1.0
C      1  0.4582070000000  0.4213760000000  0.5216920000000 1.0
C      1  0.4174450000000  0.5014930000000  0.4532690000000 1.0
C      1  0.4421620000000  0.4668140000000  0.5168500000000 1.0
C      1  0.4789480000000  0.5314300000000  0.5866260000000 1.0
C      1  0.5304320000000  0.5273520000000  0.5658670000000 1.0
C      1  0.4939890000000  0.4951300000000  0.5805570000000 1.0
C      1  0.5347520000000  0.5384430000000  0.4480110000000 1.0
C      1  0.4695090000000  0.4743970000000  0.5118310000000 1.0
C      1  0.5342530000000  0.4288930000000  0.5509000000000 1.0
C      1  0.5058460000000  0.5011750000000  0.4138200000000 1.0
C      1  0.5395940000000  0.5365340000000  0.4805910000000 1.0
C      1  0.4895840000000  0.4120280000000  0.5580130000000 1.0
C      1  0.5837790000000  0.4544750000000  0.4567430000000 1.0
C      1  0.5684800000000  0.4919650000000  0.4852460000000 1.0
C      1  0.5577430000000  0.4932310000000  0.5118060000000 1.0
C      1  0.4852980000000  0.5219870000000  0.5377780000000 1.0
C      1  0.4460620000000  0.5294180000000  0.5373230000000 1.0
C      1  0.5473980000000  0.5045870000000  0.5574430000000 1.0
C      1  0.4429300000000  0.4610640000000  0.4617560000000 1.0
C      1  0.4746310000000  0.5406860000000  0.4893490000000 1.0
END
