TITL C-2778424-3986-1239 -0.00140501391385231 125000 -700.230240040547 0 0 122 (C1) n - 1
REM
REM in /home/nfs/bkarasulu/CARBON/AIRSS/Generating-Clusters/REBO/Only-C1/SD-CG/HFTN-CG
REM
REM
REM
REM
REM
REM ./C.cell (11c1c37f851c82e70ff6c80c92926a4b)
REM
REM compiler GCC version 9.2.1 20190827 (Red Hat 9.2.1-1)
REM options -cpp -mtune=generic -march=x86-64 -g -O0 -fpre-include=/usr/include/finclude/math-vector-fortran.h
REM seed -115760768 -1382272654 -1135559294 -471168552 -1440189441 -1776719425 -1091918671 -1507534993 1116199425 101648507 -907537600 1720085760 -1140996279 286324484 704423234 1650276356 763055633 934461026 -770968141 138936002 -289945271 -858494505 2129226908 -1009225955 1450378032 1889498093 118485227 -137142811 999358918 1120472904 -213932023 -1981134309 565186024
REM
CELL 1.54180   50.00000   50.00000   50.00000   90.00000   90.00000   90.00000
LATT -1
SFAC C  
C      1  0.4565360000000  0.5261840000000  0.4766190000000 1.0
C      1  0.5685950000000  0.5482130000000  0.5481240000000 1.0
C      1  0.5573150000000  0.4260590000000  0.4580470000000 1.0
C      1  0.4579650000000  0.4388310000000  0.5155300000000 1.0
C      1  0.5607440000000  0.5113840000000  0.4354570000000 1.0
C      1  0.4611560000000  0.4497010000000  0.5568840000000 1.0
C      1  0.5795280000000  0.4917740000000  0.5094790000000 1.0
C      1  0.4473780000000  0.4982340000000  0.5647860000000 1.0
C      1  0.4975260000000  0.4843100000000  0.5480690000000 1.0
C      1  0.4716950000000  0.4788260000000  0.4219930000000 1.0
C      1  0.5444210000000  0.5118670000000  0.4717900000000 1.0
C      1  0.5112850000000  0.5412790000000  0.5934270000000 1.0
C      1  0.5692810000000  0.4375610000000  0.5376450000000 1.0
C      1  0.5800700000000  0.4661320000000  0.4899330000000 1.0
C      1  0.5351080000000  0.5648180000000  0.4474040000000 1.0
C      1  0.5341690000000  0.4827910000000  0.5098400000000 1.0
C      1  0.5395770000000  0.4229680000000  0.5340960000000 1.0
C      1  0.4212740000000  0.5531710000000  0.4566150000000 1.0
C      1  0.4768650000000  0.4879930000000  0.5745940000000 1.0
C      1  0.4555060000000  0.5069070000000  0.4259490000000 1.0
C      1  0.5577060000000  0.5143160000000  0.5027910000000 1.0
C      1  0.5031780000000  0.4367420000000  0.4992560000000 1.0
C      1  0.4583040000000  0.5496300000000  0.5688110000000 1.0
C      1  0.4228160000000  0.5217890000000  0.4636220000000 1.0
C      1  0.5851360000000  0.4897820000000  0.5486720000000 1.0
C      1  0.4829330000000  0.5836960000000  0.5056490000000 1.0
C      1  0.4893820000000  0.5679930000000  0.4696360000000 1.0
C      1  0.4864710000000  0.5693580000000  0.5652650000000 1.0
C      1  0.5292160000000  0.5641840000000  0.4818340000000 1.0
C      1  0.4839420000000  0.4154660000000  0.4811260000000 1.0
C      1  0.4876350000000  0.4517990000000  0.4648900000000 1.0
C      1  0.5320920000000  0.4742090000000  0.4607910000000 1.0
C      1  0.5057090000000  0.5397220000000  0.4812700000000 1.0
C      1  0.5274640000000  0.6001810000000  0.5110350000000 1.0
C      1  0.5017100000000  0.4663660000000  0.5831290000000 1.0
C      1  0.5665680000000  0.4692870000000  0.5289600000000 1.0
C      1  0.4280420000000  0.5025840000000  0.4404830000000 1.0
C      1  0.5275400000000  0.4554420000000  0.4258920000000 1.0
C      1  0.5061950000000  0.5215540000000  0.4318220000000 1.0
C      1  0.4655390000000  0.5862180000000  0.4516020000000 1.0
C      1  0.5459160000000  0.4836500000000  0.4326100000000 1.0
C      1  0.5145580000000  0.5167750000000  0.4613290000000 1.0
C      1  0.4556260000000  0.5913920000000  0.5214740000000 1.0
C      1  0.4327200000000  0.5285540000000  0.5595930000000 1.0
C      1  0.4602860000000  0.4165570000000  0.4572130000000 1.0
C      1  0.4853810000000  0.4376600000000  0.5275590000000 1.0
C      1  0.5284830000000  0.4212300000000  0.4626870000000 1.0
C      1  0.4244530000000  0.4605550000000  0.5136240000000 1.0
C      1  0.4166570000000  0.4847890000000  0.4775030000000 1.0
C      1  0.4468230000000  0.5401760000000  0.5316940000000 1.0
C      1  0.5586540000000  0.4524430000000  0.4406420000000 1.0
C      1  0.4199670000000  0.5271350000000  0.5002360000000 1.0
C      1  0.4654610000000  0.5465320000000  0.4554680000000 1.0
C      1  0.4582340000000  0.4989460000000  0.4657460000000 1.0
C      1  0.4719490000000  0.5272060000000  0.5035190000000 1.0
C      1  0.5622800000000  0.4819530000000  0.5665580000000 1.0
C      1  0.4305620000000  0.5815160000000  0.5043980000000 1.0
C      1  0.4233530000000  0.5579890000000  0.5262090000000 1.0
C      1  0.4992560000000  0.5210350000000  0.5729410000000 1.0
C      1  0.4977090000000  0.5513710000000  0.4214070000000 1.0
C      1  0.5138330000000  0.5012160000000  0.4104250000000 1.0
C      1  0.4585430000000  0.5705270000000  0.4875530000000 1.0
C      1  0.4773890000000  0.4824330000000  0.4538510000000 1.0
C      1  0.5163390000000  0.5663100000000  0.5806570000000 1.0
C      1  0.4522090000000  0.4165710000000  0.4903240000000 1.0
C      1  0.5853200000000  0.5392350000000  0.5281890000000 1.0
C      1  0.4411650000000  0.4710160000000  0.4353470000000 1.0
C      1  0.5516020000000  0.5375610000000  0.4417540000000 1.0
C      1  0.5357900000000  0.5818300000000  0.5336730000000 1.0
C      1  0.5333580000000  0.5425910000000  0.5300940000000 1.0
C      1  0.4248790000000  0.4460140000000  0.4824460000000 1.0
C      1  0.5422960000000  0.5644250000000  0.5623570000000 1.0
C      1  0.5074910000000  0.5698430000000  0.4407810000000 1.0
C      1  0.4615210000000  0.4961550000000  0.5052410000000 1.0
C      1  0.5836150000000  0.5182270000000  0.4802620000000 1.0
C      1  0.5805910000000  0.5017920000000  0.4555680000000 1.0
C      1  0.5508560000000  0.4803390000000  0.4838340000000 1.0
C      1  0.5050020000000  0.5302340000000  0.5442560000000 1.0
C      1  0.5941020000000  0.5125890000000  0.5307180000000 1.0
C      1  0.5322110000000  0.4212870000000  0.5023840000000 1.0
C      1  0.5494170000000  0.5616630000000  0.5095740000000 1.0
C      1  0.5041520000000  0.4879200000000  0.4680200000000 1.0
C      1  0.4188970000000  0.4655340000000  0.4568030000000 1.0
C      1  0.4548050000000  0.4537240000000  0.4695840000000 1.0
C      1  0.4429790000000  0.5684010000000  0.4440920000000 1.0
C      1  0.5182260000000  0.3844660000000  0.5091250000000 1.0
C      1  0.5352970000000  0.4557410000000  0.5281190000000 1.0
C      1  0.5024660000000  0.5269930000000  0.5104280000000 1.0
C      1  0.4542090000000  0.4670320000000  0.4993200000000 1.0
C      1  0.5591500000000  0.4241620000000  0.4881360000000 1.0
C      1  0.4138440000000  0.5183380000000  0.5325740000000 1.0
C      1  0.5799820000000  0.4726640000000  0.4579160000000 1.0
C      1  0.4727770000000  0.5554010000000  0.5215110000000 1.0
C      1  0.4934400000000  0.4428500000000  0.5599870000000 1.0
C      1  0.4265100000000  0.4265700000000  0.5102780000000 1.0
C      1  0.5089160000000  0.5882410000000  0.4908300000000 1.0
C      1  0.5123180000000  0.4017680000000  0.4824350000000 1.0
C      1  0.5074500000000  0.4702800000000  0.4945890000000 1.0
C      1  0.4681800000000  0.5209710000000  0.5773780000000 1.0
C      1  0.5783190000000  0.5474700000000  0.4979620000000 1.0
C      1  0.4239870000000  0.4858390000000  0.5348060000000 1.0
C      1  0.5261230000000  0.4480760000000  0.5683390000000 1.0
C      1  0.4290970000000  0.5533100000000  0.4870570000000 1.0
C      1  0.5175590000000  0.4472700000000  0.4635860000000 1.0
C      1  0.5083800000000  0.5631690000000  0.5418250000000 1.0
C      1  0.5027640000000  0.4750840000000  0.4131870000000 1.0
C      1  0.5160250000000  0.4955450000000  0.5744550000000 1.0
C      1  0.4307020000000  0.4990910000000  0.4952870000000 1.0
C      1  0.5279310000000  0.3933310000000  0.5305980000000 1.0
C      1  0.5039200000000  0.4643380000000  0.5279690000000 1.0
C      1  0.4739730000000  0.5300870000000  0.4308560000000 1.0
C      1  0.4597560000000  0.5744850000000  0.5475000000000 1.0
C      1  0.4945010000000  0.4476630000000  0.4313190000000 1.0
C      1  0.5308510000000  0.5119940000000  0.5197910000000 1.0
C      1  0.5446340000000  0.5037150000000  0.5717610000000 1.0
C      1  0.5536670000000  0.4539420000000  0.5634190000000 1.0
C      1  0.4610930000000  0.4433930000000  0.4371330000000 1.0
C      1  0.4513150000000  0.5065290000000  0.5324380000000 1.0
C      1  0.4410270000000  0.4617100000000  0.5499400000000 1.0
C      1  0.5769290000000  0.4396510000000  0.5044410000000 1.0
C      1  0.5549140000000  0.5437820000000  0.4744190000000 1.0
C      1  0.5495080000000  0.5308270000000  0.5662700000000 1.0
END
