TITL C-2778431-5191-1145 -0.00197670257347036 125000 -825.183343361015 0 0 140 (C1) n - 1
REM
REM in /home/nfs/bkarasulu/CARBON/AIRSS/Generating-Clusters/REBO/Only-C1/SD-CG/HFTN-CG
REM
REM
REM
REM
REM
REM ./C.cell (11c1c37f851c82e70ff6c80c92926a4b)
REM
REM compiler GCC version 9.2.1 20190827 (Red Hat 9.2.1-1)
REM options -cpp -mtune=generic -march=x86-64 -g -O0 -fpre-include=/usr/include/finclude/math-vector-fortran.h
REM seed 1091416444 -1974443397 877086805 408296953 116933186 -415716825 1360687719 1947520805 -1051113048 -1850668089 1948412116 2017484472 -1804013599 1953307396 326534610 500081250 -66662909 -483345828 806159892 -674752337 1836343840 -1071393825 -459365544 -79810884 1192519556 -1643178680 -988764742 -2105883122 -58165374 1707882567 1001571900 1622317184 -1230642873
REM
CELL 1.54180   50.00000   50.00000   50.00000   90.00000   90.00000   90.00000
LATT -1
SFAC C  
C      1  0.4365990000000  0.5233830000000  0.4326400000000 1.0
C      1  0.5275730000000  0.4776720000000  0.5832160000000 1.0
C      1  0.4822200000000  0.5834340000000  0.4487180000000 1.0
C      1  0.5273680000000  0.5230520000000  0.4052130000000 1.0
C      1  0.5011430000000  0.4940190000000  0.4935120000000 1.0
C      1  0.3961270000000  0.5168830000000  0.4898830000000 1.0
C      1  0.4674800000000  0.4805840000000  0.4595820000000 1.0
C      1  0.5768020000000  0.4920970000000  0.5589360000000 1.0
C      1  0.5134440000000  0.3967430000000  0.4941390000000 1.0
C      1  0.5229780000000  0.4987010000000  0.5288850000000 1.0
C      1  0.4543030000000  0.4320520000000  0.5070390000000 1.0
C      1  0.4196620000000  0.4461770000000  0.5508410000000 1.0
C      1  0.4659900000000  0.5076710000000  0.5269710000000 1.0
C      1  0.4410560000000  0.5758330000000  0.4838240000000 1.0
C      1  0.5534710000000  0.4465090000000  0.5434330000000 1.0
C      1  0.4171080000000  0.4442390000000  0.4993130000000 1.0
C      1  0.5395600000000  0.4418140000000  0.4452940000000 1.0
C      1  0.5685540000000  0.4419340000000  0.4498300000000 1.0
C      1  0.5337080000000  0.5814120000000  0.4465590000000 1.0
C      1  0.5327150000000  0.4102790000000  0.4786070000000 1.0
C      1  0.5685240000000  0.5074830000000  0.4732800000000 1.0
C      1  0.5384550000000  0.5541020000000  0.5104400000000 1.0
C      1  0.5846730000000  0.4534470000000  0.4976710000000 1.0
C      1  0.5517130000000  0.5293470000000  0.5231640000000 1.0
C      1  0.5826340000000  0.4373280000000  0.4748990000000 1.0
C      1  0.4758220000000  0.5164700000000  0.4348020000000 1.0
C      1  0.4449730000000  0.3869120000000  0.4821000000000 1.0
C      1  0.4489290000000  0.4618770000000  0.4295810000000 1.0
C      1  0.4505850000000  0.4783520000000  0.5922630000000 1.0
C      1  0.5079250000000  0.4651040000000  0.4063510000000 1.0
C      1  0.4512380000000  0.5794560000000  0.5296150000000 1.0
C      1  0.4986210000000  0.4176000000000  0.6018020000000 1.0
C      1  0.5635840000000  0.4743200000000  0.5147920000000 1.0
C      1  0.4214270000000  0.4773910000000  0.5595770000000 1.0
C      1  0.4522840000000  0.5475860000000  0.4272390000000 1.0
C      1  0.4293100000000  0.5073820000000  0.5512820000000 1.0
C      1  0.4883600000000  0.5595980000000  0.5571510000000 1.0
C      1  0.4771820000000  0.5399090000000  0.4105860000000 1.0
C      1  0.5014160000000  0.4204590000000  0.5746510000000 1.0
C      1  0.4097230000000  0.5311220000000  0.5263520000000 1.0
C      1  0.4232420000000  0.5575340000000  0.4989130000000 1.0
C      1  0.4626150000000  0.4115150000000  0.4812200000000 1.0
C      1  0.5002770000000  0.5106380000000  0.5495150000000 1.0
C      1  0.4927760000000  0.4175050000000  0.5064270000000 1.0
C      1  0.4255730000000  0.5053160000000  0.5177970000000 1.0
C      1  0.4203310000000  0.5313580000000  0.4879210000000 1.0
C      1  0.4598010000000  0.5645160000000  0.4494910000000 1.0
C      1  0.5057840000000  0.5418570000000  0.4594500000000 1.0
C      1  0.5008540000000  0.4844610000000  0.5884350000000 1.0
C      1  0.5524870000000  0.5544840000000  0.4734070000000 1.0
C      1  0.5479870000000  0.4308830000000  0.4935460000000 1.0
C      1  0.5025970000000  0.5952550000000  0.5289670000000 1.0
C      1  0.4433170000000  0.4152750000000  0.5412930000000 1.0
C      1  0.5788530000000  0.4635620000000  0.5454130000000 1.0
C      1  0.4718850000000  0.5324350000000  0.5054790000000 1.0
C      1  0.4163920000000  0.4943610000000  0.4638090000000 1.0
C      1  0.4278940000000  0.5587160000000  0.5312660000000 1.0
C      1  0.4481940000000  0.4404670000000  0.4485830000000 1.0
C      1  0.4752480000000  0.5025490000000  0.4791820000000 1.0
C      1  0.5477910000000  0.5373300000000  0.4261190000000 1.0
C      1  0.5098190000000  0.4510740000000  0.5325780000000 1.0
C      1  0.4505250000000  0.4599800000000  0.5570280000000 1.0
C      1  0.5409890000000  0.5234270000000  0.4773750000000 1.0
C      1  0.5202620000000  0.6057790000000  0.5057360000000 1.0
C      1  0.5165370000000  0.4184620000000  0.5289920000000 1.0
C      1  0.4706990000000  0.4012150000000  0.5255350000000 1.0
C      1  0.4147450000000  0.5180820000000  0.4499830000000 1.0
C      1  0.4660700000000  0.5414010000000  0.5620290000000 1.0
C      1  0.4783890000000  0.5292400000000  0.4630800000000 1.0
C      1  0.5439600000000  0.4310860000000  0.5220800000000 1.0
C      1  0.5382020000000  0.5441520000000  0.5491640000000 1.0
C      1  0.4998270000000  0.5862700000000  0.5558360000000 1.0
C      1  0.5366860000000  0.4894660000000  0.4394200000000 1.0
C      1  0.4953350000000  0.4237210000000  0.4433990000000 1.0
C      1  0.5782280000000  0.5649240000000  0.4529120000000 1.0
C      1  0.4593030000000  0.5996510000000  0.4864730000000 1.0
C      1  0.5584290000000  0.5895500000000  0.4915500000000 1.0
C      1  0.5811090000000  0.5673970000000  0.4859980000000 1.0
C      1  0.5009620000000  0.5413700000000  0.3977740000000 1.0
C      1  0.6154110000000  0.5268550000000  0.5426120000000 1.0
C      1  0.5317200000000  0.4697780000000  0.5148420000000 1.0
C      1  0.4764950000000  0.5137420000000  0.5650220000000 1.0
C      1  0.4537810000000  0.4942090000000  0.4314230000000 1.0
C      1  0.5967680000000  0.5435460000000  0.4973070000000 1.0
C      1  0.5430400000000  0.5960650000000  0.4695530000000 1.0
C      1  0.5164210000000  0.4905500000000  0.4037820000000 1.0
C      1  0.4693100000000  0.5852130000000  0.5104740000000 1.0
C      1  0.4167980000000  0.4740970000000  0.5122000000000 1.0
C      1  0.5661780000000  0.5163220000000  0.4414200000000 1.0
C      1  0.5910590000000  0.5201050000000  0.4902840000000 1.0
C      1  0.4814670000000  0.6044940000000  0.4685150000000 1.0
C      1  0.4780770000000  0.4667950000000  0.5759310000000 1.0
C      1  0.5239400000000  0.4661170000000  0.4455580000000 1.0
C      1  0.4991730000000  0.5719180000000  0.5044580000000 1.0
C      1  0.4463010000000  0.5138350000000  0.4931110000000 1.0
C      1  0.5500410000000  0.5021940000000  0.5773550000000 1.0
C      1  0.4449340000000  0.4596530000000  0.5232240000000 1.0
C      1  0.5932470000000  0.5114090000000  0.5408370000000 1.0
C      1  0.3925120000000  0.4917650000000  0.4999860000000 1.0
C      1  0.5208180000000  0.5579130000000  0.4821760000000 1.0
C      1  0.5196790000000  0.4677780000000  0.4849750000000 1.0
C      1  0.5078870000000  0.5401380000000  0.5421270000000 1.0
C      1  0.5692030000000  0.5069340000000  0.5226120000000 1.0
C      1  0.5073770000000  0.5706270000000  0.4467190000000 1.0
C      1  0.5027860000000  0.5115520000000  0.4243690000000 1.0
C      1  0.5266830000000  0.5199700000000  0.4465750000000 1.0
C      1  0.4535620000000  0.4978840000000  0.5706220000000 1.0
C      1  0.4178650000000  0.4302530000000  0.5252600000000 1.0
C      1  0.4292500000000  0.4460480000000  0.4733800000000 1.0
C      1  0.4920740000000  0.4610330000000  0.4570170000000 1.0
C      1  0.4693050000000  0.4222110000000  0.4559980000000 1.0
C      1  0.5156400000000  0.5315790000000  0.5928790000000 1.0
C      1  0.5062670000000  0.6117490000000  0.4817660000000 1.0
C      1  0.4586470000000  0.5489950000000  0.4787210000000 1.0
C      1  0.5266240000000  0.5875880000000  0.5666770000000 1.0
C      1  0.5007400000000  0.5410210000000  0.5120500000000 1.0
C      1  0.4397440000000  0.3998450000000  0.5114000000000 1.0
C      1  0.5437360000000  0.5853240000000  0.5195200000000 1.0
C      1  0.5440170000000  0.5743540000000  0.5494430000000 1.0
C      1  0.4935360000000  0.4459570000000  0.4877060000000 1.0
C      1  0.4384870000000  0.5385550000000  0.5535680000000 1.0
C      1  0.4949560000000  0.4483860000000  0.4250070000000 1.0
C      1  0.4918080000000  0.4690630000000  0.5129570000000 1.0
C      1  0.5540600000000  0.5650720000000  0.4349180000000 1.0
C      1  0.5231080000000  0.4195090000000  0.4530480000000 1.0
C      1  0.4674250000000  0.4803080000000  0.5254470000000 1.0
C      1  0.4361550000000  0.4745400000000  0.4654280000000 1.0
C      1  0.5339740000000  0.4562660000000  0.5633820000000 1.0
C      1  0.5807720000000  0.4683030000000  0.4411020000000 1.0
C      1  0.5204140000000  0.5181120000000  0.5009540000000 1.0
C      1  0.4719050000000  0.4334190000000  0.5365560000000 1.0
C      1  0.5677280000000  0.4764770000000  0.4698100000000 1.0
C      1  0.5488230000000  0.4578700000000  0.4807360000000 1.0
C      1  0.5987690000000  0.4570240000000  0.5226620000000 1.0
C      1  0.4980040000000  0.5109220000000  0.5985750000000 1.0
C      1  0.5140170000000  0.4042940000000  0.5561500000000 1.0
C      1  0.5381600000000  0.5296750000000  0.5770540000000 1.0
C      1  0.4901500000000  0.4439640000000  0.5588190000000 1.0
C      1  0.5452630000000  0.4855650000000  0.5485710000000 1.0
C      1  0.5646960000000  0.4892670000000  0.4281610000000 1.0
END
