TITL C-2778427-5640-314 0.081687794210338 125000 -498.417362386002 0 0 88 (C1) n - 1
REM
REM in /home/nfs/bkarasulu/CARBON/AIRSS/Generating-Clusters/REBO/Only-C1/SD-CG/HFTN-CG
REM
REM
REM
REM
REM
REM ./C.cell (11c1c37f851c82e70ff6c80c92926a4b)
REM
REM compiler GCC version 9.2.1 20190827 (Red Hat 9.2.1-1)
REM options -cpp -mtune=generic -march=x86-64 -g -O0 -fpre-include=/usr/include/finclude/math-vector-fortran.h
REM seed -921967903 1714230485 1128356840 -1384284547 147463129 593245653 -1610373288 248033788 1243506954 412015185 978902668 -2127552130 -739475206 808972162 -1328870684 -929144070 -1335364718 1447584381 -2064622397 -1245700437 914531238 58418841 -1961696468 -1343410005 1377119039 1474997442 1889343829 1834835938 1221805922 785044060 874049638 384679104 1772788320
REM
CELL 1.54180   50.00000   50.00000   50.00000   90.00000   90.00000   90.00000
LATT -1
SFAC C  
C      1  0.4385640000000  0.5405580000000  0.5135980000000 1.0
C      1  0.5244150000000  0.4744870000000  0.5138550000000 1.0
C      1  0.4307530000000  0.4704000000000  0.5085490000000 1.0
C      1  0.5197030000000  0.4186620000000  0.4886600000000 1.0
C      1  0.5563220000000  0.5569630000000  0.4828640000000 1.0
C      1  0.4583760000000  0.4602700000000  0.4992480000000 1.0
C      1  0.4748090000000  0.4696210000000  0.4432930000000 1.0
C      1  0.4315180000000  0.5303670000000  0.4606380000000 1.0
C      1  0.4873160000000  0.5011490000000  0.4640200000000 1.0
C      1  0.5601860000000  0.5240450000000  0.5255130000000 1.0
C      1  0.5672690000000  0.4831250000000  0.4306110000000 1.0
C      1  0.5405600000000  0.4282120000000  0.4711630000000 1.0
C      1  0.4967650000000  0.4599320000000  0.4888890000000 1.0
C      1  0.5227990000000  0.4738230000000  0.4825180000000 1.0
C      1  0.5286940000000  0.5553800000000  0.5875470000000 1.0
C      1  0.4709100000000  0.5761140000000  0.4828760000000 1.0
C      1  0.5220650000000  0.5366330000000  0.4808700000000 1.0
C      1  0.5461340000000  0.4794920000000  0.4637520000000 1.0
C      1  0.4807700000000  0.5392480000000  0.4736040000000 1.0
C      1  0.5342060000000  0.5412910000000  0.5122670000000 1.0
C      1  0.4365830000000  0.5314910000000  0.5465490000000 1.0
C      1  0.5510250000000  0.5252550000000  0.5726620000000 1.0
C      1  0.4591630000000  0.4942940000000  0.5770510000000 1.0
C      1  0.4830510000000  0.5099870000000  0.5226310000000 1.0
C      1  0.4336810000000  0.4805590000000  0.5349010000000 1.0
C      1  0.5019530000000  0.4267310000000  0.5104470000000 1.0
C      1  0.5156860000000  0.5384180000000  0.4198960000000 1.0
C      1  0.5146020000000  0.5323120000000  0.5386900000000 1.0
C      1  0.4495330000000  0.5494340000000  0.4825240000000 1.0
C      1  0.4469460000000  0.4457810000000  0.5681650000000 1.0
C      1  0.5479490000000  0.4537670000000  0.5249060000000 1.0
C      1  0.5892820000000  0.4851360000000  0.4903230000000 1.0
C      1  0.5047400000000  0.5760890000000  0.4865070000000 1.0
C      1  0.4531430000000  0.5218190000000  0.5712530000000 1.0
C      1  0.4501120000000  0.5047680000000  0.5009740000000 1.0
C      1  0.5307220000000  0.4736710000000  0.5670540000000 1.0
C      1  0.5319000000000  0.5319540000000  0.4485650000000 1.0
C      1  0.5162380000000  0.5042770000000  0.4727420000000 1.0
C      1  0.4866680000000  0.5592260000000  0.5075370000000 1.0
C      1  0.5071540000000  0.5509100000000  0.5661860000000 1.0
C      1  0.5348650000000  0.4802730000000  0.4315510000000 1.0
C      1  0.5415500000000  0.5059110000000  0.4958870000000 1.0
C      1  0.4960600000000  0.5282050000000  0.5000560000000 1.0
C      1  0.4171050000000  0.4866250000000  0.4886120000000 1.0
C      1  0.5434490000000  0.4862050000000  0.5469490000000 1.0
C      1  0.4505220000000  0.5068240000000  0.5323850000000 1.0
C      1  0.4238990000000  0.5199070000000  0.4905750000000 1.0
C      1  0.5613550000000  0.5303630000000  0.4829260000000 1.0
C      1  0.5100260000000  0.5729660000000  0.5428520000000 1.0
C      1  0.4697590000000  0.5527980000000  0.5522950000000 1.0
C      1  0.5722150000000  0.4612270000000  0.5049920000000 1.0
C      1  0.5263580000000  0.5170440000000  0.5765150000000 1.0
C      1  0.4353230000000  0.4466290000000  0.4638910000000 1.0
C      1  0.4519460000000  0.4710140000000  0.5576550000000 1.0
C      1  0.4358880000000  0.4998660000000  0.4463640000000 1.0
C      1  0.5646260000000  0.4446040000000  0.4801240000000 1.0
C      1  0.5161530000000  0.4451650000000  0.5273280000000 1.0
C      1  0.5026450000000  0.5105170000000  0.4071800000000 1.0
C      1  0.5370270000000  0.4321780000000  0.4411980000000 1.0
C      1  0.4830280000000  0.4766280000000  0.5152070000000 1.0
C      1  0.4912640000000  0.4518360000000  0.4302670000000 1.0
C      1  0.5347020000000  0.5746270000000  0.4902630000000 1.0
C      1  0.5033540000000  0.4714430000000  0.5736000000000 1.0
C      1  0.4826700000000  0.4794600000000  0.5483290000000 1.0
C      1  0.5614900000000  0.4906370000000  0.5183830000000 1.0
C      1  0.5002360000000  0.5073950000000  0.5566640000000 1.0
C      1  0.4707780000000  0.5003420000000  0.4854240000000 1.0
C      1  0.4847790000000  0.4900810000000  0.5890640000000 1.0
C      1  0.4693020000000  0.5415320000000  0.5262510000000 1.0
C      1  0.4993380000000  0.5433630000000  0.4490230000000 1.0
C      1  0.5713940000000  0.5006420000000  0.4703770000000 1.0
C      1  0.5553050000000  0.5123590000000  0.4433660000000 1.0
C      1  0.4890670000000  0.4385030000000  0.4725420000000 1.0
C      1  0.5669290000000  0.5304810000000  0.5512050000000 1.0
C      1  0.4617990000000  0.5300250000000  0.4480670000000 1.0
C      1  0.5251800000000  0.5047840000000  0.5256910000000 1.0
C      1  0.4982810000000  0.5175770000000  0.5916000000000 1.0
C      1  0.4592200000000  0.4273940000000  0.4765700000000 1.0
C      1  0.4724030000000  0.4303340000000  0.5076400000000 1.0
C      1  0.5132020000000  0.4364120000000  0.4279080000000 1.0
C      1  0.5249660000000  0.5714490000000  0.5206960000000 1.0
C      1  0.5603840000000  0.4541670000000  0.4476690000000 1.0
C      1  0.5149560000000  0.4877140000000  0.4140810000000 1.0
C      1  0.4818840000000  0.5335100000000  0.4212510000000 1.0
C      1  0.4608100000000  0.4660020000000  0.4675670000000 1.0
C      1  0.4232870000000  0.4776080000000  0.4614500000000 1.0
C      1  0.4786390000000  0.5405820000000  0.5805260000000 1.0
C      1  0.4683150000000  0.4991380000000  0.4360880000000 1.0
END
