TITL C-2778427-5640-873 -0.00481264536577085 125000 -821.718235160332 0 0 140 (C1) n - 1
REM
REM in /home/nfs/bkarasulu/CARBON/AIRSS/Generating-Clusters/REBO/Only-C1/SD-CG/HFTN-CG
REM
REM
REM
REM
REM
REM ./C.cell (11c1c37f851c82e70ff6c80c92926a4b)
REM
REM compiler GCC version 9.2.1 20190827 (Red Hat 9.2.1-1)
REM options -cpp -mtune=generic -march=x86-64 -g -O0 -fpre-include=/usr/include/finclude/math-vector-fortran.h
REM seed -2116066563 1917990207 1472906044 -914946933 98538410 -536143093 -1096804143 1467715497 2096849389 -837038970 1469644884 1249094006 -206584727 485388168 832150141 -1544990875 883498297 -534391726 31388726 -485845838 -99844017 -68039929 -2057787821 -1587818679 -1858083285 -1066684430 1150205751 1009817737 -1010247117 305783196 1810489735 165541155 -1549772914
REM
CELL 1.54180   50.00000   50.00000   50.00000   90.00000   90.00000   90.00000
LATT -1
SFAC C  
C      1  0.5249320000000  0.4879200000000  0.5537180000000 1.0
C      1  0.4444640000000  0.5456400000000  0.4710400000000 1.0
C      1  0.5276810000000  0.4994850000000  0.4337840000000 1.0
C      1  0.5378900000000  0.4226770000000  0.5019890000000 1.0
C      1  0.5405700000000  0.4900400000000  0.5170180000000 1.0
C      1  0.5296840000000  0.5385810000000  0.5788560000000 1.0
C      1  0.5140730000000  0.4761640000000  0.5903280000000 1.0
C      1  0.4023480000000  0.5141950000000  0.5330400000000 1.0
C      1  0.4170340000000  0.5092140000000  0.4531820000000 1.0
C      1  0.5117390000000  0.4860200000000  0.5233820000000 1.0
C      1  0.5095770000000  0.3961290000000  0.5255840000000 1.0
C      1  0.5506670000000  0.5484980000000  0.4396140000000 1.0
C      1  0.4508340000000  0.4173210000000  0.4804520000000 1.0
C      1  0.5850970000000  0.5279200000000  0.5352090000000 1.0
C      1  0.5236650000000  0.5733950000000  0.5143240000000 1.0
C      1  0.4715710000000  0.5606990000000  0.4269000000000 1.0
C      1  0.5566620000000  0.4857030000000  0.5540700000000 1.0
C      1  0.5507310000000  0.4750170000000  0.4915610000000 1.0
C      1  0.4653220000000  0.5331910000000  0.4163560000000 1.0
C      1  0.5371840000000  0.4835090000000  0.3984150000000 1.0
C      1  0.4691840000000  0.5465300000000  0.5518490000000 1.0
C      1  0.5632340000000  0.4686160000000  0.5825620000000 1.0
C      1  0.5915940000000  0.5239700000000  0.4378280000000 1.0
C      1  0.4861640000000  0.5036820000000  0.5246740000000 1.0
C      1  0.4157880000000  0.5429320000000  0.5242750000000 1.0
C      1  0.5001080000000  0.5311060000000  0.5924980000000 1.0
C      1  0.4934200000000  0.4230790000000  0.4842670000000 1.0
C      1  0.4899600000000  0.4596790000000  0.5727060000000 1.0
C      1  0.5951150000000  0.4805020000000  0.5114360000000 1.0
C      1  0.4238420000000  0.5401100000000  0.4532590000000 1.0
C      1  0.5581980000000  0.5105960000000  0.4752340000000 1.0
C      1  0.5080320000000  0.5637590000000  0.5869800000000 1.0
C      1  0.4613020000000  0.4394310000000  0.5027960000000 1.0
C      1  0.4588520000000  0.5750470000000  0.5232140000000 1.0
C      1  0.5143410000000  0.5286790000000  0.4967050000000 1.0
C      1  0.5060460000000  0.5498490000000  0.4717820000000 1.0
C      1  0.5771200000000  0.5507560000000  0.5149860000000 1.0
C      1  0.5805520000000  0.4725530000000  0.4835050000000 1.0
C      1  0.4405660000000  0.4357080000000  0.5580740000000 1.0
C      1  0.4388690000000  0.4888460000000  0.4791940000000 1.0
C      1  0.4002730000000  0.5008990000000  0.5023920000000 1.0
C      1  0.4851620000000  0.5114370000000  0.4039210000000 1.0
C      1  0.5537710000000  0.5710180000000  0.5248680000000 1.0
C      1  0.5491690000000  0.5150320000000  0.5799550000000 1.0
C      1  0.5843730000000  0.4481630000000  0.5143870000000 1.0
C      1  0.5261360000000  0.5065840000000  0.4836260000000 1.0
C      1  0.4517140000000  0.5222140000000  0.5786480000000 1.0
C      1  0.4562690000000  0.4584780000000  0.5782420000000 1.0
C      1  0.4674430000000  0.6020310000000  0.4547170000000 1.0
C      1  0.4417220000000  0.5092750000000  0.5028400000000 1.0
C      1  0.5481990000000  0.5062180000000  0.4001450000000 1.0
C      1  0.4444350000000  0.4932050000000  0.4401100000000 1.0
C      1  0.4887280000000  0.4061980000000  0.5095940000000 1.0
C      1  0.5054170000000  0.5289460000000  0.4189950000000 1.0
C      1  0.4771260000000  0.5234200000000  0.4690910000000 1.0
C      1  0.5755720000000  0.4827840000000  0.4453270000000 1.0
C      1  0.5294530000000  0.4635820000000  0.4711490000000 1.0
C      1  0.4847420000000  0.4834510000000  0.4103330000000 1.0
C      1  0.4539720000000  0.5024290000000  0.5518040000000 1.0
C      1  0.5029790000000  0.4933900000000  0.4735670000000 1.0
C      1  0.4812540000000  0.4519350000000  0.5348750000000 1.0
C      1  0.5473900000000  0.5206480000000  0.5206950000000 1.0
C      1  0.4682650000000  0.5115740000000  0.4400200000000 1.0
C      1  0.4336560000000  0.4160360000000  0.5086040000000 1.0
C      1  0.6054030000000  0.5113160000000  0.5149990000000 1.0
C      1  0.4943690000000  0.5280040000000  0.5428110000000 1.0
C      1  0.4045530000000  0.5611660000000  0.4525700000000 1.0
C      1  0.4054760000000  0.5472620000000  0.4966590000000 1.0
C      1  0.4971320000000  0.4079910000000  0.4557280000000 1.0
C      1  0.5164010000000  0.4433900000000  0.4928450000000 1.0
C      1  0.4042880000000  0.5211580000000  0.4825660000000 1.0
C      1  0.4383170000000  0.4616920000000  0.4499740000000 1.0
C      1  0.4112600000000  0.4760860000000  0.4532870000000 1.0
C      1  0.4637710000000  0.4665470000000  0.4277050000000 1.0
C      1  0.4865230000000  0.4496850000000  0.4649610000000 1.0
C      1  0.5698720000000  0.5153370000000  0.5559740000000 1.0
C      1  0.5025510000000  0.5519800000000  0.5114680000000 1.0
C      1  0.5207290000000  0.5988460000000  0.4965740000000 1.0
C      1  0.4936430000000  0.5423360000000  0.4428110000000 1.0
C      1  0.5796300000000  0.4389600000000  0.4816200000000 1.0
C      1  0.5620740000000  0.4685120000000  0.5293180000000 1.0
C      1  0.5786500000000  0.4561960000000  0.4355720000000 1.0
C      1  0.4667280000000  0.5875240000000  0.4313200000000 1.0
C      1  0.5123190000000  0.4590790000000  0.4445300000000 1.0
C      1  0.3980090000000  0.5684200000000  0.4788110000000 1.0
C      1  0.5458250000000  0.5752470000000  0.4448850000000 1.0
C      1  0.4999500000000  0.5934660000000  0.5453940000000 1.0
C      1  0.4969890000000  0.6027630000000  0.5181240000000 1.0
C      1  0.4166660000000  0.4787700000000  0.4971070000000 1.0
C      1  0.4629190000000  0.4659020000000  0.4729040000000 1.0
C      1  0.4804720000000  0.4374740000000  0.4343420000000 1.0
C      1  0.4523220000000  0.5346360000000  0.4979830000000 1.0
C      1  0.4606100000000  0.4895570000000  0.5825780000000 1.0
C      1  0.5691870000000  0.4345430000000  0.4518170000000 1.0
C      1  0.4232420000000  0.4535000000000  0.5774810000000 1.0
C      1  0.5599490000000  0.4362560000000  0.5349780000000 1.0
C      1  0.5054180000000  0.4570470000000  0.5165120000000 1.0
C      1  0.4711670000000  0.5879780000000  0.4788760000000 1.0
C      1  0.4886860000000  0.4947370000000  0.5917310000000 1.0
C      1  0.4774700000000  0.4799790000000  0.5476920000000 1.0
C      1  0.4401270000000  0.5520030000000  0.5350190000000 1.0
C      1  0.5719530000000  0.5336570000000  0.4563590000000 1.0
C      1  0.5139370000000  0.4287770000000  0.4351160000000 1.0
C      1  0.5362160000000  0.5888420000000  0.4714830000000 1.0
C      1  0.4321780000000  0.4641870000000  0.5205880000000 1.0
C      1  0.5068190000000  0.5082050000000  0.5675660000000 1.0
C      1  0.4786440000000  0.4988270000000  0.4928060000000 1.0
C      1  0.4713410000000  0.5954890000000  0.5067380000000 1.0
C      1  0.4339400000000  0.5027630000000  0.5309820000000 1.0
C      1  0.4331980000000  0.4359310000000  0.5309640000000 1.0
C      1  0.5368790000000  0.5284470000000  0.4207120000000 1.0
C      1  0.5346020000000  0.5582600000000  0.4790480000000 1.0
C      1  0.5460790000000  0.4882110000000  0.4543510000000 1.0
C      1  0.5621760000000  0.4188010000000  0.4990660000000 1.0
C      1  0.4621510000000  0.4720550000000  0.5063300000000 1.0
C      1  0.6051350000000  0.5174220000000  0.4815250000000 1.0
C      1  0.5213090000000  0.5797380000000  0.5623320000000 1.0
C      1  0.5187180000000  0.4557650000000  0.5479490000000 1.0
C      1  0.4740230000000  0.5577480000000  0.4736250000000 1.0
C      1  0.5405980000000  0.4881400000000  0.5904590000000 1.0
C      1  0.5396820000000  0.5631400000000  0.5492870000000 1.0
C      1  0.4095080000000  0.4814950000000  0.5385760000000 1.0
C      1  0.5147520000000  0.4114450000000  0.5497010000000 1.0
C      1  0.4704150000000  0.4217040000000  0.5300410000000 1.0
C      1  0.4978350000000  0.4988850000000  0.4456840000000 1.0
C      1  0.5876050000000  0.5432340000000  0.4838410000000 1.0
C      1  0.5126800000000  0.4748570000000  0.4176850000000 1.0
C      1  0.4725260000000  0.5457030000000  0.5845940000000 1.0
C      1  0.5358810000000  0.4314810000000  0.5484590000000 1.0
C      1  0.5736410000000  0.5067860000000  0.5033300000000 1.0
C      1  0.4731310000000  0.5500000000000  0.5126190000000 1.0
C      1  0.4823260000000  0.5735440000000  0.5667780000000 1.0
C      1  0.4649290000000  0.4170810000000  0.4568510000000 1.0
C      1  0.4040370000000  0.4689860000000  0.5660350000000 1.0
C      1  0.5285710000000  0.3976490000000  0.4547570000000 1.0
C      1  0.5281230000000  0.5333700000000  0.5450030000000 1.0
C      1  0.5948990000000  0.4955690000000  0.4656630000000 1.0
C      1  0.4888810000000  0.4286530000000  0.5580270000000 1.0
C      1  0.5457180000000  0.4202600000000  0.4449920000000 1.0
C      1  0.5510320000000  0.5438540000000  0.4960020000000 1.0
END
