TITL C-2778422-5617-127 -0.00213007438095645 125000 -955.384226203525 0 0 162 (C1) n - 1
REM
REM in /home/nfs/bkarasulu/CARBON/AIRSS/Generating-Clusters/REBO/Only-C1/SD-CG/HFTN-CG
REM
REM
REM
REM
REM
REM ./C.cell (11c1c37f851c82e70ff6c80c92926a4b)
REM
REM compiler GCC version 9.2.1 20190827 (Red Hat 9.2.1-1)
REM options -cpp -mtune=generic -march=x86-64 -g -O0 -fpre-include=/usr/include/finclude/math-vector-fortran.h
REM seed 919509670 323049769 1314732465 765271810 -2019431734 1145998511 -1945330632 -1928679556 2088552562 -76548642 703317191 453873591 -400747888 -142728011 -1141581832 2072552824 -2128506260 -1530106284 -64210160 1714794983 1728157621 -1373205133 665049578 548714679 -237060636 295075464 2042726811 428962475 44247036 -1117478418 1839863787 -1916749341 1678996617
REM
CELL 1.54180   50.00000   50.00000   50.00000   90.00000   90.00000   90.00000
LATT -1
SFAC C  
C      1  0.4324910000000  0.4881600000000  0.6127070000000 1.0
C      1  0.4764870000000  0.4063210000000  0.4472210000000 1.0
C      1  0.5196060000000  0.3894460000000  0.5211700000000 1.0
C      1  0.5544900000000  0.4530140000000  0.4658110000000 1.0
C      1  0.4876060000000  0.4800600000000  0.4124100000000 1.0
C      1  0.4927520000000  0.5229870000000  0.4004440000000 1.0
C      1  0.4196970000000  0.4488950000000  0.4789350000000 1.0
C      1  0.5432090000000  0.4936290000000  0.4162760000000 1.0
C      1  0.4529510000000  0.5385420000000  0.5870690000000 1.0
C      1  0.5264040000000  0.5506340000000  0.4101310000000 1.0
C      1  0.4241250000000  0.5611890000000  0.5365130000000 1.0
C      1  0.5431400000000  0.5317140000000  0.5809110000000 1.0
C      1  0.4294390000000  0.4346250000000  0.5603010000000 1.0
C      1  0.5912210000000  0.5002400000000  0.5484560000000 1.0
C      1  0.4664320000000  0.5326920000000  0.5499620000000 1.0
C      1  0.5454470000000  0.5643820000000  0.5311330000000 1.0
C      1  0.4400210000000  0.4455100000000  0.4516660000000 1.0
C      1  0.5838290000000  0.4633110000000  0.4586230000000 1.0
C      1  0.5573260000000  0.4575160000000  0.5729350000000 1.0
C      1  0.5019000000000  0.5662390000000  0.4785410000000 1.0
C      1  0.4460460000000  0.4470970000000  0.4196360000000 1.0
C      1  0.4937460000000  0.4735770000000  0.5127450000000 1.0
C      1  0.5308980000000  0.4859680000000  0.5977020000000 1.0
C      1  0.4837660000000  0.4708740000000  0.4665230000000 1.0
C      1  0.5623190000000  0.4856780000000  0.5558070000000 1.0
C      1  0.5154180000000  0.5163690000000  0.5403610000000 1.0
C      1  0.4904460000000  0.4355550000000  0.5015650000000 1.0
C      1  0.5613080000000  0.4024890000000  0.4546330000000 1.0
C      1  0.4007730000000  0.4563620000000  0.5062610000000 1.0
C      1  0.5200170000000  0.5125550000000  0.4000950000000 1.0
C      1  0.4853650000000  0.5319870000000  0.4384440000000 1.0
C      1  0.5285670000000  0.4560480000000  0.5413200000000 1.0
C      1  0.4961570000000  0.5302710000000  0.5610000000000 1.0
C      1  0.4339880000000  0.4913730000000  0.4696810000000 1.0
C      1  0.5874630000000  0.5167440000000  0.4499420000000 1.0
C      1  0.5622900000000  0.4283810000000  0.5000940000000 1.0
C      1  0.5614930000000  0.4974450000000  0.4513970000000 1.0
C      1  0.4727220000000  0.5431370000000  0.4925780000000 1.0
C      1  0.5476630000000  0.5312910000000  0.4046020000000 1.0
C      1  0.4308220000000  0.5233920000000  0.5152610000000 1.0
C      1  0.5416940000000  0.4626110000000  0.4080590000000 1.0
C      1  0.5461540000000  0.5248120000000  0.5360150000000 1.0
C      1  0.4561850000000  0.4727320000000  0.4537830000000 1.0
C      1  0.6122710000000  0.5351110000000  0.5189300000000 1.0
C      1  0.4820130000000  0.5027060000000  0.6130940000000 1.0
C      1  0.5357670000000  0.5789810000000  0.5536290000000 1.0
C      1  0.5079480000000  0.6183580000000  0.5301660000000 1.0
C      1  0.4420750000000  0.4282010000000  0.4874110000000 1.0
C      1  0.5058520000000  0.5617400000000  0.5057350000000 1.0
C      1  0.4678980000000  0.5491250000000  0.4624590000000 1.0
C      1  0.6081320000000  0.5060540000000  0.5262050000000 1.0
C      1  0.5078000000000  0.4895340000000  0.6125030000000 1.0
C      1  0.5450540000000  0.4281900000000  0.4490300000000 1.0
C      1  0.5053180000000  0.4218920000000  0.6063550000000 1.0
C      1  0.5863300000000  0.4469670000000  0.4884570000000 1.0
C      1  0.4158320000000  0.5058580000000  0.4509150000000 1.0
C      1  0.5225420000000  0.4768220000000  0.5029000000000 1.0
C      1  0.3971400000000  0.4583960000000  0.5341740000000 1.0
C      1  0.5734830000000  0.5240510000000  0.5562780000000 1.0
C      1  0.4876850000000  0.4989510000000  0.4771590000000 1.0
C      1  0.5484490000000  0.4077320000000  0.4829390000000 1.0
C      1  0.5975580000000  0.4902000000000  0.4665000000000 1.0
C      1  0.5704680000000  0.4462850000000  0.5490640000000 1.0
C      1  0.4298980000000  0.4953420000000  0.5184780000000 1.0
C      1  0.5400940000000  0.4047590000000  0.5393430000000 1.0
C      1  0.5967450000000  0.4642660000000  0.5085320000000 1.0
C      1  0.4841320000000  0.5771720000000  0.5236480000000 1.0
C      1  0.4104430000000  0.5381780000000  0.5022590000000 1.0
C      1  0.4737040000000  0.6026070000000  0.4873010000000 1.0
C      1  0.4921670000000  0.5910750000000  0.4680440000000 1.0
C      1  0.4131630000000  0.5411650000000  0.5518820000000 1.0
C      1  0.5272670000000  0.4412730000000  0.4289570000000 1.0
C      1  0.4360070000000  0.5709570000000  0.4727560000000 1.0
C      1  0.5169230000000  0.4729210000000  0.4372510000000 1.0
C      1  0.4907320000000  0.4463440000000  0.5330400000000 1.0
C      1  0.5897340000000  0.5383600000000  0.4711340000000 1.0
C      1  0.5657530000000  0.5279580000000  0.4262490000000 1.0
C      1  0.5857190000000  0.5691400000000  0.4959790000000 1.0
C      1  0.4527000000000  0.4352020000000  0.5140820000000 1.0
C      1  0.4877150000000  0.6072410000000  0.5134840000000 1.0
C      1  0.3726490000000  0.4568620000000  0.5459440000000 1.0
C      1  0.3845270000000  0.5374040000000  0.5105680000000 1.0
C      1  0.4935820000000  0.3947370000000  0.5384910000000 1.0
C      1  0.5083080000000  0.4378830000000  0.5597130000000 1.0
C      1  0.4208740000000  0.4789730000000  0.4949820000000 1.0
C      1  0.4438760000000  0.4199110000000  0.5431440000000 1.0
C      1  0.4531360000000  0.5285360000000  0.4413570000000 1.0
C      1  0.4143580000000  0.5339110000000  0.4534220000000 1.0
C      1  0.4214180000000  0.4598560000000  0.5503930000000 1.0
C      1  0.5322730000000  0.5580390000000  0.5764280000000 1.0
C      1  0.5188000000000  0.3983180000000  0.4922060000000 1.0
C      1  0.5577470000000  0.5895630000000  0.4554930000000 1.0
C      1  0.4571210000000  0.4185400000000  0.4633720000000 1.0
C      1  0.5433600000000  0.5026190000000  0.4797090000000 1.0
C      1  0.5019180000000  0.4293840000000  0.4124100000000 1.0
C      1  0.5925620000000  0.4573290000000  0.5354700000000 1.0
C      1  0.5320410000000  0.4750200000000  0.4659510000000 1.0
C      1  0.4741800000000  0.4164050000000  0.5325460000000 1.0
C      1  0.4457070000000  0.4777440000000  0.5402800000000 1.0
C      1  0.4451640000000  0.5786390000000  0.5518480000000 1.0
C      1  0.5929030000000  0.5574970000000  0.5196000000000 1.0
C      1  0.5358020000000  0.4588680000000  0.5907120000000 1.0
C      1  0.4660990000000  0.5131880000000  0.4067970000000 1.0
C      1  0.5535930000000  0.5331730000000  0.4909410000000 1.0
C      1  0.4355590000000  0.5212460000000  0.4063130000000 1.0
C      1  0.5004270000000  0.5074260000000  0.5139570000000 1.0
C      1  0.4466330000000  0.5679150000000  0.4433300000000 1.0
C      1  0.5006100000000  0.5266050000000  0.4857930000000 1.0
C      1  0.5325960000000  0.5525340000000  0.5095290000000 1.0
C      1  0.5069130000000  0.4547050000000  0.4708200000000 1.0
C      1  0.5720050000000  0.5316590000000  0.5876080000000 1.0
C      1  0.4499020000000  0.5859860000000  0.4913390000000 1.0
C      1  0.5146270000000  0.5460140000000  0.4615060000000 1.0
C      1  0.4798390000000  0.4136890000000  0.4196270000000 1.0
C      1  0.4546670000000  0.4221310000000  0.4087490000000 1.0
C      1  0.4703280000000  0.4879850000000  0.5779410000000 1.0
C      1  0.5420380000000  0.5025720000000  0.5137060000000 1.0
C      1  0.5695130000000  0.5639240000000  0.4678520000000 1.0
C      1  0.5529560000000  0.5359800000000  0.4569540000000 1.0
C      1  0.4593060000000  0.5609150000000  0.5679060000000 1.0
C      1  0.5081920000000  0.4611980000000  0.4021720000000 1.0
C      1  0.4776570000000  0.5199860000000  0.5871620000000 1.0
C      1  0.4174660000000  0.5498000000000  0.4768400000000 1.0
C      1  0.4689110000000  0.5036780000000  0.5207010000000 1.0
C      1  0.4874490000000  0.5824620000000  0.4210930000000 1.0
C      1  0.5993660000000  0.4929690000000  0.4981490000000 1.0
C      1  0.5010010000000  0.5029640000000  0.4339530000000 1.0
C      1  0.5857070000000  0.5242480000000  0.4987940000000 1.0
C      1  0.4606580000000  0.5867850000000  0.4242820000000 1.0
C      1  0.4907560000000  0.4125970000000  0.4915280000000 1.0
C      1  0.5255900000000  0.5585590000000  0.4387750000000 1.0
C      1  0.4499240000000  0.5090590000000  0.5609600000000 1.0
C      1  0.4622400000000  0.4685380000000  0.4101830000000 1.0
C      1  0.5328660000000  0.5874720000000  0.4423070000000 1.0
C      1  0.5069170000000  0.4448550000000  0.5898250000000 1.0
C      1  0.4607850000000  0.4650740000000  0.5146510000000 1.0
C      1  0.5707140000000  0.5493340000000  0.5368480000000 1.0
C      1  0.5490200000000  0.4580900000000  0.4979660000000 1.0
C      1  0.4946360000000  0.5535620000000  0.4140730000000 1.0
C      1  0.5504690000000  0.4318850000000  0.5300820000000 1.0
C      1  0.5133190000000  0.4850550000000  0.5506740000000 1.0
C      1  0.4513030000000  0.4979260000000  0.4343230000000 1.0
C      1  0.4506890000000  0.5748600000000  0.5195950000000 1.0
C      1  0.4840910000000  0.4661020000000  0.5974610000000 1.0
C      1  0.5037100000000  0.5950050000000  0.4415670000000 1.0
C      1  0.4285880000000  0.5463680000000  0.4270580000000 1.0
C      1  0.4595320000000  0.5346970000000  0.5189040000000 1.0
C      1  0.4197040000000  0.4981020000000  0.4215010000000 1.0
C      1  0.4592240000000  0.4897530000000  0.4917240000000 1.0
C      1  0.5645200000000  0.4714080000000  0.4317580000000 1.0
C      1  0.4595200000000  0.4824830000000  0.6159780000000 1.0
C      1  0.4153690000000  0.5037900000000  0.5982250000000 1.0
C      1  0.5219220000000  0.4281070000000  0.4723240000000 1.0
C      1  0.4927020000000  0.5771120000000  0.5531800000000 1.0
C      1  0.5047390000000  0.5579030000000  0.5674230000000 1.0
C      1  0.4254570000000  0.5229580000000  0.5761880000000 1.0
C      1  0.5324980000000  0.5128670000000  0.4422730000000 1.0
C      1  0.5149440000000  0.4080290000000  0.5559550000000 1.0
C      1  0.5360700000000  0.5014700000000  0.5710060000000 1.0
C      1  0.5525280000000  0.4747090000000  0.5274310000000 1.0
C      1  0.5237140000000  0.6040550000000  0.5478210000000 1.0
C      1  0.4792300000000  0.4854690000000  0.5475390000000 1.0
END
