TITL C-2778430-5657-922 -0.00201524397043436 125000 -561.052657331432 0 0 96 (C1) n - 1
REM
REM in /home/nfs/bkarasulu/CARBON/AIRSS/Generating-Clusters/REBO/Only-C1/SD-CG/HFTN-CG
REM
REM
REM
REM
REM
REM ./C.cell (11c1c37f851c82e70ff6c80c92926a4b)
REM
REM compiler GCC version 9.2.1 20190827 (Red Hat 9.2.1-1)
REM options -cpp -mtune=generic -march=x86-64 -g -O0 -fpre-include=/usr/include/finclude/math-vector-fortran.h
REM seed 778326397 -669425937 766633684 1352400192 -1622987122 423768329 165317168 2082651999 -710404425 740096342 1416328383 1466069676 188634949 -1462372741 404113563 18017207 -702197797 1394262133 -607705554 1532455533 -1191144713 -1512878490 1868217388 1344870184 -1639269744 1622046306 -1602174604 1064247261 1273028447 2000954266 1101739542 -1797904401 1310517063
REM
CELL 1.54180   50.00000   50.00000   50.00000   90.00000   90.00000   90.00000
LATT -1
SFAC C  
C      1  0.4340450000000  0.4909600000000  0.5296070000000 1.0
C      1  0.5021630000000  0.4166420000000  0.4959850000000 1.0
C      1  0.5015210000000  0.4886410000000  0.4318320000000 1.0
C      1  0.5015790000000  0.5416040000000  0.4503150000000 1.0
C      1  0.4617300000000  0.5128550000000  0.4833740000000 1.0
C      1  0.4863720000000  0.5238780000000  0.5314030000000 1.0
C      1  0.4938830000000  0.4585000000000  0.5857890000000 1.0
C      1  0.5041110000000  0.5254410000000  0.5548260000000 1.0
C      1  0.4351040000000  0.5705770000000  0.4812770000000 1.0
C      1  0.5608080000000  0.5643530000000  0.5486530000000 1.0
C      1  0.4444030000000  0.4588310000000  0.5249900000000 1.0
C      1  0.5324060000000  0.4900080000000  0.5361140000000 1.0
C      1  0.5324610000000  0.5271390000000  0.5605360000000 1.0
C      1  0.5544170000000  0.4947870000000  0.5530290000000 1.0
C      1  0.5147440000000  0.4264660000000  0.5430160000000 1.0
C      1  0.5607440000000  0.5164780000000  0.4564630000000 1.0
C      1  0.5021090000000  0.4172670000000  0.4560250000000 1.0
C      1  0.4895080000000  0.3943550000000  0.4861380000000 1.0
C      1  0.5119370000000  0.4593900000000  0.4290450000000 1.0
C      1  0.4991360000000  0.5685140000000  0.4984090000000 1.0
C      1  0.5225340000000  0.5800810000000  0.5173280000000 1.0
C      1  0.5549040000000  0.4994720000000  0.4985250000000 1.0
C      1  0.5445770000000  0.5053930000000  0.5800790000000 1.0
C      1  0.5611640000000  0.4431070000000  0.4940700000000 1.0
C      1  0.5244630000000  0.4163390000000  0.5171240000000 1.0
C      1  0.4961530000000  0.5039340000000  0.5077560000000 1.0
C      1  0.4246880000000  0.5332450000000  0.5127520000000 1.0
C      1  0.5047830000000  0.5708940000000  0.4371550000000 1.0
C      1  0.5549530000000  0.4892550000000  0.4692980000000 1.0
C      1  0.5247170000000  0.5736620000000  0.4643260000000 1.0
C      1  0.4690770000000  0.5417360000000  0.5646430000000 1.0
C      1  0.5735970000000  0.4824940000000  0.5205310000000 1.0
C      1  0.5466210000000  0.5483170000000  0.4588530000000 1.0
C      1  0.5339090000000  0.4495640000000  0.4513740000000 1.0
C      1  0.4903630000000  0.4908260000000  0.5936740000000 1.0
C      1  0.4620380000000  0.4827140000000  0.4318200000000 1.0
C      1  0.5241900000000  0.5101660000000  0.4182290000000 1.0
C      1  0.5662140000000  0.5346310000000  0.4834030000000 1.0
C      1  0.5611480000000  0.4724080000000  0.4208590000000 1.0
C      1  0.4186240000000  0.4914510000000  0.4858850000000 1.0
C      1  0.4735350000000  0.5699630000000  0.4492990000000 1.0
C      1  0.4729970000000  0.5662780000000  0.5163390000000 1.0
C      1  0.5384160000000  0.5670880000000  0.4929240000000 1.0
C      1  0.5079940000000  0.5702790000000  0.5465900000000 1.0
C      1  0.5414230000000  0.4221130000000  0.4907190000000 1.0
C      1  0.5273630000000  0.4239790000000  0.4658180000000 1.0
C      1  0.5629380000000  0.4586810000000  0.4446830000000 1.0
C      1  0.5137750000000  0.4522330000000  0.5619580000000 1.0
C      1  0.4304530000000  0.4626260000000  0.4941040000000 1.0
C      1  0.4637280000000  0.4556880000000  0.4279960000000 1.0
C      1  0.5439140000000  0.5285110000000  0.4312510000000 1.0
C      1  0.5361920000000  0.5347010000000  0.4960590000000 1.0
C      1  0.4172600000000  0.5060060000000  0.5100820000000 1.0
C      1  0.4643240000000  0.5124720000000  0.4304000000000 1.0
C      1  0.5758360000000  0.5129740000000  0.5360030000000 1.0
C      1  0.4941150000000  0.5212000000000  0.4278150000000 1.0
C      1  0.4582670000000  0.4794700000000  0.4888630000000 1.0
C      1  0.5082370000000  0.5427100000000  0.4835490000000 1.0
C      1  0.4929390000000  0.4464860000000  0.4982320000000 1.0
C      1  0.4880210000000  0.5212640000000  0.5811840000000 1.0
C      1  0.4632640000000  0.5815080000000  0.4877130000000 1.0
C      1  0.5914600000000  0.4853260000000  0.4916700000000 1.0
C      1  0.4724620000000  0.4446760000000  0.5674250000000 1.0
C      1  0.5213940000000  0.4610400000000  0.5102490000000 1.0
C      1  0.4180860000000  0.5568230000000  0.4989090000000 1.0
C      1  0.4595470000000  0.5426050000000  0.4958600000000 1.0
C      1  0.4836860000000  0.4856150000000  0.5443040000000 1.0
C      1  0.5351940000000  0.4790970000000  0.4135760000000 1.0
C      1  0.5264410000000  0.4779340000000  0.4659000000000 1.0
C      1  0.5381940000000  0.5808500000000  0.5462670000000 1.0
C      1  0.4815420000000  0.5608910000000  0.5457360000000 1.0
C      1  0.4724040000000  0.4436670000000  0.5207890000000 1.0
C      1  0.4473280000000  0.4568760000000  0.5589060000000 1.0
C      1  0.5103590000000  0.4763340000000  0.5454150000000 1.0
C      1  0.4181440000000  0.4383110000000  0.4816660000000 1.0
C      1  0.4807150000000  0.4609980000000  0.4737070000000 1.0
C      1  0.4840910000000  0.4324000000000  0.5441530000000 1.0
C      1  0.4300030000000  0.5034060000000  0.5573210000000 1.0
C      1  0.4712460000000  0.4870240000000  0.5695340000000 1.0
C      1  0.5760900000000  0.4628470000000  0.4732650000000 1.0
C      1  0.4931900000000  0.5855050000000  0.4716080000000 1.0
C      1  0.5842870000000  0.5166520000000  0.5032650000000 1.0
C      1  0.5498820000000  0.4607680000000  0.5142370000000 1.0
C      1  0.4543650000000  0.5512670000000  0.4631560000000 1.0
C      1  0.4663800000000  0.4916110000000  0.5188400000000 1.0
C      1  0.4896280000000  0.5181270000000  0.4709690000000 1.0
C      1  0.4547530000000  0.5333170000000  0.5282750000000 1.0
C      1  0.4871970000000  0.4430320000000  0.4456860000000 1.0
C      1  0.4335680000000  0.5057280000000  0.4667220000000 1.0
C      1  0.4424040000000  0.5289310000000  0.5572280000000 1.0
C      1  0.5572130000000  0.5365020000000  0.5473890000000 1.0
C      1  0.4417770000000  0.4828070000000  0.5733780000000 1.0
C      1  0.4833000000000  0.4907070000000  0.4580220000000 1.0
C      1  0.5284800000000  0.5091310000000  0.5120750000000 1.0
C      1  0.5110600000000  0.4810550000000  0.4899580000000 1.0
C      1  0.4472410000000  0.5255370000000  0.4484410000000 1.0
END
