TITL C-2778430-5657-288 0.00499109865749426 125000 -938.386053443462 0 0 165 (C1) n - 1
REM
REM in /home/nfs/bkarasulu/CARBON/AIRSS/Generating-Clusters/REBO/Only-C1/SD-CG/HFTN-CG
REM
REM
REM
REM
REM
REM ./C.cell (11c1c37f851c82e70ff6c80c92926a4b)
REM
REM compiler GCC version 9.2.1 20190827 (Red Hat 9.2.1-1)
REM options -cpp -mtune=generic -march=x86-64 -g -O0 -fpre-include=/usr/include/finclude/math-vector-fortran.h
REM seed -1881369077 -562373737 1097822208 549510066 107064968 -1746044277 82410291 1162312795 1187284188 863361024 -631135620 -370596882 -155865418 -788092197 -1246206734 -1125505872 1581698388 678871247 -1615691765 -796824807 -1635448238 -1927133424 -1206060876 -1181090932 1436472027 1679787402 475959799 -305774315 382562542 -507664200 601495756 -880274827 -1525611831
REM
CELL 1.54180   50.00000   50.00000   50.00000   90.00000   90.00000   90.00000
LATT -1
SFAC C  
C      1  0.4891860000000  0.5063740000000  0.4013830000000 1.0
C      1  0.5398930000000  0.5981140000000  0.5188290000000 1.0
C      1  0.4126790000000  0.5677110000000  0.5486090000000 1.0
C      1  0.4109320000000  0.4438840000000  0.4954180000000 1.0
C      1  0.4385410000000  0.5536550000000  0.4873010000000 1.0
C      1  0.5040700000000  0.4882750000000  0.4152310000000 1.0
C      1  0.4361290000000  0.5857330000000  0.5328830000000 1.0
C      1  0.5649740000000  0.4996060000000  0.5290810000000 1.0
C      1  0.5656630000000  0.5539130000000  0.4986060000000 1.0
C      1  0.5408520000000  0.4286980000000  0.5541410000000 1.0
C      1  0.4282570000000  0.4517060000000  0.5660910000000 1.0
C      1  0.5158080000000  0.5590270000000  0.5018430000000 1.0
C      1  0.5040870000000  0.5344890000000  0.4629010000000 1.0
C      1  0.4134170000000  0.5520080000000  0.4562240000000 1.0
C      1  0.4859030000000  0.3999690000000  0.5491550000000 1.0
C      1  0.4714410000000  0.4430850000000  0.4521720000000 1.0
C      1  0.4238360000000  0.5348430000000  0.4371250000000 1.0
C      1  0.5517160000000  0.4999050000000  0.3994030000000 1.0
C      1  0.4759920000000  0.3684610000000  0.5141370000000 1.0
C      1  0.4476750000000  0.4101270000000  0.5189160000000 1.0
C      1  0.4799090000000  0.4642260000000  0.5738140000000 1.0
C      1  0.5674820000000  0.5586550000000  0.4653190000000 1.0
C      1  0.5057930000000  0.4257510000000  0.5392370000000 1.0
C      1  0.5817380000000  0.5407320000000  0.4185730000000 1.0
C      1  0.4620880000000  0.5945750000000  0.4501990000000 1.0
C      1  0.5889330000000  0.4734940000000  0.5384140000000 1.0
C      1  0.5363200000000  0.4384270000000  0.5843320000000 1.0
C      1  0.5985550000000  0.4983110000000  0.5531140000000 1.0
C      1  0.4970240000000  0.4642400000000  0.4917980000000 1.0
C      1  0.4654470000000  0.6023840000000  0.4829100000000 1.0
C      1  0.5600470000000  0.5576230000000  0.4319500000000 1.0
C      1  0.4799080000000  0.4380550000000  0.5578460000000 1.0
C      1  0.5853420000000  0.5166060000000  0.4301270000000 1.0
C      1  0.5395440000000  0.5773360000000  0.4593070000000 1.0
C      1  0.5902360000000  0.4465700000000  0.4893180000000 1.0
C      1  0.5594790000000  0.5045350000000  0.4487380000000 1.0
C      1  0.4857060000000  0.5558330000000  0.4757830000000 1.0
C      1  0.5568800000000  0.5184460000000  0.5771970000000 1.0
C      1  0.4977660000000  0.5356070000000  0.5979180000000 1.0
C      1  0.5171130000000  0.5204410000000  0.5469700000000 1.0
C      1  0.4572710000000  0.5085490000000  0.4090000000000 1.0
C      1  0.5965630000000  0.5113520000000  0.4595040000000 1.0
C      1  0.5396240000000  0.5374940000000  0.5570470000000 1.0
C      1  0.5498540000000  0.4512840000000  0.4781480000000 1.0
C      1  0.5399040000000  0.4623120000000  0.5475280000000 1.0
C      1  0.5637450000000  0.5739120000000  0.5202860000000 1.0
C      1  0.5419570000000  0.5613730000000  0.5416690000000 1.0
C      1  0.4876420000000  0.5733780000000  0.5742970000000 1.0
C      1  0.4701150000000  0.3967180000000  0.4262740000000 1.0
C      1  0.5579060000000  0.4887450000000  0.5606500000000 1.0
C      1  0.5140530000000  0.4055660000000  0.4431580000000 1.0
C      1  0.5635970000000  0.5833610000000  0.5534030000000 1.0
C      1  0.4355640000000  0.5762330000000  0.4616650000000 1.0
C      1  0.4745960000000  0.5718090000000  0.4277370000000 1.0
C      1  0.5795790000000  0.4169610000000  0.5033300000000 1.0
C      1  0.5347420000000  0.5604270000000  0.4106500000000 1.0
C      1  0.4924950000000  0.5838140000000  0.4611040000000 1.0
C      1  0.5609270000000  0.4352660000000  0.4494020000000 1.0
C      1  0.5160460000000  0.4504060000000  0.4111160000000 1.0
C      1  0.4490760000000  0.4843980000000  0.4213980000000 1.0
C      1  0.5667000000000  0.4524680000000  0.5354580000000 1.0
C      1  0.4528700000000  0.4837890000000  0.5340100000000 1.0
C      1  0.5043220000000  0.4838120000000  0.4471420000000 1.0
C      1  0.4031250000000  0.4542640000000  0.5216720000000 1.0
C      1  0.4607670000000  0.5624520000000  0.5789530000000 1.0
C      1  0.4429540000000  0.4740270000000  0.4836500000000 1.0
C      1  0.5376350000000  0.4201380000000  0.4692910000000 1.0
C      1  0.4113060000000  0.4356100000000  0.5426530000000 1.0
C      1  0.5183750000000  0.4932730000000  0.5621280000000 1.0
C      1  0.4659830000000  0.5362720000000  0.5960160000000 1.0
C      1  0.4348600000000  0.4848910000000  0.5135410000000 1.0
C      1  0.4810030000000  0.4867450000000  0.5994150000000 1.0
C      1  0.5847300000000  0.5215420000000  0.5119690000000 1.0
C      1  0.5220610000000  0.4293990000000  0.5095860000000 1.0
C      1  0.4918460000000  0.4130210000000  0.4286400000000 1.0
C      1  0.5350420000000  0.4995480000000  0.5916410000000 1.0
C      1  0.5178200000000  0.5929430000000  0.4589160000000 1.0
C      1  0.4961560000000  0.4576160000000  0.6091460000000 1.0
C      1  0.4628290000000  0.6018300000000  0.5224500000000 1.0
C      1  0.3970740000000  0.5372070000000  0.4746490000000 1.0
C      1  0.4677300000000  0.5399290000000  0.4174180000000 1.0
C      1  0.5145000000000  0.4351020000000  0.6015230000000 1.0
C      1  0.4538070000000  0.4681490000000  0.5569280000000 1.0
C      1  0.6036210000000  0.4995320000000  0.4967600000000 1.0
C      1  0.5367280000000  0.5838020000000  0.5743730000000 1.0
C      1  0.5684200000000  0.4187240000000  0.5356570000000 1.0
C      1  0.5158600000000  0.5929440000000  0.4988000000000 1.0
C      1  0.5228130000000  0.5135790000000  0.5165830000000 1.0
C      1  0.5487040000000  0.4469690000000  0.4202850000000 1.0
C      1  0.5137230000000  0.5713830000000  0.5320760000000 1.0
C      1  0.4325400000000  0.4206110000000  0.4964320000000 1.0
C      1  0.4778270000000  0.5138730000000  0.4848070000000 1.0
C      1  0.4331240000000  0.4189520000000  0.5600140000000 1.0
C      1  0.4194160000000  0.4847600000000  0.4376290000000 1.0
C      1  0.4902920000000  0.5331980000000  0.5492710000000 1.0
C      1  0.5198120000000  0.5246470000000  0.4192870000000 1.0
C      1  0.4594420000000  0.4525080000000  0.4242630000000 1.0
C      1  0.4899540000000  0.4500130000000  0.5212370000000 1.0
C      1  0.5078380000000  0.5028600000000  0.4740840000000 1.0
C      1  0.4452030000000  0.5606490000000  0.5531060000000 1.0
C      1  0.4905970000000  0.4399000000000  0.4176820000000 1.0
C      1  0.4612670000000  0.5553670000000  0.4544850000000 1.0
C      1  0.4597030000000  0.4107950000000  0.5601980000000 1.0
C      1  0.4203110000000  0.5427570000000  0.5065260000000 1.0
C      1  0.5841400000000  0.4813130000000  0.4482170000000 1.0
C      1  0.5392240000000  0.4022130000000  0.5326810000000 1.0
C      1  0.5274450000000  0.5980250000000  0.5476590000000 1.0
C      1  0.4298290000000  0.5232610000000  0.5400250000000 1.0
C      1  0.5115210000000  0.4692680000000  0.5810220000000 1.0
C      1  0.4666380000000  0.5084640000000  0.5361140000000 1.0
C      1  0.4384490000000  0.5102170000000  0.4499050000000 1.0
C      1  0.4743250000000  0.4826070000000  0.4814720000000 1.0
C      1  0.5390310000000  0.5345300000000  0.4967000000000 1.0
C      1  0.5417600000000  0.5228550000000  0.4686240000000 1.0
C      1  0.5345610000000  0.4816870000000  0.4740720000000 1.0
C      1  0.5646550000000  0.4772420000000  0.4203790000000 1.0
C      1  0.5286550000000  0.5067000000000  0.4407910000000 1.0
C      1  0.5236970000000  0.4848850000000  0.5302990000000 1.0
C      1  0.4287970000000  0.4556010000000  0.4397820000000 1.0
C      1  0.5221660000000  0.4438790000000  0.4508280000000 1.0
C      1  0.5292680000000  0.4785170000000  0.4021480000000 1.0
C      1  0.4998280000000  0.5297780000000  0.5023450000000 1.0
C      1  0.6263820000000  0.5015620000000  0.4842650000000 1.0
C      1  0.4542550000000  0.5043000000000  0.5956230000000 1.0
C      1  0.4936420000000  0.4148610000000  0.5028350000000 1.0
C      1  0.4554120000000  0.4815410000000  0.4543520000000 1.0
C      1  0.3985060000000  0.5134940000000  0.4903130000000 1.0
C      1  0.4162660000000  0.4809940000000  0.5605010000000 1.0
C      1  0.4550530000000  0.5284800000000  0.4713590000000 1.0
C      1  0.4356340000000  0.5046290000000  0.5669540000000 1.0
C      1  0.5524730000000  0.4826970000000  0.5027640000000 1.0
C      1  0.4943200000000  0.6153610000000  0.4855890000000 1.0
C      1  0.4839340000000  0.5827750000000  0.5052860000000 1.0
C      1  0.5854220000000  0.4527130000000  0.4600100000000 1.0
C      1  0.4138970000000  0.4880880000000  0.4901490000000 1.0
C      1  0.5848880000000  0.5327850000000  0.4797810000000 1.0
C      1  0.4569420000000  0.5403660000000  0.5284740000000 1.0
C      1  0.4013620000000  0.4814540000000  0.5346490000000 1.0
C      1  0.4444620000000  0.5828110000000  0.5000180000000 1.0
C      1  0.5418360000000  0.5288320000000  0.3996920000000 1.0
C      1  0.5254700000000  0.4620440000000  0.5075880000000 1.0
C      1  0.4707830000000  0.5291540000000  0.3851960000000 1.0
C      1  0.4593070000000  0.4381660000000  0.5311530000000 1.0
C      1  0.5616810000000  0.4443800000000  0.5060860000000 1.0
C      1  0.4629870000000  0.5251310000000  0.5647990000000 1.0
C      1  0.5072260000000  0.5660560000000  0.4189740000000 1.0
C      1  0.4963720000000  0.4564910000000  0.4607840000000 1.0
C      1  0.5859500000000  0.4757160000000  0.5052710000000 1.0
C      1  0.4035370000000  0.5102330000000  0.5223420000000 1.0
C      1  0.5387750000000  0.5447880000000  0.5889270000000 1.0
C      1  0.4025810000000  0.5419940000000  0.5347820000000 1.0
C      1  0.5055470000000  0.5092720000000  0.5982480000000 1.0
C      1  0.5466090000000  0.4082960000000  0.4998890000000 1.0
C      1  0.4242110000000  0.4438400000000  0.4655550000000 1.0
C      1  0.4723840000000  0.3951920000000  0.5118400000000 1.0
C      1  0.4691520000000  0.4365200000000  0.4983540000000 1.0
C      1  0.5138020000000  0.5651300000000  0.5914590000000 1.0
C      1  0.4916240000000  0.5619980000000  0.5477670000000 1.0
C      1  0.5958690000000  0.5211960000000  0.5422990000000 1.0
C      1  0.5328070000000  0.5469660000000  0.4495970000000 1.0
C      1  0.4763220000000  0.5521830000000  0.5082660000000 1.0
C      1  0.5455690000000  0.4689970000000  0.5859050000000 1.0
C      1  0.5413770000000  0.4694540000000  0.4440380000000 1.0
C      1  0.4532740000000  0.4328170000000  0.4729840000000 1.0
C      1  0.4958040000000  0.5385620000000  0.4321910000000 1.0
END
