TITL C-2778434-4341-1303 -6.18073284367102e-05 125000 -226.138983865616 0 0 41 (C1) n - 1
REM
REM in /home/nfs/bkarasulu/CARBON/AIRSS/Generating-Clusters/REBO/Only-C1/SD-CG/HFTN-CG
REM
REM
REM
REM
REM
REM ./C.cell (11c1c37f851c82e70ff6c80c92926a4b)
REM
REM compiler GCC version 9.2.1 20190827 (Red Hat 9.2.1-1)
REM options -cpp -mtune=generic -march=x86-64 -g -O0 -fpre-include=/usr/include/finclude/math-vector-fortran.h
REM seed 713274313 -225358298 -791851673 -1317518834 2106908719 1876733416 772141090 331767052 1929808130 -245337642 -803050017 1873332037 636885395 1772038207 -1810220847 1415984720 1146958071 -261255870 -916905891 -580875364 -992784764 1379634793 -1992846720 1311521922 -1935041668 -242216728 -901598039 -164163742 743603347 -1868536447 -1284373371 -913243058 -423443887
REM
CELL 1.54180   50.00000   50.00000   50.00000   90.00000   90.00000   90.00000
LATT -1
SFAC C  
C      1  0.5053770000000  0.5366740000000  0.4684260000000 1.0
C      1  0.4640920000000  0.5013590000000  0.5117160000000 1.0
C      1  0.4619110000000  0.5831890000000  0.5273960000000 1.0
C      1  0.5396670000000  0.5082480000000  0.4444430000000 1.0
C      1  0.4805720000000  0.4555640000000  0.4566340000000 1.0
C      1  0.4821680000000  0.6023660000000  0.5116550000000 1.0
C      1  0.5298580000000  0.4524590000000  0.5352590000000 1.0
C      1  0.5686640000000  0.5037880000000  0.4321090000000 1.0
C      1  0.4837140000000  0.5695500000000  0.5043910000000 1.0
C      1  0.5422740000000  0.4813320000000  0.4861650000000 1.0
C      1  0.5442600000000  0.4013260000000  0.5445600000000 1.0
C      1  0.4422130000000  0.4939320000000  0.4613660000000 1.0
C      1  0.4933760000000  0.4649650000000  0.4788500000000 1.0
C      1  0.5069910000000  0.4639970000000  0.5466440000000 1.0
C      1  0.5049890000000  0.5299430000000  0.5402890000000 1.0
C      1  0.5463850000000  0.4692560000000  0.5175940000000 1.0
C      1  0.4533070000000  0.4509300000000  0.5037390000000 1.0
C      1  0.5119710000000  0.5088060000000  0.4564740000000 1.0
C      1  0.4574060000000  0.4832950000000  0.5694850000000 1.0
C      1  0.4443370000000  0.5064350000000  0.4850720000000 1.0
C      1  0.5420190000000  0.5014820000000  0.5213510000000 1.0
C      1  0.5767020000000  0.4711390000000  0.5046040000000 1.0
C      1  0.4635320000000  0.5502810000000  0.5230080000000 1.0
C      1  0.4889100000000  0.4994260000000  0.4376190000000 1.0
C      1  0.4387170000000  0.4467320000000  0.4806160000000 1.0
C      1  0.4493670000000  0.5308200000000  0.5048920000000 1.0
C      1  0.4653980000000  0.5029520000000  0.5430460000000 1.0
C      1  0.5637220000000  0.4950390000000  0.4646050000000 1.0
C      1  0.4846140000000  0.4773240000000  0.5544470000000 1.0
C      1  0.4778090000000  0.4645670000000  0.5044670000000 1.0
C      1  0.5372620000000  0.4261740000000  0.5400400000000 1.0
C      1  0.5647860000000  0.5148840000000  0.5097630000000 1.0
C      1  0.4977970000000  0.5547520000000  0.4827440000000 1.0
C      1  0.5786930000000  0.4964880000000  0.4919560000000 1.0
C      1  0.4648350000000  0.4883120000000  0.4400560000000 1.0
C      1  0.5137090000000  0.4884730000000  0.4793560000000 1.0
C      1  0.4776930000000  0.5316710000000  0.5429360000000 1.0
C      1  0.4953460000000  0.4938940000000  0.5062090000000 1.0
C      1  0.5154430000000  0.5092070000000  0.5242740000000 1.0
C      1  0.4915130000000  0.6271200000000  0.5069930000000 1.0
C      1  0.4486010000000  0.4618490000000  0.4547490000000 1.0
END
