TITL C-2778422-5617-800 -0.342837627138612 125000 -287.327305812988 0 0 53 (C1) n - 1
REM
REM in /home/nfs/bkarasulu/CARBON/AIRSS/Generating-Clusters/REBO/Only-C1/SD-CG/HFTN-CG
REM
REM
REM
REM
REM
REM ./C.cell (11c1c37f851c82e70ff6c80c92926a4b)
REM
REM compiler GCC version 9.2.1 20190827 (Red Hat 9.2.1-1)
REM options -cpp -mtune=generic -march=x86-64 -g -O0 -fpre-include=/usr/include/finclude/math-vector-fortran.h
REM seed 617522954 1162771484 -1393173390 1982383553 -127022994 -1582518932 1627369719 -1449171656 -628361322 137228875 -1585678005 -1350370064 778131050 1027580789 2037845 -573641166 230131272 -2041591668 1039372134 -1240367693 -751104632 2143752911 -1067625926 -1921231783 -1789381424 337456164 1106195081 -1589225240 -1086497590 1535857704 2114768313 -322591591 -1478975947
REM
CELL 1.54180   50.00000   50.00000   50.00000   90.00000   90.00000   90.00000
LATT -1
SFAC C  
C      1  0.5029690000000  0.4652620000000  0.4705270000000 1.0
C      1  0.5365330000000  0.5234140000000  0.5254940000000 1.0
C      1  0.5680670000000  0.4746030000000  0.4664560000000 1.0
C      1  0.4577100000000  0.4977080000000  0.4662960000000 1.0
C      1  0.4796330000000  0.5634090000000  0.5303140000000 1.0
C      1  0.5185840000000  0.5170560000000  0.4969930000000 1.0
C      1  0.5141340000000  0.5106560000000  0.4270110000000 1.0
C      1  0.5229170000000  0.5444560000000  0.5446420000000 1.0
C      1  0.4940240000000  0.4791750000000  0.4999820000000 1.0
C      1  0.4400690000000  0.5275600000000  0.5127000000000 1.0
C      1  0.4567260000000  0.4861710000000  0.4961560000000 1.0
C      1  0.5681420000000  0.4732750000000  0.5154240000000 1.0
C      1  0.4953690000000  0.5127990000000  0.4475930000000 1.0
C      1  0.5659190000000  0.4874780000000  0.4911020000000 1.0
C      1  0.4155750000000  0.4582180000000  0.4932280000000 1.0
C      1  0.5360330000000  0.4980270000000  0.5462920000000 1.0
C      1  0.5276320000000  0.4476380000000  0.4699980000000 1.0
C      1  0.4431150000000  0.4584920000000  0.4995540000000 1.0
C      1  0.5475120000000  0.4344750000000  0.4822290000000 1.0
C      1  0.5392630000000  0.5640900000000  0.5555310000000 1.0
C      1  0.4949060000000  0.5450710000000  0.5491180000000 1.0
C      1  0.5655780000000  0.5343660000000  0.5168290000000 1.0
C      1  0.5034930000000  0.4991520000000  0.4739070000000 1.0
C      1  0.4606110000000  0.4418850000000  0.4782250000000 1.0
C      1  0.4836720000000  0.5682610000000  0.5009970000000 1.0
C      1  0.5583040000000  0.5145190000000  0.4931770000000 1.0
C      1  0.5700860000000  0.4625040000000  0.4432960000000 1.0
C      1  0.4603540000000  0.5256040000000  0.4154390000000 1.0
C      1  0.4775810000000  0.5185320000000  0.5557070000000 1.0
C      1  0.4460350000000  0.5170990000000  0.5426680000000 1.0
C      1  0.4718780000000  0.5342800000000  0.5184400000000 1.0
C      1  0.5534650000000  0.4394020000000  0.5306480000000 1.0
C      1  0.4484790000000  0.4513600000000  0.5295130000000 1.0
C      1  0.4975350000000  0.5167020000000  0.5210920000000 1.0
C      1  0.4786850000000  0.5484420000000  0.4818230000000 1.0
C      1  0.4568520000000  0.5395790000000  0.4625800000000 1.0
C      1  0.5471200000000  0.4716660000000  0.5397470000000 1.0
C      1  0.4703100000000  0.5256490000000  0.4407480000000 1.0
C      1  0.4590020000000  0.4906140000000  0.5548990000000 1.0
C      1  0.4933190000000  0.4661260000000  0.5314730000000 1.0
C      1  0.5394420000000  0.5354630000000  0.4786160000000 1.0
C      1  0.5072110000000  0.4481310000000  0.5062270000000 1.0
C      1  0.5654980000000  0.5616570000000  0.5067640000000 1.0
C      1  0.5226520000000  0.4498370000000  0.5359660000000 1.0
C      1  0.4628460000000  0.4776430000000  0.4473650000000 1.0
C      1  0.4715680000000  0.5160410000000  0.4909970000000 1.0
C      1  0.4665590000000  0.4665500000000  0.5434880000000 1.0
C      1  0.4348860000000  0.5319290000000  0.4789430000000 1.0
C      1  0.5487470000000  0.5622560000000  0.4839700000000 1.0
C      1  0.4762530000000  0.4552380000000  0.4594190000000 1.0
C      1  0.5594400000000  0.4295370000000  0.5062350000000 1.0
C      1  0.4102720000000  0.5238250000000  0.4967260000000 1.0
C      1  0.5074360000000  0.5071220000000  0.5474340000000 1.0
END
