TITL C-2778433-5640-52 -0.00266862097846436 125000 -463.169443916478 0 0 80 (C1) n - 1
REM
REM in /home/nfs/bkarasulu/CARBON/AIRSS/Generating-Clusters/REBO/Only-C1/SD-CG/HFTN-CG
REM
REM
REM
REM
REM
REM ./C.cell (11c1c37f851c82e70ff6c80c92926a4b)
REM
REM compiler GCC version 9.2.1 20190827 (Red Hat 9.2.1-1)
REM options -cpp -mtune=generic -march=x86-64 -g -O0 -fpre-include=/usr/include/finclude/math-vector-fortran.h
REM seed 12302119 686613001 1097703398 1696731531 -388868259 -1214207950 1676183932 -741966387 -2079398204 -850660406 893519605 -2077286344 -424995999 862356249 1566568983 -387260287 1240645925 1317646164 1149203837 1744800766 634777090 1707416389 350460759 573661465 -2117991489 -1425319149 -611154204 -1074529278 590131847 623449821 830207462 -1890933454 478432321
REM
CELL 1.54180   50.00000   50.00000   50.00000   90.00000   90.00000   90.00000
LATT -1
SFAC C  
C      1  0.5159350000000  0.5260910000000  0.5931660000000 1.0
C      1  0.5274450000000  0.5121380000000  0.4285790000000 1.0
C      1  0.5431550000000  0.4557100000000  0.5485200000000 1.0
C      1  0.5170660000000  0.5089780000000  0.5390690000000 1.0
C      1  0.5159390000000  0.4799400000000  0.5668690000000 1.0
C      1  0.5466160000000  0.4890250000000  0.5571460000000 1.0
C      1  0.4836580000000  0.5608710000000  0.4506550000000 1.0
C      1  0.5462330000000  0.5350560000000  0.5041990000000 1.0
C      1  0.4481280000000  0.4864790000000  0.4472250000000 1.0
C      1  0.5295210000000  0.5596420000000  0.4609840000000 1.0
C      1  0.5202240000000  0.4499910000000  0.4220310000000 1.0
C      1  0.4616910000000  0.5149330000000  0.5559030000000 1.0
C      1  0.5287110000000  0.5829320000000  0.5036680000000 1.0
C      1  0.5286420000000  0.5328510000000  0.4767660000000 1.0
C      1  0.5125440000000  0.5540850000000  0.5648480000000 1.0
C      1  0.5407590000000  0.5585360000000  0.5227550000000 1.0
C      1  0.4305060000000  0.4693420000000  0.5037980000000 1.0
C      1  0.4981150000000  0.5237760000000  0.4808140000000 1.0
C      1  0.5334980000000  0.4291130000000  0.5301780000000 1.0
C      1  0.5437570000000  0.5098380000000  0.5212900000000 1.0
C      1  0.5370620000000  0.5463720000000  0.5527580000000 1.0
C      1  0.5017600000000  0.4230840000000  0.5402640000000 1.0
C      1  0.4960530000000  0.5836820000000  0.5042760000000 1.0
C      1  0.5086550000000  0.5611920000000  0.5257550000000 1.0
C      1  0.4297800000000  0.4430800000000  0.4600060000000 1.0
C      1  0.4628850000000  0.4620200000000  0.5110630000000 1.0
C      1  0.4508770000000  0.5186210000000  0.5175700000000 1.0
C      1  0.4873560000000  0.4881780000000  0.4408690000000 1.0
C      1  0.4918040000000  0.4947130000000  0.4719180000000 1.0
C      1  0.5723800000000  0.4784190000000  0.4804900000000 1.0
C      1  0.4667180000000  0.4855430000000  0.4882430000000 1.0
C      1  0.4605800000000  0.4843930000000  0.5585160000000 1.0
C      1  0.4415130000000  0.5504090000000  0.4676740000000 1.0
C      1  0.4844960000000  0.4669340000000  0.5662250000000 1.0
C      1  0.5715960000000  0.5387110000000  0.4853710000000 1.0
C      1  0.5614180000000  0.4750810000000  0.5299190000000 1.0
C      1  0.4973530000000  0.5335380000000  0.5276110000000 1.0
C      1  0.4325440000000  0.5491170000000  0.4958570000000 1.0
C      1  0.4430190000000  0.4730800000000  0.5359360000000 1.0
C      1  0.4756010000000  0.4349710000000  0.5586290000000 1.0
C      1  0.5099220000000  0.5568400000000  0.4399060000000 1.0
C      1  0.5728990000000  0.5120840000000  0.5381100000000 1.0
C      1  0.5439020000000  0.5136960000000  0.4544990000000 1.0
C      1  0.4405670000000  0.5015030000000  0.4829260000000 1.0
C      1  0.5465000000000  0.4852600000000  0.4650950000000 1.0
C      1  0.4986860000000  0.4812430000000  0.5308940000000 1.0
C      1  0.5464370000000  0.4236880000000  0.4707650000000 1.0
C      1  0.4283480000000  0.4721340000000  0.4710950000000 1.0
C      1  0.5413170000000  0.4834140000000  0.5050870000000 1.0
C      1  0.5137190000000  0.4832770000000  0.4263650000000 1.0
C      1  0.5377720000000  0.5811840000000  0.4758110000000 1.0
C      1  0.5387570000000  0.4352690000000  0.4464610000000 1.0
C      1  0.4640460000000  0.5130780000000  0.4454830000000 1.0
C      1  0.4689250000000  0.5649700000000  0.5007250000000 1.0
C      1  0.4628220000000  0.5407060000000  0.4511780000000 1.0
C      1  0.5414770000000  0.4242350000000  0.4972820000000 1.0
C      1  0.4285050000000  0.4986930000000  0.5208870000000 1.0
C      1  0.4905750000000  0.4260810000000  0.4880040000000 1.0
C      1  0.5183170000000  0.4831660000000  0.4809850000000 1.0
C      1  0.5160320000000  0.5115470000000  0.5718250000000 1.0
C      1  0.5696010000000  0.5307120000000  0.4614540000000 1.0
C      1  0.5128780000000  0.4374960000000  0.5048720000000 1.0
C      1  0.4787660000000  0.5050260000000  0.5295720000000 1.0
C      1  0.4567030000000  0.4391060000000  0.4500800000000 1.0
C      1  0.4743840000000  0.4249020000000  0.4668120000000 1.0
C      1  0.4095330000000  0.4246770000000  0.4624380000000 1.0
C      1  0.5517750000000  0.5226000000000  0.5582340000000 1.0
C      1  0.4772220000000  0.5338230000000  0.5021510000000 1.0
C      1  0.5136230000000  0.4668740000000  0.5077160000000 1.0
C      1  0.4853820000000  0.5558710000000  0.5626100000000 1.0
C      1  0.5398620000000  0.4681300000000  0.4420700000000 1.0
C      1  0.4618440000000  0.5434060000000  0.5527960000000 1.0
C      1  0.4659070000000  0.4633890000000  0.4384320000000 1.0
C      1  0.5154620000000  0.5357030000000  0.4214650000000 1.0
C      1  0.4845140000000  0.4507730000000  0.5297150000000 1.0
C      1  0.5801410000000  0.4742560000000  0.5038530000000 1.0
C      1  0.4493460000000  0.5520550000000  0.5240940000000 1.0
C      1  0.5125830000000  0.4486270000000  0.5580650000000 1.0
C      1  0.4822900000000  0.5778820000000  0.4736610000000 1.0
C      1  0.4230660000000  0.5221590000000  0.4891110000000 1.0
END
