TITL C-2778434-4341-995 0.00918018043208796 125000 -979.858870900305 0 0 170 (C1) n - 1
REM
REM in /home/nfs/bkarasulu/CARBON/AIRSS/Generating-Clusters/REBO/Only-C1/SD-CG/HFTN-CG
REM
REM
REM
REM
REM
REM ./C.cell (11c1c37f851c82e70ff6c80c92926a4b)
REM
REM compiler GCC version 9.2.1 20190827 (Red Hat 9.2.1-1)
REM options -cpp -mtune=generic -march=x86-64 -g -O0 -fpre-include=/usr/include/finclude/math-vector-fortran.h
REM seed -3513766 -787426676 383214467 1713387427 -1609715064 -223223729 802497556 -1185279260 1999796273 912231518 1158769068 -1675383904 -1341009524 -642172798 1147487179 -1268375878 -1494843585 1822170811 2136489824 -1800086268 1508557011 1062617835 -1567674216 115235964 681675461 174287620 -1434555166 -461334934 735261374 1143918209 -512537554 907253201 -657999465
REM
CELL 1.54180   50.00000   50.00000   50.00000   90.00000   90.00000   90.00000
LATT -1
SFAC C  
C      1  0.5077780000000  0.4658330000000  0.5968680000000 1.0
C      1  0.4315410000000  0.4550260000000  0.4838850000000 1.0
C      1  0.5724710000000  0.5339260000000  0.5612850000000 1.0
C      1  0.4316550000000  0.4858050000000  0.5777250000000 1.0
C      1  0.5524820000000  0.5889440000000  0.4879790000000 1.0
C      1  0.4256000000000  0.5372650000000  0.5586340000000 1.0
C      1  0.5064030000000  0.5924620000000  0.5437920000000 1.0
C      1  0.5728940000000  0.5434230000000  0.4577980000000 1.0
C      1  0.5502110000000  0.4451090000000  0.4317360000000 1.0
C      1  0.5874210000000  0.4407370000000  0.4644880000000 1.0
C      1  0.5192410000000  0.4348870000000  0.4218660000000 1.0
C      1  0.4521400000000  0.5335410000000  0.5801210000000 1.0
C      1  0.4885780000000  0.5224450000000  0.4072710000000 1.0
C      1  0.4712530000000  0.4376000000000  0.5038940000000 1.0
C      1  0.5772000000000  0.5064460000000  0.4255670000000 1.0
C      1  0.5855110000000  0.4704870000000  0.4567800000000 1.0
C      1  0.5593810000000  0.4990090000000  0.4924490000000 1.0
C      1  0.4906550000000  0.4987500000000  0.5778320000000 1.0
C      1  0.5616580000000  0.4985920000000  0.5244770000000 1.0
C      1  0.4717970000000  0.5726950000000  0.4537390000000 1.0
C      1  0.4815730000000  0.5501800000000  0.5748610000000 1.0
C      1  0.5730600000000  0.5541630000000  0.5027180000000 1.0
C      1  0.5408740000000  0.6000630000000  0.4445260000000 1.0
C      1  0.4695040000000  0.5965100000000  0.5011350000000 1.0
C      1  0.5546400000000  0.4674620000000  0.5251870000000 1.0
C      1  0.4573310000000  0.4712310000000  0.6015260000000 1.0
C      1  0.4499030000000  0.4621240000000  0.5320020000000 1.0
C      1  0.4889630000000  0.4795750000000  0.5217350000000 1.0
C      1  0.4428230000000  0.3937460000000  0.4670840000000 1.0
C      1  0.4139050000000  0.5418930000000  0.5207270000000 1.0
C      1  0.4072370000000  0.4994890000000  0.5753920000000 1.0
C      1  0.5063700000000  0.4172350000000  0.5665850000000 1.0
C      1  0.5648360000000  0.4589380000000  0.4955370000000 1.0
C      1  0.4418000000000  0.4235950000000  0.5058140000000 1.0
C      1  0.4858350000000  0.5171960000000  0.4411850000000 1.0
C      1  0.5888380000000  0.4906170000000  0.5554900000000 1.0
C      1  0.5318950000000  0.4430380000000  0.4786530000000 1.0
C      1  0.4826730000000  0.5237340000000  0.5565260000000 1.0
C      1  0.4849460000000  0.4999320000000  0.3910830000000 1.0
C      1  0.5903690000000  0.5346190000000  0.4967930000000 1.0
C      1  0.4237020000000  0.4559010000000  0.5526460000000 1.0
C      1  0.4280100000000  0.5637430000000  0.5368900000000 1.0
C      1  0.4227480000000  0.4433820000000  0.5209520000000 1.0
C      1  0.5074830000000  0.5434140000000  0.4442140000000 1.0
C      1  0.5304840000000  0.5043820000000  0.5240570000000 1.0
C      1  0.5266480000000  0.5089500000000  0.4495050000000 1.0
C      1  0.5373170000000  0.3925240000000  0.5245720000000 1.0
C      1  0.5602720000000  0.5285680000000  0.5346510000000 1.0
C      1  0.4629330000000  0.4573020000000  0.4082600000000 1.0
C      1  0.5040140000000  0.5297110000000  0.4917770000000 1.0
C      1  0.5197050000000  0.4427050000000  0.5054410000000 1.0
C      1  0.4230570000000  0.5421210000000  0.4483680000000 1.0
C      1  0.4774120000000  0.5220450000000  0.4741260000000 1.0
C      1  0.5457870000000  0.4893750000000  0.4082830000000 1.0
C      1  0.5179900000000  0.5518190000000  0.4739460000000 1.0
C      1  0.4314600000000  0.5588720000000  0.4841470000000 1.0
C      1  0.4809400000000  0.5918080000000  0.5318360000000 1.0
C      1  0.4373770000000  0.4640360000000  0.4202240000000 1.0
C      1  0.5242190000000  0.5234170000000  0.5854370000000 1.0
C      1  0.4325630000000  0.4227420000000  0.4729890000000 1.0
C      1  0.4723210000000  0.4952560000000  0.5426800000000 1.0
C      1  0.4599060000000  0.4085860000000  0.5474850000000 1.0
C      1  0.5136520000000  0.4864220000000  0.5558030000000 1.0
C      1  0.4188230000000  0.4857640000000  0.5399060000000 1.0
C      1  0.4575480000000  0.4856170000000  0.4471450000000 1.0
C      1  0.5998760000000  0.5064020000000  0.5332340000000 1.0
C      1  0.5748650000000  0.5712270000000  0.5260140000000 1.0
C      1  0.5411010000000  0.5774110000000  0.4261450000000 1.0
C      1  0.5003320000000  0.5363090000000  0.5310010000000 1.0
C      1  0.5458010000000  0.5498490000000  0.4106990000000 1.0
C      1  0.4306830000000  0.4731360000000  0.4582430000000 1.0
C      1  0.4329610000000  0.4421170000000  0.4461760000000 1.0
C      1  0.4648860000000  0.5631820000000  0.4254730000000 1.0
C      1  0.5456350000000  0.4189960000000  0.5363390000000 1.0
C      1  0.5320550000000  0.6007760000000  0.5349780000000 1.0
C      1  0.5021760000000  0.4136860000000  0.5108670000000 1.0
C      1  0.5746410000000  0.5082520000000  0.5742720000000 1.0
C      1  0.4305910000000  0.5742480000000  0.4550150000000 1.0
C      1  0.4699710000000  0.4042230000000  0.5049550000000 1.0
C      1  0.5055320000000  0.4635560000000  0.4536350000000 1.0
C      1  0.5353270000000  0.4692310000000  0.4487780000000 1.0
C      1  0.5202330000000  0.5886120000000  0.4988100000000 1.0
C      1  0.5134740000000  0.4359340000000  0.5419680000000 1.0
C      1  0.4982110000000  0.4321570000000  0.4554220000000 1.0
C      1  0.5720980000000  0.5710990000000  0.4665620000000 1.0
C      1  0.4052090000000  0.5155960000000  0.5493020000000 1.0
C      1  0.5837780000000  0.4626800000000  0.5520290000000 1.0
C      1  0.4872860000000  0.4505780000000  0.5256900000000 1.0
C      1  0.4256460000000  0.4913660000000  0.4234450000000 1.0
C      1  0.4756190000000  0.5170100000000  0.5178320000000 1.0
C      1  0.4134060000000  0.5092000000000  0.4498450000000 1.0
C      1  0.5699910000000  0.4285280000000  0.5206660000000 1.0
C      1  0.5241630000000  0.4642330000000  0.5321350000000 1.0
C      1  0.5281020000000  0.4170180000000  0.4495410000000 1.0
C      1  0.3993180000000  0.5081930000000  0.4812740000000 1.0
C      1  0.5688630000000  0.4734510000000  0.4275900000000 1.0
C      1  0.4660340000000  0.5709270000000  0.5443730000000 1.0
C      1  0.4450670000000  0.5640450000000  0.5665700000000 1.0
C      1  0.4872560000000  0.4063670000000  0.5406460000000 1.0
C      1  0.5074390000000  0.5698130000000  0.5639760000000 1.0
C      1  0.4380920000000  0.5086780000000  0.5278720000000 1.0
C      1  0.5220400000000  0.5198940000000  0.5515820000000 1.0
C      1  0.4463630000000  0.5727420000000  0.5096150000000 1.0
C      1  0.5195500000000  0.4108270000000  0.4815270000000 1.0
C      1  0.5885210000000  0.5574350000000  0.5474930000000 1.0
C      1  0.5101230000000  0.4928630000000  0.5080770000000 1.0
C      1  0.4407550000000  0.5485000000000  0.4221130000000 1.0
C      1  0.4524560000000  0.5911550000000  0.4739620000000 1.0
C      1  0.4886370000000  0.4832290000000  0.4377140000000 1.0
C      1  0.4901430000000  0.4747160000000  0.4069320000000 1.0
C      1  0.4873760000000  0.4795130000000  0.4779190000000 1.0
C      1  0.4001520000000  0.5111710000000  0.5155560000000 1.0
C      1  0.4519420000000  0.5154480000000  0.4415060000000 1.0
C      1  0.5472600000000  0.5296750000000  0.4586990000000 1.0
C      1  0.4372740000000  0.5211740000000  0.4711680000000 1.0
C      1  0.5553570000000  0.5928490000000  0.5209950000000 1.0
C      1  0.5187980000000  0.5342990000000  0.4048970000000 1.0
C      1  0.5487610000000  0.4999770000000  0.5877710000000 1.0
C      1  0.4623670000000  0.5466850000000  0.5245930000000 1.0
C      1  0.5175580000000  0.6031330000000  0.4617150000000 1.0
C      1  0.4891780000000  0.5542820000000  0.4103550000000 1.0
C      1  0.4065380000000  0.5396270000000  0.4885370000000 1.0
C      1  0.4014330000000  0.4779190000000  0.4717500000000 1.0
C      1  0.4813870000000  0.5521990000000  0.4998560000000 1.0
C      1  0.4359320000000  0.4516160000000  0.5830960000000 1.0
C      1  0.4980370000000  0.6064660000000  0.4893980000000 1.0
C      1  0.5889980000000  0.5188630000000  0.4488610000000 1.0
C      1  0.5898860000000  0.4488720000000  0.5274210000000 1.0
C      1  0.4648200000000  0.4527600000000  0.4479040000000 1.0
C      1  0.4354890000000  0.5231060000000  0.5015150000000 1.0
C      1  0.4816330000000  0.4597840000000  0.5843540000000 1.0
C      1  0.5208770000000  0.4679380000000  0.4170410000000 1.0
C      1  0.4603680000000  0.4745710000000  0.5619350000000 1.0
C      1  0.5355350000000  0.5182590000000  0.4870130000000 1.0
C      1  0.5979900000000  0.4979010000000  0.4667200000000 1.0
C      1  0.5347220000000  0.5518240000000  0.5545490000000 1.0
C      1  0.4855870000000  0.4392010000000  0.4246340000000 1.0
C      1  0.4612750000000  0.3849720000000  0.4822520000000 1.0
C      1  0.6061370000000  0.5336540000000  0.5397410000000 1.0
C      1  0.5399820000000  0.4238200000000  0.5687950000000 1.0
C      1  0.4371760000000  0.5191130000000  0.4126420000000 1.0
C      1  0.5308130000000  0.3877930000000  0.5006870000000 1.0
C      1  0.5555470000000  0.4765650000000  0.4698340000000 1.0
C      1  0.5598400000000  0.4234110000000  0.4550550000000 1.0
C      1  0.5932140000000  0.5013300000000  0.5001740000000 1.0
C      1  0.5949620000000  0.4682630000000  0.5049010000000 1.0
C      1  0.4618260000000  0.5523030000000  0.4754340000000 1.0
C      1  0.5132350000000  0.5672110000000  0.4258910000000 1.0
C      1  0.5147730000000  0.4949850000000  0.4758920000000 1.0
C      1  0.4472050000000  0.4765550000000  0.5033820000000 1.0
C      1  0.5576890000000  0.5218410000000  0.4088140000000 1.0
C      1  0.5429540000000  0.5571360000000  0.4898250000000 1.0
C      1  0.4155770000000  0.4822810000000  0.5084150000000 1.0
C      1  0.5670510000000  0.4270650000000  0.4881400000000 1.0
C      1  0.5388630000000  0.5480560000000  0.5223970000000 1.0
C      1  0.5379330000000  0.4751160000000  0.5724530000000 1.0
C      1  0.4588890000000  0.5033450000000  0.5893020000000 1.0
C      1  0.5011010000000  0.5776340000000  0.4624500000000 1.0
C      1  0.5166140000000  0.4951330000000  0.5996110000000 1.0
C      1  0.4808210000000  0.4300500000000  0.5804400000000 1.0
C      1  0.5538410000000  0.4526860000000  0.5562670000000 1.0
C      1  0.4668800000000  0.4969760000000  0.4933310000000 1.0
C      1  0.4005910000000  0.4558210000000  0.4980230000000 1.0
C      1  0.4532620000000  0.4248230000000  0.5712540000000 1.0
C      1  0.5102980000000  0.5507180000000  0.5924040000000 1.0
C      1  0.5403560000000  0.5599470000000  0.5841960000000 1.0
C      1  0.5305820000000  0.4476930000000  0.5880870000000 1.0
C      1  0.5107480000000  0.5629770000000  0.5125970000000 1.0
C      1  0.4780050000000  0.4479290000000  0.4775870000000 1.0
C      1  0.5227820000000  0.5074570000000  0.4214960000000 1.0
END
