TITL C-2778429-3646-1139 0.0001845726099707 125000 -704.198691184783 0 0 123 (C1) n - 1
REM
REM in /home/nfs/bkarasulu/CARBON/AIRSS/Generating-Clusters/REBO/Only-C1/SD-CG/HFTN-CG
REM
REM
REM
REM
REM
REM ./C.cell (11c1c37f851c82e70ff6c80c92926a4b)
REM
REM compiler GCC version 9.2.1 20190827 (Red Hat 9.2.1-1)
REM options -cpp -mtune=generic -march=x86-64 -g -O0 -fpre-include=/usr/include/finclude/math-vector-fortran.h
REM seed 868006047 -1328910396 852238277 -887429952 -524770733 -1371911745 971349178 -1759234954 1917208803 -1345109683 -1515664877 -1474347336 918071669 -2035545555 -1441978664 195528427 1447072884 1410532319 850720007 664216736 -284009683 1404501134 -1553895001 -16013198 1108076941 -908022118 -1177881219 -1725210854 -1468486641 845802522 1798954924 -1720209453 -1477982790
REM
CELL 1.54180   50.00000   50.00000   50.00000   90.00000   90.00000   90.00000
LATT -1
SFAC C  
C      1  0.4885510000000  0.4467470000000  0.5240140000000 1.0
C      1  0.4342220000000  0.4451930000000  0.4566450000000 1.0
C      1  0.4507590000000  0.4924590000000  0.4239240000000 1.0
C      1  0.4881250000000  0.4995420000000  0.5953960000000 1.0
C      1  0.4804760000000  0.5033350000000  0.5120100000000 1.0
C      1  0.5329860000000  0.4036370000000  0.5315940000000 1.0
C      1  0.5142570000000  0.5082230000000  0.5999750000000 1.0
C      1  0.4245580000000  0.5015660000000  0.5115670000000 1.0
C      1  0.5590840000000  0.5030320000000  0.5817860000000 1.0
C      1  0.4721190000000  0.5185240000000  0.5830560000000 1.0
C      1  0.4562280000000  0.4156870000000  0.5354910000000 1.0
C      1  0.5115720000000  0.5865320000000  0.4579250000000 1.0
C      1  0.5245540000000  0.4574040000000  0.5376670000000 1.0
C      1  0.4459540000000  0.4960040000000  0.4765760000000 1.0
C      1  0.4589260000000  0.4283170000000  0.4495040000000 1.0
C      1  0.4223700000000  0.4553220000000  0.5381950000000 1.0
C      1  0.5100850000000  0.4597810000000  0.4794090000000 1.0
C      1  0.4348890000000  0.5670140000000  0.5181010000000 1.0
C      1  0.4998590000000  0.5538970000000  0.4233590000000 1.0
C      1  0.5344910000000  0.4855790000000  0.5934530000000 1.0
C      1  0.4617100000000  0.4547480000000  0.5106090000000 1.0
C      1  0.5248750000000  0.5156230000000  0.4486920000000 1.0
C      1  0.5820390000000  0.4788540000000  0.4546150000000 1.0
C      1  0.4542030000000  0.5869760000000  0.4787430000000 1.0
C      1  0.4729180000000  0.5937460000000  0.5031030000000 1.0
C      1  0.5774380000000  0.4495440000000  0.4968760000000 1.0
C      1  0.4091370000000  0.5101390000000  0.4820020000000 1.0
C      1  0.5780670000000  0.4819260000000  0.4942670000000 1.0
C      1  0.5577970000000  0.5198210000000  0.4407200000000 1.0
C      1  0.4298890000000  0.5766010000000  0.4913340000000 1.0
C      1  0.4404440000000  0.4396540000000  0.5223950000000 1.0
C      1  0.5739880000000  0.4529190000000  0.4662770000000 1.0
C      1  0.4606450000000  0.5716030000000  0.4534510000000 1.0
C      1  0.5186410000000  0.5343500000000  0.5926650000000 1.0
C      1  0.5005770000000  0.5065440000000  0.4845630000000 1.0
C      1  0.4652330000000  0.4788060000000  0.4940200000000 1.0
C      1  0.5640230000000  0.5389900000000  0.5363730000000 1.0
C      1  0.5537270000000  0.5477010000000  0.5051470000000 1.0
C      1  0.4631080000000  0.4373490000000  0.5551490000000 1.0
C      1  0.6012430000000  0.5245670000000  0.4983970000000 1.0
C      1  0.5334770000000  0.4791200000000  0.4239780000000 1.0
C      1  0.4983630000000  0.4122910000000  0.4719840000000 1.0
C      1  0.5833460000000  0.5596030000000  0.4649500000000 1.0
C      1  0.5270330000000  0.5403360000000  0.5215370000000 1.0
C      1  0.4232290000000  0.5373240000000  0.4940250000000 1.0
C      1  0.5682820000000  0.5719080000000  0.4928370000000 1.0
C      1  0.5467830000000  0.4732630000000  0.4871630000000 1.0
C      1  0.5005260000000  0.4766430000000  0.4257330000000 1.0
C      1  0.4780800000000  0.4366930000000  0.4266540000000 1.0
C      1  0.4287770000000  0.5305930000000  0.5633520000000 1.0
C      1  0.4801060000000  0.4008380000000  0.5262420000000 1.0
C      1  0.4207570000000  0.5392100000000  0.5318810000000 1.0
C      1  0.5354110000000  0.5751030000000  0.4531800000000 1.0
C      1  0.5067360000000  0.4360770000000  0.5026770000000 1.0
C      1  0.5554510000000  0.4565840000000  0.5222650000000 1.0
C      1  0.5201200000000  0.4747030000000  0.5085220000000 1.0
C      1  0.4525090000000  0.5117690000000  0.5280480000000 1.0
C      1  0.4162160000000  0.5064540000000  0.5433660000000 1.0
C      1  0.4823020000000  0.5731460000000  0.4344130000000 1.0
C      1  0.5489590000000  0.4882990000000  0.5325450000000 1.0
C      1  0.4175280000000  0.5302560000000  0.4552940000000 1.0
C      1  0.4131480000000  0.5589610000000  0.4733860000000 1.0
C      1  0.5076000000000  0.5544000000000  0.5675190000000 1.0
C      1  0.4998920000000  0.5560270000000  0.5357250000000 1.0
C      1  0.5480680000000  0.4575630000000  0.4460670000000 1.0
C      1  0.5546200000000  0.5952930000000  0.4950030000000 1.0
C      1  0.5310440000000  0.4367020000000  0.5789560000000 1.0
C      1  0.4485350000000  0.5402230000000  0.4479310000000 1.0
C      1  0.5042460000000  0.4059860000000  0.5423490000000 1.0
C      1  0.4889400000000  0.4068130000000  0.4997340000000 1.0
C      1  0.4698340000000  0.5547340000000  0.4959910000000 1.0
C      1  0.4689300000000  0.5682230000000  0.5265360000000 1.0
C      1  0.4569740000000  0.4768500000000  0.5691550000000 1.0
C      1  0.4171110000000  0.4553800000000  0.4764520000000 1.0
C      1  0.5395380000000  0.4415510000000  0.4982140000000 1.0
C      1  0.5248560000000  0.5070440000000  0.5170960000000 1.0
C      1  0.5762320000000  0.4949810000000  0.5213440000000 1.0
C      1  0.4724500000000  0.5371100000000  0.4696490000000 1.0
C      1  0.4129790000000  0.4779630000000  0.4899360000000 1.0
C      1  0.5350220000000  0.5478610000000  0.5525710000000 1.0
C      1  0.5284800000000  0.4121550000000  0.4738270000000 1.0
C      1  0.4689300000000  0.5160740000000  0.4360460000000 1.0
C      1  0.5503530000000  0.5199820000000  0.5611210000000 1.0
C      1  0.5200230000000  0.5094520000000  0.5498650000000 1.0
C      1  0.4722190000000  0.4666990000000  0.4175410000000 1.0
C      1  0.4851040000000  0.4401250000000  0.5765670000000 1.0
C      1  0.4885270000000  0.5355290000000  0.5135270000000 1.0
C      1  0.5615330000000  0.4900310000000  0.4349590000000 1.0
C      1  0.5941580000000  0.5013860000000  0.4744610000000 1.0
C      1  0.4761140000000  0.4730050000000  0.4645800000000 1.0
C      1  0.5496660000000  0.5545690000000  0.4623650000000 1.0
C      1  0.5175510000000  0.4583250000000  0.5897070000000 1.0
C      1  0.5376790000000  0.4096200000000  0.5036690000000 1.0
C      1  0.5038120000000  0.5393000000000  0.4828410000000 1.0
C      1  0.5502980000000  0.5544840000000  0.4223110000000 1.0
C      1  0.4274430000000  0.4777580000000  0.5535190000000 1.0
C      1  0.5776530000000  0.5265090000000  0.4663430000000 1.0
C      1  0.4536460000000  0.5425360000000  0.5428520000000 1.0
C      1  0.5018860000000  0.5980230000000  0.4949720000000 1.0
C      1  0.5124280000000  0.5039670000000  0.4128040000000 1.0
C      1  0.4945330000000  0.4988920000000  0.4515860000000 1.0
C      1  0.4857740000000  0.4404150000000  0.4655500000000 1.0
C      1  0.4525380000000  0.4672280000000  0.4445680000000 1.0
C      1  0.5049940000000  0.4321580000000  0.4315690000000 1.0
C      1  0.5319030000000  0.5002920000000  0.4783570000000 1.0
C      1  0.5334010000000  0.4807240000000  0.5608350000000 1.0
C      1  0.4331760000000  0.5014320000000  0.4507940000000 1.0
C      1  0.5854760000000  0.5217390000000  0.5211470000000 1.0
C      1  0.4852710000000  0.4696630000000  0.5876260000000 1.0
C      1  0.4926740000000  0.5707160000000  0.4773770000000 1.0
C      1  0.4793190000000  0.4674760000000  0.5481430000000 1.0
C      1  0.5485630000000  0.5266480000000  0.4810830000000 1.0
C      1  0.5382820000000  0.4189410000000  0.5587870000000 1.0
C      1  0.5245190000000  0.4400530000000  0.4557100000000 1.0
C      1  0.5288600000000  0.6039020000000  0.4968310000000 1.0
C      1  0.4525170000000  0.5076660000000  0.5620350000000 1.0
C      1  0.5761230000000  0.5481170000000  0.4335930000000 1.0
C      1  0.5027720000000  0.4354440000000  0.5508670000000 1.0
C      1  0.4946490000000  0.4918370000000  0.5380990000000 1.0
C      1  0.4812270000000  0.5440980000000  0.5824820000000 1.0
C      1  0.4932480000000  0.5251240000000  0.4181730000000 1.0
C      1  0.4484170000000  0.5229090000000  0.4862800000000 1.0
C      1  0.5264770000000  0.5428590000000  0.4313250000000 1.0
END
