TITL C-2778435-5768-886 -4.80261704493471e-05 125000 -1155.38224803648 0 0 198 (C1) n - 1
REM
REM in /home/nfs/bkarasulu/CARBON/AIRSS/Generating-Clusters/REBO/Only-C1/SD-CG/HFTN-CG
REM
REM
REM
REM
REM
REM ./C.cell (11c1c37f851c82e70ff6c80c92926a4b)
REM
REM compiler GCC version 9.2.1 20190827 (Red Hat 9.2.1-1)
REM options -cpp -mtune=generic -march=x86-64 -g -O0 -fpre-include=/usr/include/finclude/math-vector-fortran.h
REM seed -771344538 -13401466 1393370021 362124398 -1214715072 997596891 493047909 -1367996224 2095212687 -742458897 574506416 1940474592 2048750526 1992965065 -495220694 1455603171 181628303 -964974436 -76927595 -1758540966 289598643 941240579 -1883710780 -1411999219 -1147619403 440584065 1699494950 1352892680 -2002882731 -1912728575 -1533513509 349161503 1669499066
REM
CELL 1.54180   50.00000   50.00000   50.00000   90.00000   90.00000   90.00000
LATT -1
SFAC C  
C      1  0.5847610000000  0.3865530000000  0.4315960000000 1.0
C      1  0.5525210000000  0.4951960000000  0.4124700000000 1.0
C      1  0.4726350000000  0.4980180000000  0.5429590000000 1.0
C      1  0.5665830000000  0.5184230000000  0.4940090000000 1.0
C      1  0.5547840000000  0.5708760000000  0.5716190000000 1.0
C      1  0.4096690000000  0.4137610000000  0.5131210000000 1.0
C      1  0.4008080000000  0.5693120000000  0.4845160000000 1.0
C      1  0.4732400000000  0.3919640000000  0.4762600000000 1.0
C      1  0.5545970000000  0.5838070000000  0.6203240000000 1.0
C      1  0.4568370000000  0.4217330000000  0.5679870000000 1.0
C      1  0.5179950000000  0.5435750000000  0.4306960000000 1.0
C      1  0.5535120000000  0.3989780000000  0.5102010000000 1.0
C      1  0.4851790000000  0.4222210000000  0.4338080000000 1.0
C      1  0.4905920000000  0.5454320000000  0.4018460000000 1.0
C      1  0.4089360000000  0.5335400000000  0.4445430000000 1.0
C      1  0.5324430000000  0.4450400000000  0.5115610000000 1.0
C      1  0.4492450000000  0.4576500000000  0.4238280000000 1.0
C      1  0.5803300000000  0.5740430000000  0.4540540000000 1.0
C      1  0.5464010000000  0.5692920000000  0.6000710000000 1.0
C      1  0.4984330000000  0.3988660000000  0.4876160000000 1.0
C      1  0.3980340000000  0.4735290000000  0.4766510000000 1.0
C      1  0.3919090000000  0.5139800000000  0.5252420000000 1.0
C      1  0.4880150000000  0.4408040000000  0.5351080000000 1.0
C      1  0.4060070000000  0.4460770000000  0.4783660000000 1.0
C      1  0.5027090000000  0.5163860000000  0.6154630000000 1.0
C      1  0.5316030000000  0.4822050000000  0.3916540000000 1.0
C      1  0.4905120000000  0.5456510000000  0.4911240000000 1.0
C      1  0.5750660000000  0.4794200000000  0.4299350000000 1.0
C      1  0.6066100000000  0.5144240000000  0.5205690000000 1.0
C      1  0.6053730000000  0.5232740000000  0.4877010000000 1.0
C      1  0.5277720000000  0.5006360000000  0.6025610000000 1.0
C      1  0.4004140000000  0.4885190000000  0.5461250000000 1.0
C      1  0.6052880000000  0.4808610000000  0.5261580000000 1.0
C      1  0.5833530000000  0.4161410000000  0.5674580000000 1.0
C      1  0.4614400000000  0.5805470000000  0.5659940000000 1.0
C      1  0.4567120000000  0.6132560000000  0.5310620000000 1.0
C      1  0.4294950000000  0.4051720000000  0.4953290000000 1.0
C      1  0.4289280000000  0.5623810000000  0.4985360000000 1.0
C      1  0.4539570000000  0.5077740000000  0.3945380000000 1.0
C      1  0.4407790000000  0.5341900000000  0.5840270000000 1.0
C      1  0.4947480000000  0.5421100000000  0.4446670000000 1.0
C      1  0.4783150000000  0.4772620000000  0.5661570000000 1.0
C      1  0.4967130000000  0.5106630000000  0.5226510000000 1.0
C      1  0.5544080000000  0.5513560000000  0.4163830000000 1.0
C      1  0.4925650000000  0.5603360000000  0.4664820000000 1.0
C      1  0.4252050000000  0.5487790000000  0.5610100000000 1.0
C      1  0.5336500000000  0.6004710000000  0.4446880000000 1.0
C      1  0.4520620000000  0.4782750000000  0.3984830000000 1.0
C      1  0.3971200000000  0.4912560000000  0.5004760000000 1.0
C      1  0.4117000000000  0.5194000000000  0.4910740000000 1.0
C      1  0.5231270000000  0.4945020000000  0.4282840000000 1.0
C      1  0.5559860000000  0.5078870000000  0.5754310000000 1.0
C      1  0.4032980000000  0.4327740000000  0.4532030000000 1.0
C      1  0.4985720000000  0.5369560000000  0.5591550000000 1.0
C      1  0.4947490000000  0.5090920000000  0.4671890000000 1.0
C      1  0.5055040000000  0.4649980000000  0.4292090000000 1.0
C      1  0.4698020000000  0.4766440000000  0.4721960000000 1.0
C      1  0.5954320000000  0.5134360000000  0.5719150000000 1.0
C      1  0.4528100000000  0.4256820000000  0.4816890000000 1.0
C      1  0.5796300000000  0.5506980000000  0.4392800000000 1.0
C      1  0.5907240000000  0.4176500000000  0.4707930000000 1.0
C      1  0.4354060000000  0.5828850000000  0.4701000000000 1.0
C      1  0.5287190000000  0.4129060000000  0.5085290000000 1.0
C      1  0.4641330000000  0.4589400000000  0.5434680000000 1.0
C      1  0.5232800000000  0.5494970000000  0.4017680000000 1.0
C      1  0.5657230000000  0.4518670000000  0.5695050000000 1.0
C      1  0.4686080000000  0.5537180000000  0.5793360000000 1.0
C      1  0.5932240000000  0.4660260000000  0.5543570000000 1.0
C      1  0.4211090000000  0.4677810000000  0.4088490000000 1.0
C      1  0.4085210000000  0.4249270000000  0.5393530000000 1.0
C      1  0.4425610000000  0.4657990000000  0.4548660000000 1.0
C      1  0.4735650000000  0.5195160000000  0.4425220000000 1.0
C      1  0.5793490000000  0.4088640000000  0.4443200000000 1.0
C      1  0.4655190000000  0.5886100000000  0.4351280000000 1.0
C      1  0.5603070000000  0.4849970000000  0.4934140000000 1.0
C      1  0.5331000000000  0.5367080000000  0.4767210000000 1.0
C      1  0.5639070000000  0.4775060000000  0.4608780000000 1.0
C      1  0.3955920000000  0.5429390000000  0.5057790000000 1.0
C      1  0.4323160000000  0.4980700000000  0.5538230000000 1.0
C      1  0.5291400000000  0.5826230000000  0.5535910000000 1.0
C      1  0.4421830000000  0.4331310000000  0.4441260000000 1.0
C      1  0.6070200000000  0.4920520000000  0.4769990000000 1.0
C      1  0.5026740000000  0.6032490000000  0.5480510000000 1.0
C      1  0.5768870000000  0.4128210000000  0.5015820000000 1.0
C      1  0.4312680000000  0.4450700000000  0.4949140000000 1.0
C      1  0.4072570000000  0.4897140000000  0.4259390000000 1.0
C      1  0.4289720000000  0.4114210000000  0.5586470000000 1.0
C      1  0.5155810000000  0.4710940000000  0.5985870000000 1.0
C      1  0.5266140000000  0.5120840000000  0.4536470000000 1.0
C      1  0.5271210000000  0.4773930000000  0.5012820000000 1.0
C      1  0.5497060000000  0.4483550000000  0.4590950000000 1.0
C      1  0.5121910000000  0.4330030000000  0.5894930000000 1.0
C      1  0.4391790000000  0.4682900000000  0.5827140000000 1.0
C      1  0.5356420000000  0.5045120000000  0.5210810000000 1.0
C      1  0.4797520000000  0.5867300000000  0.4608150000000 1.0
C      1  0.5580170000000  0.5093180000000  0.4624070000000 1.0
C      1  0.4270740000000  0.5255980000000  0.4017780000000 1.0
C      1  0.5790680000000  0.5771260000000  0.5102790000000 1.0
C      1  0.5539480000000  0.4212570000000  0.5681660000000 1.0
C      1  0.4074530000000  0.5613680000000  0.4521880000000 1.0
C      1  0.4393270000000  0.4723710000000  0.5076370000000 1.0
C      1  0.5107280000000  0.5211560000000  0.4938830000000 1.0
C      1  0.5006550000000  0.6022940000000  0.5009220000000 1.0
C      1  0.5602340000000  0.4307180000000  0.4348310000000 1.0
C      1  0.5656650000000  0.4758460000000  0.5246270000000 1.0
C      1  0.4120170000000  0.5378660000000  0.5352510000000 1.0
C      1  0.5264700000000  0.4279290000000  0.5638100000000 1.0
C      1  0.5021340000000  0.4930860000000  0.4012230000000 1.0
C      1  0.4895970000000  0.4929320000000  0.5940790000000 1.0
C      1  0.4324430000000  0.5802500000000  0.4386180000000 1.0
C      1  0.5247500000000  0.5463230000000  0.6014120000000 1.0
C      1  0.5965780000000  0.4282480000000  0.5232770000000 1.0
C      1  0.4542140000000  0.3883840000000  0.4970050000000 1.0
C      1  0.5519050000000  0.4392550000000  0.4029770000000 1.0
C      1  0.4728000000000  0.6030490000000  0.5522900000000 1.0
C      1  0.5116130000000  0.4278680000000  0.4821290000000 1.0
C      1  0.4059530000000  0.4544440000000  0.5424680000000 1.0
C      1  0.5123900000000  0.4850630000000  0.5376520000000 1.0
C      1  0.4523660000000  0.5529140000000  0.4450170000000 1.0
C      1  0.5748020000000  0.5064940000000  0.5238140000000 1.0
C      1  0.4237840000000  0.5151870000000  0.4643060000000 1.0
C      1  0.4682880000000  0.5181680000000  0.5967820000000 1.0
C      1  0.4655990000000  0.5697940000000  0.5101400000000 1.0
C      1  0.4369960000000  0.5732960000000  0.5535620000000 1.0
C      1  0.4731890000000  0.5628850000000  0.4183500000000 1.0
C      1  0.5330320000000  0.5050300000000  0.5550060000000 1.0
C      1  0.4431970000000  0.5234780000000  0.5338980000000 1.0
C      1  0.4436850000000  0.5003720000000  0.5831650000000 1.0
C      1  0.5412050000000  0.5379690000000  0.5178230000000 1.0
C      1  0.4826230000000  0.4664300000000  0.4040480000000 1.0
C      1  0.4491510000000  0.4368020000000  0.5221980000000 1.0
C      1  0.5498540000000  0.4668620000000  0.5475480000000 1.0
C      1  0.5893300000000  0.5267430000000  0.5473310000000 1.0
C      1  0.4839580000000  0.5178670000000  0.3965840000000 1.0
C      1  0.5774620000000  0.4523920000000  0.4172880000000 1.0
C      1  0.4140300000000  0.4395530000000  0.4264550000000 1.0
C      1  0.4502280000000  0.6075030000000  0.4978970000000 1.0
C      1  0.6044490000000  0.4402060000000  0.4923340000000 1.0
C      1  0.4363120000000  0.5795970000000  0.5244750000000 1.0
C      1  0.5193960000000  0.4527560000000  0.5416680000000 1.0
C      1  0.4907790000000  0.5437740000000  0.6012030000000 1.0
C      1  0.5004160000000  0.4785850000000  0.4571010000000 1.0
C      1  0.5461890000000  0.5549330000000  0.5430030000000 1.0
C      1  0.5920170000000  0.5748850000000  0.5345330000000 1.0
C      1  0.5361660000000  0.4556250000000  0.3867130000000 1.0
C      1  0.4349420000000  0.4701440000000  0.5390400000000 1.0
C      1  0.4683840000000  0.3892630000000  0.5252650000000 1.0
C      1  0.4815950000000  0.4343500000000  0.4089580000000 1.0
C      1  0.4926350000000  0.4772510000000  0.4985850000000 1.0
C      1  0.4816780000000  0.4123600000000  0.5466800000000 1.0
C      1  0.4549600000000  0.5070470000000  0.4652100000000 1.0
C      1  0.4895670000000  0.5828480000000  0.5222230000000 1.0
C      1  0.5415300000000  0.4501850000000  0.5934170000000 1.0
C      1  0.5616050000000  0.5786960000000  0.4744680000000 1.0
C      1  0.4536700000000  0.5286950000000  0.4209930000000 1.0
C      1  0.4064290000000  0.5179830000000  0.4199890000000 1.0
C      1  0.4685580000000  0.5283860000000  0.5562670000000 1.0
C      1  0.6088940000000  0.4721520000000  0.4972200000000 1.0
C      1  0.4630600000000  0.4111230000000  0.4522830000000 1.0
C      1  0.5385570000000  0.5777270000000  0.4310350000000 1.0
C      1  0.5002520000000  0.4483130000000  0.5068440000000 1.0
C      1  0.5542460000000  0.5927070000000  0.5110410000000 1.0
C      1  0.5169990000000  0.5224310000000  0.5786490000000 1.0
C      1  0.4243100000000  0.6106070000000  0.5210050000000 1.0
C      1  0.5006690000000  0.3987290000000  0.5215390000000 1.0
C      1  0.4768830000000  0.4433580000000  0.4713640000000 1.0
C      1  0.5261520000000  0.4677960000000  0.4694250000000 1.0
C      1  0.5507450000000  0.5548270000000  0.4933140000000 1.0
C      1  0.4173010000000  0.4850660000000  0.4553490000000 1.0
C      1  0.5860290000000  0.5258130000000  0.4595300000000 1.0
C      1  0.5825900000000  0.4870410000000  0.5767160000000 1.0
C      1  0.5777680000000  0.5543230000000  0.5524580000000 1.0
C      1  0.5977370000000  0.4337430000000  0.5520570000000 1.0
C      1  0.4638890000000  0.5365840000000  0.5102820000000 1.0
C      1  0.4167990000000  0.5992840000000  0.4908130000000 1.0
C      1  0.5542070000000  0.4806240000000  0.5946440000000 1.0
C      1  0.5412530000000  0.5490430000000  0.4495610000000 1.0
C      1  0.5537400000000  0.5316100000000  0.5911120000000 1.0
C      1  0.4706030000000  0.5110540000000  0.4924610000000 1.0
C      1  0.4278640000000  0.5020000000000  0.5123890000000 1.0
C      1  0.4879050000000  0.4537350000000  0.5889260000000 1.0
C      1  0.5828760000000  0.5484630000000  0.4923100000000 1.0
C      1  0.4549790000000  0.5587010000000  0.4787350000000 1.0
C      1  0.5050610000000  0.5644850000000  0.5421000000000 1.0
C      1  0.4119850000000  0.4686670000000  0.5716770000000 1.0
C      1  0.5421220000000  0.5995600000000  0.4717080000000 1.0
C      1  0.5286170000000  0.6031140000000  0.4979440000000 1.0
C      1  0.4580540000000  0.4466820000000  0.5817820000000 1.0
C      1  0.4448090000000  0.4100750000000  0.5318520000000 1.0
C      1  0.5043150000000  0.4393270000000  0.4519260000000 1.0
C      1  0.4771390000000  0.6038360000000  0.4834560000000 1.0
C      1  0.5129920000000  0.5365620000000  0.5303560000000 1.0
C      1  0.4660950000000  0.4875960000000  0.5126160000000 1.0
C      1  0.6003450000000  0.4897740000000  0.4499810000000 1.0
C      1  0.5766230000000  0.4520440000000  0.5091220000000 1.0
C      1  0.5660660000000  0.4378380000000  0.4819130000000 1.0
C      1  0.5785410000000  0.5135800000000  0.4095250000000 1.0
C      1  0.5961200000000  0.5141170000000  0.4303540000000 1.0
END
