TITL C-2778429-3646-1048 -0.00231122860387916 125000 -429.685942313491 0 0 75 (C1) n - 1
REM
REM in /home/nfs/bkarasulu/CARBON/AIRSS/Generating-Clusters/REBO/Only-C1/SD-CG/HFTN-CG
REM
REM
REM
REM
REM
REM ./C.cell (11c1c37f851c82e70ff6c80c92926a4b)
REM
REM compiler GCC version 9.2.1 20190827 (Red Hat 9.2.1-1)
REM options -cpp -mtune=generic -march=x86-64 -g -O0 -fpre-include=/usr/include/finclude/math-vector-fortran.h
REM seed 2124049498 1034430780 1061931434 1105514268 1317756368 1147468515 -1404575207 486061362 145142479 1772484030 366626594 -665548280 1257060738 1221160744 739128175 -714840407 -1512488448 -1537442187 1706347073 -981876805 -1277295509 817405421 -1992292001 -1523205041 2090112682 -679824611 1665911198 -989237594 1913626495 -2080391941 1677932571 -2093257948 -387085430
REM
CELL 1.54180   50.00000   50.00000   50.00000   90.00000   90.00000   90.00000
LATT -1
SFAC C  
C      1  0.5090630000000  0.5724530000000  0.4725950000000 1.0
C      1  0.5552320000000  0.5016470000000  0.4895870000000 1.0
C      1  0.4984920000000  0.4883960000000  0.4115400000000 1.0
C      1  0.4843880000000  0.5347210000000  0.4497540000000 1.0
C      1  0.5168090000000  0.4306600000000  0.5128270000000 1.0
C      1  0.5098890000000  0.4302300000000  0.4599830000000 1.0
C      1  0.5394980000000  0.5424770000000  0.5341990000000 1.0
C      1  0.4911460000000  0.4516730000000  0.4466100000000 1.0
C      1  0.5192740000000  0.4688640000000  0.4556580000000 1.0
C      1  0.5080920000000  0.4941220000000  0.5780900000000 1.0
C      1  0.5481240000000  0.5721940000000  0.5069310000000 1.0
C      1  0.5302420000000  0.4793910000000  0.4830340000000 1.0
C      1  0.4578810000000  0.4522800000000  0.4533660000000 1.0
C      1  0.5586840000000  0.5643780000000  0.4803710000000 1.0
C      1  0.4744120000000  0.5413520000000  0.5658530000000 1.0
C      1  0.4703520000000  0.4274950000000  0.5318500000000 1.0
C      1  0.4725570000000  0.4882840000000  0.5019420000000 1.0
C      1  0.5235740000000  0.5758960000000  0.5192950000000 1.0
C      1  0.5403890000000  0.4980840000000  0.4364670000000 1.0
C      1  0.5034190000000  0.4226270000000  0.4861790000000 1.0
C      1  0.5136520000000  0.5437440000000  0.4545970000000 1.0
C      1  0.4364350000000  0.4788530000000  0.4876720000000 1.0
C      1  0.5220910000000  0.5201900000000  0.5655810000000 1.0
C      1  0.4787980000000  0.4356520000000  0.5023500000000 1.0
C      1  0.4729370000000  0.4766810000000  0.4718190000000 1.0
C      1  0.4392960000000  0.4951350000000  0.4607740000000 1.0
C      1  0.4773370000000  0.4713000000000  0.4250380000000 1.0
C      1  0.4568280000000  0.4531940000000  0.4914550000000 1.0
C      1  0.4428990000000  0.4652300000000  0.5190330000000 1.0
C      1  0.5266980000000  0.4601070000000  0.5079790000000 1.0
C      1  0.4361970000000  0.5383470000000  0.4943370000000 1.0
C      1  0.5566220000000  0.4831590000000  0.5396800000000 1.0
C      1  0.5693300000000  0.4783620000000  0.4746460000000 1.0
C      1  0.5051940000000  0.5414260000000  0.5546300000000 1.0
C      1  0.5199310000000  0.5122470000000  0.4518900000000 1.0
C      1  0.5031610000000  0.4849130000000  0.5395050000000 1.0
C      1  0.4623930000000  0.5122820000000  0.5697450000000 1.0
C      1  0.4844650000000  0.5398630000000  0.5006450000000 1.0
C      1  0.5380290000000  0.5653240000000  0.4610570000000 1.0
C      1  0.4761620000000  0.4624820000000  0.5624120000000 1.0
C      1  0.5741550000000  0.4611900000000  0.4977730000000 1.0
C      1  0.4668630000000  0.5365320000000  0.4733980000000 1.0
C      1  0.5078110000000  0.5477280000000  0.5223390000000 1.0
C      1  0.5419940000000  0.4585070000000  0.4325580000000 1.0
C      1  0.3911540000000  0.5200820000000  0.5199970000000 1.0
C      1  0.5255530000000  0.4822970000000  0.4144560000000 1.0
C      1  0.4512130000000  0.5550210000000  0.5161180000000 1.0
C      1  0.5532950000000  0.5437410000000  0.5559670000000 1.0
C      1  0.4934520000000  0.4641380000000  0.5143130000000 1.0
C      1  0.4636520000000  0.5232340000000  0.5191390000000 1.0
C      1  0.5751410000000  0.5042540000000  0.5346430000000 1.0
C      1  0.4735900000000  0.5725260000000  0.5207680000000 1.0
C      1  0.4812890000000  0.5102920000000  0.4313400000000 1.0
C      1  0.5548730000000  0.4638810000000  0.5191860000000 1.0
C      1  0.4424440000000  0.5023200000000  0.5097320000000 1.0
C      1  0.5623880000000  0.4791490000000  0.4480930000000 1.0
C      1  0.5228590000000  0.5099220000000  0.4962030000000 1.0
C      1  0.4836850000000  0.5672060000000  0.5473830000000 1.0
C      1  0.4940660000000  0.4904710000000  0.4558620000000 1.0
C      1  0.5317520000000  0.4895750000000  0.5541900000000 1.0
C      1  0.5716460000000  0.5378430000000  0.4870070000000 1.0
C      1  0.4811840000000  0.4873280000000  0.5748780000000 1.0
C      1  0.4362770000000  0.5104270000000  0.5782740000000 1.0
C      1  0.4801640000000  0.5098990000000  0.5419930000000 1.0
C      1  0.4997260000000  0.4448300000000  0.5609310000000 1.0
C      1  0.4154580000000  0.5201680000000  0.5105840000000 1.0
C      1  0.4563550000000  0.4524300000000  0.5420990000000 1.0
C      1  0.4553280000000  0.4891080000000  0.4382330000000 1.0
C      1  0.4987070000000  0.5048980000000  0.5131850000000 1.0
C      1  0.4924320000000  0.5721140000000  0.4947860000000 1.0
C      1  0.5415510000000  0.5364070000000  0.5030970000000 1.0
C      1  0.5342850000000  0.4308470000000  0.4472040000000 1.0
C      1  0.5752820000000  0.5158030000000  0.5090690000000 1.0
C      1  0.4394570000000  0.5226080000000  0.4672630000000 1.0
C      1  0.5009490000000  0.4275110000000  0.5369630000000 1.0
END
