TITL C-2778436-5916-1282 0.00459394114177908 125000 -624.7392443079 0 0 109 (C1) n - 1
REM
REM in /home/nfs/bkarasulu/CARBON/AIRSS/Generating-Clusters/REBO/Only-C1/SD-CG/HFTN-CG
REM
REM
REM
REM
REM
REM ./C.cell (11c1c37f851c82e70ff6c80c92926a4b)
REM
REM compiler GCC version 9.2.1 20190827 (Red Hat 9.2.1-1)
REM options -cpp -mtune=generic -march=x86-64 -g -O0 -fpre-include=/usr/include/finclude/math-vector-fortran.h
REM seed -1990150098 -1131651784 303852342 1799931755 -1668671224 876876993 -1347885355 -1330662963 1873730880 1623033897 -1139618517 -1725457978 -2078686769 590819158 -1327854860 -290754816 -707663474 -290957493 -1728306206 -683727887 -829020737 -400978708 -28143958 1955665187 1956134076 -207887658 -108651231 -1320826978 740580819 1399184132 -2039347922 -710821452 1872052540
REM
CELL 1.54180   50.00000   50.00000   50.00000   90.00000   90.00000   90.00000
LATT -1
SFAC C  
C      1  0.5921520000000  0.5171780000000  0.4680750000000 1.0
C      1  0.4662510000000  0.5713710000000  0.5145400000000 1.0
C      1  0.5129330000000  0.5439430000000  0.5097390000000 1.0
C      1  0.4909200000000  0.5085670000000  0.5167170000000 1.0
C      1  0.5094670000000  0.5498160000000  0.5491150000000 1.0
C      1  0.4550500000000  0.4889770000000  0.4884860000000 1.0
C      1  0.4459660000000  0.5039840000000  0.5735060000000 1.0
C      1  0.5358060000000  0.5428040000000  0.5604370000000 1.0
C      1  0.4622100000000  0.4353320000000  0.4474350000000 1.0
C      1  0.4540720000000  0.4362750000000  0.5196630000000 1.0
C      1  0.4238050000000  0.4903790000000  0.4931050000000 1.0
C      1  0.5220180000000  0.4230190000000  0.4631000000000 1.0
C      1  0.5146320000000  0.4456840000000  0.5184060000000 1.0
C      1  0.5729700000000  0.4577290000000  0.4467020000000 1.0
C      1  0.4381070000000  0.4447240000000  0.4603490000000 1.0
C      1  0.5621480000000  0.5597830000000  0.5097170000000 1.0
C      1  0.5488730000000  0.5425300000000  0.4612140000000 1.0
C      1  0.5108360000000  0.4936200000000  0.4242690000000 1.0
C      1  0.5694390000000  0.4339430000000  0.4625480000000 1.0
C      1  0.4346800000000  0.5380660000000  0.5002130000000 1.0
C      1  0.5831720000000  0.4945300000000  0.5205500000000 1.0
C      1  0.5708950000000  0.4617810000000  0.5581010000000 1.0
C      1  0.4448850000000  0.4463570000000  0.5446140000000 1.0
C      1  0.5154130000000  0.4991660000000  0.5390960000000 1.0
C      1  0.4891940000000  0.5835340000000  0.4678000000000 1.0
C      1  0.5433580000000  0.4304960000000  0.5097790000000 1.0
C      1  0.4653380000000  0.5918840000000  0.4879010000000 1.0
C      1  0.5687820000000  0.4422490000000  0.5234500000000 1.0
C      1  0.5396770000000  0.4682350000000  0.5450830000000 1.0
C      1  0.5386490000000  0.5229040000000  0.4873650000000 1.0
C      1  0.5094040000000  0.5646290000000  0.4309000000000 1.0
C      1  0.4446760000000  0.5548290000000  0.5350160000000 1.0
C      1  0.5644190000000  0.5181710000000  0.5078510000000 1.0
C      1  0.5218590000000  0.4067560000000  0.5127620000000 1.0
C      1  0.5220410000000  0.4739490000000  0.4570960000000 1.0
C      1  0.4649020000000  0.4739790000000  0.4612580000000 1.0
C      1  0.5389780000000  0.5178710000000  0.5728340000000 1.0
C      1  0.4823110000000  0.4793670000000  0.4336360000000 1.0
C      1  0.4827690000000  0.4412690000000  0.5150180000000 1.0
C      1  0.4998970000000  0.4627660000000  0.5439090000000 1.0
C      1  0.4857710000000  0.4486120000000  0.4385150000000 1.0
C      1  0.5219260000000  0.5175890000000  0.4341220000000 1.0
C      1  0.4786090000000  0.4845200000000  0.5356940000000 1.0
C      1  0.5137640000000  0.4487530000000  0.4456780000000 1.0
C      1  0.5398090000000  0.4715560000000  0.4840300000000 1.0
C      1  0.5065450000000  0.4066410000000  0.4886010000000 1.0
C      1  0.4903430000000  0.4988690000000  0.5865060000000 1.0
C      1  0.4628410000000  0.5176680000000  0.4807890000000 1.0
C      1  0.4842430000000  0.4711010000000  0.5734960000000 1.0
C      1  0.4182250000000  0.4652900000000  0.5061130000000 1.0
C      1  0.5564330000000  0.4908540000000  0.5643730000000 1.0
C      1  0.5917410000000  0.4653040000000  0.5349400000000 1.0
C      1  0.5729540000000  0.5331030000000  0.4819700000000 1.0
C      1  0.4665820000000  0.5315730000000  0.5106600000000 1.0
C      1  0.5775230000000  0.4957130000000  0.4556520000000 1.0
C      1  0.5116950000000  0.4971130000000  0.4957290000000 1.0
C      1  0.5282230000000  0.4698590000000  0.5832660000000 1.0
C      1  0.4521870000000  0.4830180000000  0.5201000000000 1.0
C      1  0.4943710000000  0.5975760000000  0.5039470000000 1.0
C      1  0.4421150000000  0.5265850000000  0.4580190000000 1.0
C      1  0.5335980000000  0.4807920000000  0.5163820000000 1.0
C      1  0.4834530000000  0.5159020000000  0.4574620000000 1.0
C      1  0.4336680000000  0.5303690000000  0.5393560000000 1.0
C      1  0.5520620000000  0.5139780000000  0.4424250000000 1.0
C      1  0.5040820000000  0.4974730000000  0.4636700000000 1.0
C      1  0.4309470000000  0.5039270000000  0.5365170000000 1.0
C      1  0.5485490000000  0.4270750000000  0.4782740000000 1.0
C      1  0.5121100000000  0.5410200000000  0.4457170000000 1.0
C      1  0.5295900000000  0.5243090000000  0.5258560000000 1.0
C      1  0.5819840000000  0.4662220000000  0.5028920000000 1.0
C      1  0.4760790000000  0.5220400000000  0.4089400000000 1.0
C      1  0.4410750000000  0.5759790000000  0.4487270000000 1.0
C      1  0.4862680000000  0.5888080000000  0.5358810000000 1.0
C      1  0.4164480000000  0.5178780000000  0.4903350000000 1.0
C      1  0.4084300000000  0.5227190000000  0.4614900000000 1.0
C      1  0.4752310000000  0.5525840000000  0.5816450000000 1.0
C      1  0.4744800000000  0.5324930000000  0.4352780000000 1.0
C      1  0.4514980000000  0.5511530000000  0.4413060000000 1.0
C      1  0.5173290000000  0.4934050000000  0.5715810000000 1.0
C      1  0.4272360000000  0.5645400000000  0.4934080000000 1.0
C      1  0.5572500000000  0.5078800000000  0.5377590000000 1.0
C      1  0.5314370000000  0.4763810000000  0.4167190000000 1.0
C      1  0.4797440000000  0.5373390000000  0.5416450000000 1.0
C      1  0.4317010000000  0.4741050000000  0.4522410000000 1.0
C      1  0.4393060000000  0.5833890000000  0.4760950000000 1.0
C      1  0.5204650000000  0.3902820000000  0.5346810000000 1.0
C      1  0.4749800000000  0.4948020000000  0.4067430000000 1.0
C      1  0.4990060000000  0.5864730000000  0.4434270000000 1.0
C      1  0.4705370000000  0.5092420000000  0.5537040000000 1.0
C      1  0.4682850000000  0.4514020000000  0.4855160000000 1.0
C      1  0.5687910000000  0.4710960000000  0.4773070000000 1.0
C      1  0.4949470000000  0.4356960000000  0.4781010000000 1.0
C      1  0.4699210000000  0.5676110000000  0.5539210000000 1.0
C      1  0.5593140000000  0.4827980000000  0.4299080000000 1.0
C      1  0.4362470000000  0.4426670000000  0.4933870000000 1.0
C      1  0.4253590000000  0.4702570000000  0.5373310000000 1.0
C      1  0.4948500000000  0.4385760000000  0.5744820000000 1.0
C      1  0.4781370000000  0.5258210000000  0.5824180000000 1.0
C      1  0.5074350000000  0.4631020000000  0.4923710000000 1.0
C      1  0.5446930000000  0.5648310000000  0.4868500000000 1.0
C      1  0.4634660000000  0.4461400000000  0.5650880000000 1.0
C      1  0.4882400000000  0.5594490000000  0.4918980000000 1.0
C      1  0.5229130000000  0.4408790000000  0.5568930000000 1.0
C      1  0.5543450000000  0.4325390000000  0.5528110000000 1.0
C      1  0.5118150000000  0.5404970000000  0.4759990000000 1.0
C      1  0.5220590000000  0.5800550000000  0.4952590000000 1.0
C      1  0.5135310000000  0.5729890000000  0.5274590000000 1.0
C      1  0.4247280000000  0.5000680000000  0.4454670000000 1.0
C      1  0.5535250000000  0.5472230000000  0.5338240000000 1.0
END
