TITL C-2778434-4341-1304 -0.00144963281428528 125000 -1111.48267749699 0 0 189 (C1) n - 1
REM
REM in /home/nfs/bkarasulu/CARBON/AIRSS/Generating-Clusters/REBO/Only-C1/SD-CG/HFTN-CG
REM
REM
REM
REM
REM
REM ./C.cell (11c1c37f851c82e70ff6c80c92926a4b)
REM
REM compiler GCC version 9.2.1 20190827 (Red Hat 9.2.1-1)
REM options -cpp -mtune=generic -march=x86-64 -g -O0 -fpre-include=/usr/include/finclude/math-vector-fortran.h
REM seed -524592268 -581990182 -77867484 1700881952 1236571192 2030629670 2004134924 -246117218 -819027754 -526411061 1388693323 -1044799022 -1409370690 118537708 -726120653 -1191523019 1847971370 783392569 386027447 -931215901 1343988264 -2130672437 -1254236102 2120942728 393030318 -1945998044 1703730172 -2019217602 845101699 -1904937336 1101901582 967758650 828130827
REM
CELL 1.54180   50.00000   50.00000   50.00000   90.00000   90.00000   90.00000
LATT -1
SFAC C  
C      1  0.4153230000000  0.5668900000000  0.4987840000000 1.0
C      1  0.5135490000000  0.4174580000000  0.5825050000000 1.0
C      1  0.4299260000000  0.4888910000000  0.5960880000000 1.0
C      1  0.5080070000000  0.5368400000000  0.4334740000000 1.0
C      1  0.4905210000000  0.5060230000000  0.5823710000000 1.0
C      1  0.5578040000000  0.5259910000000  0.4154270000000 1.0
C      1  0.4112830000000  0.4614530000000  0.5495040000000 1.0
C      1  0.5129440000000  0.4908270000000  0.4066750000000 1.0
C      1  0.4517410000000  0.5878270000000  0.4685450000000 1.0
C      1  0.3947250000000  0.5246410000000  0.5150690000000 1.0
C      1  0.4690600000000  0.4904800000000  0.5947870000000 1.0
C      1  0.5289140000000  0.4737640000000  0.5805000000000 1.0
C      1  0.5578870000000  0.4658800000000  0.5698650000000 1.0
C      1  0.5619880000000  0.5022430000000  0.5524570000000 1.0
C      1  0.4516960000000  0.4269310000000  0.4446730000000 1.0
C      1  0.5285660000000  0.4784440000000  0.4785070000000 1.0
C      1  0.5163790000000  0.4122600000000  0.4310550000000 1.0
C      1  0.4576730000000  0.5362850000000  0.6009120000000 1.0
C      1  0.4839120000000  0.5461190000000  0.4927220000000 1.0
C      1  0.4754160000000  0.5832180000000  0.4445710000000 1.0
C      1  0.5396400000000  0.4267990000000  0.5218530000000 1.0
C      1  0.5444400000000  0.4070020000000  0.5435160000000 1.0
C      1  0.5474200000000  0.6010300000000  0.5489760000000 1.0
C      1  0.5253290000000  0.5952570000000  0.5644530000000 1.0
C      1  0.4766040000000  0.5805770000000  0.5583260000000 1.0
C      1  0.5221200000000  0.5460800000000  0.5500140000000 1.0
C      1  0.5237830000000  0.5668200000000  0.5759080000000 1.0
C      1  0.5335450000000  0.5154080000000  0.5535620000000 1.0
C      1  0.5305430000000  0.6249440000000  0.4870460000000 1.0
C      1  0.4075780000000  0.4988810000000  0.4390930000000 1.0
C      1  0.4932590000000  0.5306090000000  0.5595640000000 1.0
C      1  0.4829980000000  0.4379470000000  0.5276710000000 1.0
C      1  0.4143230000000  0.4816190000000  0.5219520000000 1.0
C      1  0.5518840000000  0.5532400000000  0.5348940000000 1.0
C      1  0.4860180000000  0.5424780000000  0.5981190000000 1.0
C      1  0.5711880000000  0.4042370000000  0.5121810000000 1.0
C      1  0.5317590000000  0.5367000000000  0.4096620000000 1.0
C      1  0.5453600000000  0.4828110000000  0.5007850000000 1.0
C      1  0.5188990000000  0.4397350000000  0.4767740000000 1.0
C      1  0.4506490000000  0.4152280000000  0.5220640000000 1.0
C      1  0.3873970000000  0.5056900000000  0.5389300000000 1.0
C      1  0.4869070000000  0.5702290000000  0.4737660000000 1.0
C      1  0.4504730000000  0.4069270000000  0.4922240000000 1.0
C      1  0.4981330000000  0.5105230000000  0.5119150000000 1.0
C      1  0.5654010000000  0.4440070000000  0.4217750000000 1.0
C      1  0.4195480000000  0.5765450000000  0.4664380000000 1.0
C      1  0.4340140000000  0.4804630000000  0.4510690000000 1.0
C      1  0.5656530000000  0.5256270000000  0.4815510000000 1.0
C      1  0.4998870000000  0.6036250000000  0.5546240000000 1.0
C      1  0.4524320000000  0.4477470000000  0.5206140000000 1.0
C      1  0.4362230000000  0.5093870000000  0.4874100000000 1.0
C      1  0.5786000000000  0.5511010000000  0.5528300000000 1.0
C      1  0.6139360000000  0.5414760000000  0.4874980000000 1.0
C      1  0.5098960000000  0.4902620000000  0.5336330000000 1.0
C      1  0.4496430000000  0.5245640000000  0.5322050000000 1.0
C      1  0.6166120000000  0.4900560000000  0.4770620000000 1.0
C      1  0.6014800000000  0.4962410000000  0.5511630000000 1.0
C      1  0.4926080000000  0.5641000000000  0.5811780000000 1.0
C      1  0.4289660000000  0.4496280000000  0.5032250000000 1.0
C      1  0.4817910000000  0.4601540000000  0.5730020000000 1.0
C      1  0.4923390000000  0.3911860000000  0.4545160000000 1.0
C      1  0.4997200000000  0.4978240000000  0.4348470000000 1.0
C      1  0.4759790000000  0.4905290000000  0.5021660000000 1.0
C      1  0.5509200000000  0.5301780000000  0.5104450000000 1.0
C      1  0.5001050000000  0.6197220000000  0.5323490000000 1.0
C      1  0.5626200000000  0.4359050000000  0.5531720000000 1.0
C      1  0.5254090000000  0.5827030000000  0.5070600000000 1.0
C      1  0.4500450000000  0.4644190000000  0.5836030000000 1.0
C      1  0.5465380000000  0.5492550000000  0.5898450000000 1.0
C      1  0.5751470000000  0.4767890000000  0.5151010000000 1.0
C      1  0.4604530000000  0.4674890000000  0.4342220000000 1.0
C      1  0.4777210000000  0.5131320000000  0.5390320000000 1.0
C      1  0.4357380000000  0.4141310000000  0.5524750000000 1.0
C      1  0.4937750000000  0.4221020000000  0.4682700000000 1.0
C      1  0.4395870000000  0.5426520000000  0.4653370000000 1.0
C      1  0.4098670000000  0.5013410000000  0.5803010000000 1.0
C      1  0.3930170000000  0.4429400000000  0.4885060000000 1.0
C      1  0.4862150000000  0.5185920000000  0.4746190000000 1.0
C      1  0.5793540000000  0.4276020000000  0.5246450000000 1.0
C      1  0.4529920000000  0.5623140000000  0.4196250000000 1.0
C      1  0.4829640000000  0.4817070000000  0.5512010000000 1.0
C      1  0.5124630000000  0.5338960000000  0.5005070000000 1.0
C      1  0.5384520000000  0.5789440000000  0.4789070000000 1.0
C      1  0.5065540000000  0.6092070000000  0.5034520000000 1.0
C      1  0.4472800000000  0.4336680000000  0.4715980000000 1.0
C      1  0.4614780000000  0.5474300000000  0.5145160000000 1.0
C      1  0.5100710000000  0.5589670000000  0.5208060000000 1.0
C      1  0.4330840000000  0.4458540000000  0.5627350000000 1.0
C      1  0.4986300000000  0.5405600000000  0.4018730000000 1.0
C      1  0.5828880000000  0.5655660000000  0.4500470000000 1.0
C      1  0.4436440000000  0.5889120000000  0.5561990000000 1.0
C      1  0.4086280000000  0.5531620000000  0.5281610000000 1.0
C      1  0.4837430000000  0.4759740000000  0.4554580000000 1.0
C      1  0.5720870000000  0.5547610000000  0.5821580000000 1.0
C      1  0.5923580000000  0.5725440000000  0.5343580000000 1.0
C      1  0.4515710000000  0.4964400000000  0.3903760000000 1.0
C      1  0.4816510000000  0.5669180000000  0.5279660000000 1.0
C      1  0.5282110000000  0.3798030000000  0.5087050000000 1.0
C      1  0.4785450000000  0.5983270000000  0.4874670000000 1.0
C      1  0.5389150000000  0.5223860000000  0.5966810000000 1.0
C      1  0.5924500000000  0.5838360000000  0.4284030000000 1.0
C      1  0.4870730000000  0.5434190000000  0.4531780000000 1.0
C      1  0.6164720000000  0.5207030000000  0.5027420000000 1.0
C      1  0.3919520000000  0.5065880000000  0.4862380000000 1.0
C      1  0.4191260000000  0.5343210000000  0.4945770000000 1.0
C      1  0.5016390000000  0.5040930000000  0.3857180000000 1.0
C      1  0.5106660000000  0.5224160000000  0.6027830000000 1.0
C      1  0.5178940000000  0.4427150000000  0.4291000000000 1.0
C      1  0.4772390000000  0.4167740000000  0.3944940000000 1.0
C      1  0.5784110000000  0.4640140000000  0.4775710000000 1.0
C      1  0.5075230000000  0.4509400000000  0.5845450000000 1.0
C      1  0.4246840000000  0.5048510000000  0.4097650000000 1.0
C      1  0.4393900000000  0.5465470000000  0.5816880000000 1.0
C      1  0.4198670000000  0.4219480000000  0.4863980000000 1.0
C      1  0.5411100000000  0.4523080000000  0.4107510000000 1.0
C      1  0.5043150000000  0.4921780000000  0.4740420000000 1.0
C      1  0.5325020000000  0.4540110000000  0.5343340000000 1.0
C      1  0.5050290000000  0.4611910000000  0.5233590000000 1.0
C      1  0.5831480000000  0.5389690000000  0.5148290000000 1.0
C      1  0.4880990000000  0.4523300000000  0.4235930000000 1.0
C      1  0.5959700000000  0.5072570000000  0.4556180000000 1.0
C      1  0.3972020000000  0.5185910000000  0.4598000000000 1.0
C      1  0.5785300000000  0.5717220000000  0.5066090000000 1.0
C      1  0.5737630000000  0.4861720000000  0.4407580000000 1.0
C      1  0.4296590000000  0.5391330000000  0.5498290000000 1.0
C      1  0.4580840000000  0.5422430000000  0.4418410000000 1.0
C      1  0.5084210000000  0.5759710000000  0.4407090000000 1.0
C      1  0.5375600000000  0.4255570000000  0.4954260000000 1.0
C      1  0.5366540000000  0.5052220000000  0.5212520000000 1.0
C      1  0.4650680000000  0.4662200000000  0.3824360000000 1.0
C      1  0.5909150000000  0.4873890000000  0.5756260000000 1.0
C      1  0.4874510000000  0.3999150000000  0.4214290000000 1.0
C      1  0.4688530000000  0.4058370000000  0.5485990000000 1.0
C      1  0.4771110000000  0.4450100000000  0.3951440000000 1.0
C      1  0.4565680000000  0.6073420000000  0.5363790000000 1.0
C      1  0.4391710000000  0.4729960000000  0.4118910000000 1.0
C      1  0.4198090000000  0.5775050000000  0.5492560000000 1.0
C      1  0.4015930000000  0.4759620000000  0.4908890000000 1.0
C      1  0.5896360000000  0.4500580000000  0.5058040000000 1.0
C      1  0.5790150000000  0.5335020000000  0.4411950000000 1.0
C      1  0.4328080000000  0.5042270000000  0.5169580000000 1.0
C      1  0.4952750000000  0.3942100000000  0.5419050000000 1.0
C      1  0.5389760000000  0.4800860000000  0.4053100000000 1.0
C      1  0.4992230000000  0.3907000000000  0.5111060000000 1.0
C      1  0.4945380000000  0.4209230000000  0.5022490000000 1.0
C      1  0.5564310000000  0.4742540000000  0.5382450000000 1.0
C      1  0.4673910000000  0.4745230000000  0.5237950000000 1.0
C      1  0.4466290000000  0.5049380000000  0.4345780000000 1.0
C      1  0.5525550000000  0.3885530000000  0.4970180000000 1.0
C      1  0.6126460000000  0.4748790000000  0.5013210000000 1.0
C      1  0.4135410000000  0.5290670000000  0.5768290000000 1.0
C      1  0.5256910000000  0.5136060000000  0.4483240000000 1.0
C      1  0.4097620000000  0.4699880000000  0.4212390000000 1.0
C      1  0.5220440000000  0.5358290000000  0.4708240000000 1.0
C      1  0.5491650000000  0.3915870000000  0.4689470000000 1.0
C      1  0.5884480000000  0.5058300000000  0.5080570000000 1.0
C      1  0.4505440000000  0.5092420000000  0.6090850000000 1.0
C      1  0.5856240000000  0.5220310000000  0.5442420000000 1.0
C      1  0.4772220000000  0.3898410000000  0.4850120000000 1.0
C      1  0.4005640000000  0.4500670000000  0.5209260000000 1.0
C      1  0.5265040000000  0.3948680000000  0.4534800000000 1.0
C      1  0.5188920000000  0.4003310000000  0.5574540000000 1.0
C      1  0.4744350000000  0.5180250000000  0.3938210000000 1.0
C      1  0.5600650000000  0.4980640000000  0.5855870000000 1.0
C      1  0.5773300000000  0.4942260000000  0.4796970000000 1.0
C      1  0.4085520000000  0.5454040000000  0.4578800000000 1.0
C      1  0.5341980000000  0.4558840000000  0.4551680000000 1.0
C      1  0.4328240000000  0.4704700000000  0.4789600000000 1.0
C      1  0.4721950000000  0.5950970000000  0.5179710000000 1.0
C      1  0.5657170000000  0.4569490000000  0.4505930000000 1.0
C      1  0.4930780000000  0.4537930000000  0.4925900000000 1.0
C      1  0.4863530000000  0.5667390000000  0.4165360000000 1.0
C      1  0.5511130000000  0.6085850000000  0.4762590000000 1.0
C      1  0.6157500000000  0.4853440000000  0.5288140000000 1.0
C      1  0.5710910000000  0.5805320000000  0.4773200000000 1.0
C      1  0.4660330000000  0.4387720000000  0.5570650000000 1.0
C      1  0.5187780000000  0.4976920000000  0.5725130000000 1.0
C      1  0.5299150000000  0.4384280000000  0.5624880000000 1.0
C      1  0.5237600000000  0.5625510000000  0.4604030000000 1.0
C      1  0.4607560000000  0.5005440000000  0.4792560000000 1.0
C      1  0.3982950000000  0.4890470000000  0.5578180000000 1.0
C      1  0.4652000000000  0.4598690000000  0.4788490000000 1.0
C      1  0.4797730000000  0.4259290000000  0.4395340000000 1.0
C      1  0.4473610000000  0.5621170000000  0.4905640000000 1.0
C      1  0.5880350000000  0.5463940000000  0.4758990000000 1.0
C      1  0.5594120000000  0.4971470000000  0.4149810000000 1.0
C      1  0.5516250000000  0.5830310000000  0.5241870000000 1.0
C      1  0.4744060000000  0.5161780000000  0.4269140000000 1.0
C      1  0.5548360000000  0.5118000000000  0.4525010000000 1.0
END
