TITL C-2778434-4341-1471 0.0911504160369485 125000 -846.605147616167 0 0 147 (C1) n - 1
REM
REM in /home/nfs/bkarasulu/CARBON/AIRSS/Generating-Clusters/REBO/Only-C1/SD-CG/HFTN-CG
REM
REM
REM
REM
REM
REM ./C.cell (11c1c37f851c82e70ff6c80c92926a4b)
REM
REM compiler GCC version 9.2.1 20190827 (Red Hat 9.2.1-1)
REM options -cpp -mtune=generic -march=x86-64 -g -O0 -fpre-include=/usr/include/finclude/math-vector-fortran.h
REM seed 1674908259 -1350277176 -1494924755 -429808 1905811009 2114515159 1898477515 -728461157 56009370 1211905173 -575666859 -2009305881 1109298227 -1730026455 -1496216992 1010462160 952417236 -465994338 1397755488 -500085231 -116225975 -1063814768 178892006 1879218117 -530151889 970825930 2034886490 1020346769 -1528781411 -1634626599 -936823856 -1311557372 -1487022413
REM
CELL 1.54180   50.00000   50.00000   50.00000   90.00000   90.00000   90.00000
LATT -1
SFAC C  
C      1  0.4147280000000  0.4714710000000  0.4768790000000 1.0
C      1  0.4947800000000  0.4066990000000  0.4344590000000 1.0
C      1  0.4666320000000  0.4112350000000  0.5288380000000 1.0
C      1  0.4923130000000  0.5481590000000  0.4742080000000 1.0
C      1  0.5172700000000  0.4035970000000  0.4814180000000 1.0
C      1  0.4752100000000  0.6084380000000  0.4954480000000 1.0
C      1  0.4453740000000  0.5691140000000  0.4923360000000 1.0
C      1  0.5477790000000  0.4784500000000  0.5334500000000 1.0
C      1  0.4733000000000  0.5550640000000  0.5002530000000 1.0
C      1  0.5565830000000  0.5720360000000  0.4978280000000 1.0
C      1  0.5538610000000  0.4467270000000  0.5675320000000 1.0
C      1  0.5195010000000  0.5911170000000  0.4690060000000 1.0
C      1  0.4541420000000  0.5367750000000  0.4708610000000 1.0
C      1  0.4540590000000  0.5293300000000  0.5743840000000 1.0
C      1  0.5083670000000  0.6074590000000  0.5364520000000 1.0
C      1  0.4664310000000  0.4905050000000  0.4618170000000 1.0
C      1  0.5374430000000  0.5199410000000  0.5758700000000 1.0
C      1  0.4324790000000  0.4700460000000  0.4476960000000 1.0
C      1  0.4794080000000  0.6031710000000  0.5440360000000 1.0
C      1  0.4436560000000  0.4988960000000  0.4374640000000 1.0
C      1  0.5060750000000  0.4992820000000  0.5038610000000 1.0
C      1  0.4308280000000  0.5458240000000  0.5553600000000 1.0
C      1  0.5175740000000  0.5541320000000  0.3805460000000 1.0
C      1  0.4871910000000  0.4466420000000  0.5720410000000 1.0
C      1  0.5212030000000  0.5378030000000  0.4609000000000 1.0
C      1  0.5276870000000  0.5661850000000  0.4489840000000 1.0
C      1  0.5928260000000  0.4806960000000  0.4736590000000 1.0
C      1  0.4269180000000  0.5135990000000  0.5114930000000 1.0
C      1  0.5537290000000  0.5692520000000  0.5318080000000 1.0
C      1  0.5772460000000  0.5191890000000  0.5755700000000 1.0
C      1  0.4411830000000  0.4962100000000  0.6113510000000 1.0
C      1  0.4959440000000  0.5147980000000  0.4404280000000 1.0
C      1  0.5022180000000  0.5754330000000  0.5266200000000 1.0
C      1  0.5396540000000  0.4246660000000  0.4722850000000 1.0
C      1  0.4523670000000  0.4980370000000  0.5825680000000 1.0
C      1  0.5233420000000  0.4070540000000  0.5147150000000 1.0
C      1  0.4465760000000  0.5551420000000  0.5297490000000 1.0
C      1  0.4962410000000  0.4500310000000  0.4853410000000 1.0
C      1  0.5504210000000  0.4229170000000  0.5210190000000 1.0
C      1  0.5680190000000  0.4216420000000  0.4769120000000 1.0
C      1  0.5027170000000  0.4588430000000  0.5372960000000 1.0
C      1  0.4021810000000  0.4957880000000  0.4960230000000 1.0
C      1  0.5201750000000  0.5332160000000  0.4270970000000 1.0
C      1  0.4714300000000  0.4214430000000  0.5554750000000 1.0
C      1  0.4854190000000  0.4066620000000  0.4804380000000 1.0
C      1  0.4519210000000  0.4238460000000  0.4437560000000 1.0
C      1  0.5123130000000  0.5475970000000  0.5000740000000 1.0
C      1  0.6036510000000  0.5123000000000  0.5071330000000 1.0
C      1  0.4412470000000  0.5851530000000  0.5188630000000 1.0
C      1  0.5670220000000  0.4679620000000  0.5824360000000 1.0
C      1  0.4781960000000  0.5545600000000  0.5339950000000 1.0
C      1  0.4347690000000  0.4821410000000  0.5626090000000 1.0
C      1  0.5223410000000  0.3794600000000  0.5281200000000 1.0
C      1  0.4065510000000  0.4656210000000  0.5095440000000 1.0
C      1  0.5266820000000  0.4679100000000  0.4379830000000 1.0
C      1  0.5570200000000  0.4667640000000  0.4839820000000 1.0
C      1  0.5399000000000  0.4164100000000  0.4334810000000 1.0
C      1  0.4409750000000  0.4282320000000  0.4836320000000 1.0
C      1  0.5344780000000  0.5039960000000  0.5224960000000 1.0
C      1  0.5177870000000  0.4959250000000  0.5733550000000 1.0
C      1  0.5854960000000  0.5359230000000  0.4677260000000 1.0
C      1  0.5302300000000  0.4938390000000  0.4563300000000 1.0
C      1  0.4964470000000  0.4326590000000  0.4161360000000 1.0
C      1  0.5235130000000  0.5561110000000  0.5374010000000 1.0
C      1  0.5280920000000  0.4394200000000  0.4233530000000 1.0
C      1  0.4027920000000  0.5235600000000  0.4812170000000 1.0
C      1  0.4768090000000  0.5400580000000  0.4478730000000 1.0
C      1  0.5515230000000  0.5375780000000  0.4349340000000 1.0
C      1  0.5055380000000  0.4289020000000  0.5307330000000 1.0
C      1  0.5035390000000  0.5803030000000  0.4946780000000 1.0
C      1  0.4531670000000  0.4752700000000  0.4961590000000 1.0
C      1  0.5405040000000  0.5188250000000  0.4775710000000 1.0
C      1  0.5761620000000  0.4865660000000  0.5408870000000 1.0
C      1  0.5828460000000  0.4481830000000  0.4749200000000 1.0
C      1  0.4892800000000  0.5102320000000  0.5735710000000 1.0
C      1  0.5713760000000  0.4096590000000  0.5017170000000 1.0
C      1  0.4381940000000  0.5490330000000  0.4435930000000 1.0
C      1  0.5115670000000  0.4696660000000  0.5919480000000 1.0
C      1  0.4799110000000  0.5867090000000  0.4704980000000 1.0
C      1  0.4782700000000  0.5829790000000  0.5637740000000 1.0
C      1  0.4745140000000  0.4690430000000  0.5415050000000 1.0
C      1  0.4539220000000  0.5637500000000  0.5717190000000 1.0
C      1  0.4818870000000  0.5239440000000  0.5454990000000 1.0
C      1  0.5570330000000  0.5390900000000  0.5581440000000 1.0
C      1  0.5662730000000  0.4388810000000  0.5433960000000 1.0
C      1  0.5395230000000  0.5679900000000  0.5631950000000 1.0
C      1  0.5563270000000  0.5297840000000  0.5276390000000 1.0
C      1  0.5888000000000  0.4498590000000  0.5313950000000 1.0
C      1  0.4583470000000  0.4525510000000  0.5192330000000 1.0
C      1  0.4964030000000  0.4586740000000  0.4379150000000 1.0
C      1  0.5251500000000  0.5304490000000  0.6025990000000 1.0
C      1  0.4354730000000  0.4349620000000  0.5364610000000 1.0
C      1  0.4805310000000  0.4789690000000  0.5812090000000 1.0
C      1  0.4972900000000  0.5281960000000  0.6006200000000 1.0
C      1  0.4606880000000  0.5451820000000  0.4197680000000 1.0
C      1  0.4982000000000  0.5818310000000  0.4434490000000 1.0
C      1  0.4819320000000  0.4819410000000  0.5045850000000 1.0
C      1  0.4485020000000  0.4480020000000  0.4310730000000 1.0
C      1  0.4736980000000  0.4085130000000  0.4528400000000 1.0
C      1  0.5258290000000  0.5563550000000  0.3557720000000 1.0
C      1  0.5216880000000  0.5249970000000  0.5463100000000 1.0
C      1  0.4738680000000  0.4581250000000  0.4138000000000 1.0
C      1  0.5949630000000  0.4887190000000  0.5199050000000 1.0
C      1  0.5027060000000  0.5040670000000  0.4715050000000 1.0
C      1  0.4813080000000  0.4627470000000  0.4631960000000 1.0
C      1  0.4620800000000  0.6045280000000  0.5210060000000 1.0
C      1  0.5777120000000  0.4912300000000  0.5690760000000 1.0
C      1  0.5105150000000  0.4945830000000  0.4012480000000 1.0
C      1  0.5661870000000  0.5527750000000  0.4543580000000 1.0
C      1  0.4365320000000  0.4977370000000  0.4762300000000 1.0
C      1  0.4302430000000  0.4979340000000  0.5364880000000 1.0
C      1  0.5062910000000  0.5688740000000  0.5710350000000 1.0
C      1  0.5515450000000  0.5792170000000  0.4688360000000 1.0
C      1  0.4728330000000  0.5148670000000  0.4843200000000 1.0
C      1  0.4838250000000  0.4888950000000  0.4061860000000 1.0
C      1  0.4542680000000  0.5283150000000  0.5096490000000 1.0
C      1  0.5630720000000  0.4973050000000  0.4785160000000 1.0
C      1  0.5257710000000  0.4720600000000  0.5547210000000 1.0
C      1  0.4503510000000  0.4549900000000  0.4703860000000 1.0
C      1  0.4676450000000  0.5117870000000  0.4213730000000 1.0
C      1  0.5554840000000  0.5064200000000  0.4371520000000 1.0
C      1  0.4047610000000  0.5376410000000  0.5128950000000 1.0
C      1  0.4816360000000  0.5482160000000  0.5824810000000 1.0
C      1  0.5212090000000  0.4438420000000  0.5732750000000 1.0
C      1  0.5284270000000  0.4523440000000  0.4778610000000 1.0
C      1  0.4773000000000  0.4304830000000  0.5024550000000 1.0
C      1  0.4228210000000  0.5202170000000  0.4538850000000 1.0
C      1  0.5471190000000  0.4557600000000  0.5127590000000 1.0
C      1  0.5327970000000  0.4911840000000  0.4168770000000 1.0
C      1  0.4502480000000  0.5752290000000  0.4616330000000 1.0
C      1  0.5774110000000  0.5518950000000  0.5139610000000 1.0
C      1  0.5418870000000  0.5415280000000  0.4994570000000 1.0
C      1  0.4865630000000  0.5659110000000  0.4190530000000 1.0
C      1  0.5154680000000  0.4606670000000  0.5087700000000 1.0
C      1  0.5842040000000  0.5064420000000  0.4543230000000 1.0
C      1  0.4050400000000  0.5457060000000  0.5405400000000 1.0
C      1  0.5200960000000  0.4005740000000  0.4475510000000 1.0
C      1  0.5089050000000  0.5517980000000  0.4065610000000 1.0
C      1  0.5022330000000  0.5267280000000  0.5192010000000 1.0
C      1  0.4550100000000  0.4499480000000  0.5598730000000 1.0
C      1  0.4693150000000  0.4967660000000  0.5418130000000 1.0
C      1  0.4397230000000  0.4187190000000  0.5089800000000 1.0
C      1  0.4174340000000  0.4693400000000  0.5358370000000 1.0
C      1  0.5939540000000  0.5358860000000  0.4948930000000 1.0
C      1  0.4711570000000  0.3910220000000  0.5040200000000 1.0
C      1  0.5975310000000  0.4624920000000  0.5021100000000 1.0
C      1  0.4259470000000  0.5454570000000  0.4873710000000 1.0
END
