TITL C-2778423-5760-1079 -0.00556346787643374 125000 -923.486764491663 0 0 160 (C1) n - 1
REM
REM in /home/nfs/bkarasulu/CARBON/AIRSS/Generating-Clusters/REBO/Only-C1/SD-CG/HFTN-CG
REM
REM
REM
REM
REM
REM ./C.cell (11c1c37f851c82e70ff6c80c92926a4b)
REM
REM compiler GCC version 9.2.1 20190827 (Red Hat 9.2.1-1)
REM options -cpp -mtune=generic -march=x86-64 -g -O0 -fpre-include=/usr/include/finclude/math-vector-fortran.h
REM seed -1630339981 -1153470831 433850724 -706963667 -742032375 -1010997451 -543875270 2027980706 205212182 1806506458 962995540 -1620832509 1944955194 1950678910 986604112 456776568 -790747791 504557265 -1308200190 -497468402 648551505 804420151 1111274680 1530548402 1032484365 -1400941585 -682863798 262123662 -814153297 -525505311 -199579767 -1344892121 1556950118
REM
CELL 1.54180   50.00000   50.00000   50.00000   90.00000   90.00000   90.00000
LATT -1
SFAC C  
C      1  0.5297090000000  0.5376660000000  0.4872140000000 1.0
C      1  0.5225620000000  0.4990650000000  0.5864810000000 1.0
C      1  0.5140380000000  0.4702740000000  0.5755470000000 1.0
C      1  0.5755160000000  0.4801810000000  0.5467160000000 1.0
C      1  0.4416560000000  0.4132280000000  0.4816490000000 1.0
C      1  0.5625810000000  0.5030390000000  0.4666300000000 1.0
C      1  0.5601850000000  0.5141990000000  0.4969510000000 1.0
C      1  0.4682460000000  0.5531860000000  0.4366350000000 1.0
C      1  0.4334410000000  0.4371830000000  0.4623940000000 1.0
C      1  0.5003310000000  0.4535430000000  0.4964150000000 1.0
C      1  0.5373870000000  0.5841250000000  0.4645360000000 1.0
C      1  0.5506190000000  0.4932250000000  0.5749680000000 1.0
C      1  0.5439800000000  0.4886580000000  0.5433270000000 1.0
C      1  0.4223140000000  0.5041900000000  0.5249380000000 1.0
C      1  0.5740370000000  0.5881200000000  0.5048900000000 1.0
C      1  0.4786530000000  0.5868900000000  0.4818300000000 1.0
C      1  0.4928740000000  0.5126750000000  0.4290260000000 1.0
C      1  0.5041320000000  0.4021700000000  0.4872250000000 1.0
C      1  0.5301800000000  0.5835910000000  0.5465850000000 1.0
C      1  0.4833220000000  0.5071350000000  0.5904000000000 1.0
C      1  0.4168160000000  0.5407210000000  0.4347710000000 1.0
C      1  0.5862730000000  0.5307920000000  0.4822700000000 1.0
C      1  0.5016020000000  0.4468270000000  0.4678950000000 1.0
C      1  0.4882450000000  0.5554090000000  0.4125280000000 1.0
C      1  0.4395250000000  0.4156670000000  0.5138710000000 1.0
C      1  0.5162100000000  0.4039970000000  0.5187180000000 1.0
C      1  0.4409700000000  0.5452660000000  0.4543010000000 1.0
C      1  0.5933610000000  0.5321750000000  0.4556390000000 1.0
C      1  0.4942350000000  0.5585450000000  0.4804870000000 1.0
C      1  0.4180420000000  0.4586820000000  0.4839500000000 1.0
C      1  0.4845700000000  0.5362380000000  0.5242000000000 1.0
C      1  0.4216860000000  0.5713390000000  0.4310970000000 1.0
C      1  0.5783290000000  0.5489520000000  0.5029900000000 1.0
C      1  0.5482480000000  0.5563770000000  0.5077550000000 1.0
C      1  0.5801350000000  0.4395330000000  0.4998690000000 1.0
C      1  0.5158810000000  0.4265610000000  0.5723950000000 1.0
C      1  0.5295010000000  0.4155360000000  0.4699260000000 1.0
C      1  0.3842320000000  0.5112440000000  0.5601220000000 1.0
C      1  0.5334100000000  0.5508990000000  0.5895100000000 1.0
C      1  0.5400770000000  0.4244770000000  0.5585430000000 1.0
C      1  0.5933690000000  0.4887830000000  0.4642330000000 1.0
C      1  0.4417740000000  0.5511440000000  0.5765200000000 1.0
C      1  0.4323080000000  0.5204340000000  0.5725140000000 1.0
C      1  0.4384740000000  0.4694600000000  0.5558650000000 1.0
C      1  0.5577910000000  0.5724280000000  0.5472430000000 1.0
C      1  0.4015450000000  0.5073240000000  0.4755170000000 1.0
C      1  0.5816340000000  0.5760010000000  0.5317590000000 1.0
C      1  0.4516380000000  0.4659240000000  0.5843630000000 1.0
C      1  0.5048630000000  0.5192770000000  0.5677200000000 1.0
C      1  0.5585380000000  0.5401710000000  0.5905790000000 1.0
C      1  0.5789890000000  0.4794370000000  0.4998340000000 1.0
C      1  0.3964810000000  0.5517640000000  0.4983450000000 1.0
C      1  0.4785440000000  0.5358890000000  0.4641220000000 1.0
C      1  0.5683160000000  0.4535700000000  0.5283850000000 1.0
C      1  0.4974260000000  0.4850170000000  0.5021750000000 1.0
C      1  0.4772840000000  0.4897470000000  0.4093060000000 1.0
C      1  0.5551160000000  0.4626660000000  0.4201860000000 1.0
C      1  0.5984770000000  0.5184850000000  0.5338030000000 1.0
C      1  0.4459890000000  0.4460640000000  0.5245920000000 1.0
C      1  0.4996060000000  0.5777910000000  0.4348780000000 1.0
C      1  0.4651130000000  0.4897240000000  0.5058120000000 1.0
C      1  0.5587780000000  0.4461560000000  0.5592600000000 1.0
C      1  0.4628940000000  0.5788200000000  0.5341760000000 1.0
C      1  0.5062110000000  0.5503360000000  0.5082770000000 1.0
C      1  0.4422070000000  0.4799850000000  0.5249450000000 1.0
C      1  0.4433650000000  0.5420340000000  0.4819620000000 1.0
C      1  0.4536090000000  0.4992100000000  0.5776240000000 1.0
C      1  0.4550930000000  0.4214830000000  0.5442350000000 1.0
C      1  0.4899730000000  0.5164990000000  0.4898860000000 1.0
C      1  0.4347410000000  0.5325990000000  0.5304180000000 1.0
C      1  0.5370860000000  0.4877400000000  0.4228960000000 1.0
C      1  0.5067810000000  0.4984100000000  0.4661000000000 1.0
C      1  0.4895390000000  0.4670700000000  0.4486560000000 1.0
C      1  0.5747740000000  0.4910880000000  0.4358580000000 1.0
C      1  0.5940650000000  0.4991420000000  0.5118130000000 1.0
C      1  0.4882040000000  0.4599860000000  0.4093330000000 1.0
C      1  0.5104730000000  0.4485640000000  0.4200690000000 1.0
C      1  0.5911140000000  0.4583210000000  0.4770870000000 1.0
C      1  0.4836980000000  0.4301290000000  0.5608130000000 1.0
C      1  0.4883700000000  0.4597750000000  0.5469780000000 1.0
C      1  0.4630960000000  0.5142230000000  0.4428880000000 1.0
C      1  0.5399990000000  0.5108400000000  0.4476400000000 1.0
C      1  0.5219340000000  0.5564060000000  0.4192120000000 1.0
C      1  0.4609320000000  0.4217350000000  0.4489010000000 1.0
C      1  0.3875280000000  0.5318870000000  0.4860370000000 1.0
C      1  0.5367760000000  0.4548060000000  0.5168600000000 1.0
C      1  0.5647940000000  0.4148480000000  0.5178330000000 1.0
C      1  0.5387900000000  0.5454610000000  0.5384200000000 1.0
C      1  0.3970600000000  0.4757120000000  0.4689560000000 1.0
C      1  0.4344490000000  0.5119130000000  0.4314700000000 1.0
C      1  0.5001860000000  0.4459310000000  0.5935880000000 1.0
C      1  0.5158300000000  0.5309920000000  0.4414290000000 1.0
C      1  0.4920210000000  0.4081510000000  0.5370050000000 1.0
C      1  0.4848440000000  0.4275260000000  0.5111790000000 1.0
C      1  0.4462660000000  0.4749600000000  0.4738860000000 1.0
C      1  0.4911230000000  0.4178300000000  0.4597490000000 1.0
C      1  0.4677700000000  0.4391670000000  0.5892200000000 1.0
C      1  0.5650600000000  0.5745990000000  0.4753940000000 1.0
C      1  0.4922410000000  0.5085670000000  0.5424160000000 1.0
C      1  0.5527290000000  0.5476730000000  0.4642750000000 1.0
C      1  0.5948030000000  0.5468420000000  0.5280280000000 1.0
C      1  0.4277920000000  0.4576120000000  0.4351520000000 1.0
C      1  0.5140810000000  0.5889360000000  0.5675560000000 1.0
C      1  0.4643490000000  0.3950550000000  0.5246380000000 1.0
C      1  0.5467720000000  0.4766460000000  0.4949260000000 1.0
C      1  0.5270270000000  0.6079720000000  0.4807310000000 1.0
C      1  0.4112750000000  0.5116660000000  0.5547600000000 1.0
C      1  0.5873130000000  0.5050460000000  0.5569910000000 1.0
C      1  0.5517090000000  0.5443440000000  0.4304140000000 1.0
C      1  0.4112990000000  0.4592630000000  0.5391950000000 1.0
C      1  0.5157330000000  0.5610120000000  0.4579950000000 1.0
C      1  0.5688420000000  0.4578700000000  0.6062870000000 1.0
C      1  0.4014350000000  0.4730200000000  0.4388210000000 1.0
C      1  0.5169010000000  0.5195350000000  0.6076830000000 1.0
C      1  0.4559490000000  0.5162940000000  0.4906020000000 1.0
C      1  0.4835190000000  0.4756570000000  0.5898440000000 1.0
C      1  0.5758990000000  0.4581900000000  0.4469250000000 1.0
C      1  0.5409560000000  0.4623830000000  0.4674480000000 1.0
C      1  0.4726150000000  0.5971300000000  0.5138680000000 1.0
C      1  0.5188100000000  0.4243980000000  0.4402560000000 1.0
C      1  0.4569930000000  0.5538880000000  0.5175710000000 1.0
C      1  0.5414560000000  0.5895400000000  0.5038030000000 1.0
C      1  0.5031690000000  0.6003850000000  0.5006940000000 1.0
C      1  0.5007000000000  0.5389510000000  0.3888960000000 1.0
C      1  0.4592960000000  0.4220790000000  0.4212890000000 1.0
C      1  0.5162250000000  0.5769250000000  0.5200760000000 1.0
C      1  0.5202280000000  0.4764660000000  0.4477750000000 1.0
C      1  0.5181970000000  0.5460000000000  0.5617630000000 1.0
C      1  0.5395550000000  0.5185190000000  0.4117530000000 1.0
C      1  0.5428670000000  0.4091320000000  0.5346760000000 1.0
C      1  0.5289200000000  0.5050290000000  0.4880610000000 1.0
C      1  0.4732820000000  0.4928110000000  0.4634010000000 1.0
C      1  0.4714720000000  0.5361450000000  0.5815870000000 1.0
C      1  0.4710880000000  0.4852500000000  0.5518430000000 1.0
C      1  0.5218840000000  0.5258180000000  0.3900010000000 1.0
C      1  0.4061170000000  0.5042060000000  0.4431810000000 1.0
C      1  0.4477200000000  0.4832580000000  0.4227930000000 1.0
C      1  0.4277250000000  0.4972280000000  0.4920320000000 1.0
C      1  0.5611320000000  0.4646100000000  0.5806150000000 1.0
C      1  0.4750780000000  0.4999770000000  0.3828410000000 1.0
C      1  0.4089150000000  0.4565660000000  0.5142640000000 1.0
C      1  0.4647830000000  0.5708530000000  0.5622940000000 1.0
C      1  0.4625560000000  0.5328760000000  0.5499800000000 1.0
C      1  0.4708020000000  0.4036440000000  0.4922860000000 1.0
C      1  0.5423230000000  0.5158210000000  0.5241700000000 1.0
C      1  0.4483100000000  0.5804740000000  0.4374080000000 1.0
C      1  0.5138700000000  0.5000340000000  0.5227800000000 1.0
C      1  0.4589350000000  0.4614530000000  0.4447630000000 1.0
C      1  0.5306910000000  0.4282440000000  0.5017890000000 1.0
C      1  0.5471140000000  0.4401670000000  0.4439680000000 1.0
C      1  0.4257250000000  0.5532300000000  0.5054590000000 1.0
C      1  0.5704360000000  0.5173930000000  0.5786550000000 1.0
C      1  0.4749760000000  0.5899390000000  0.4504740000000 1.0
C      1  0.4698770000000  0.4570970000000  0.5080720000000 1.0
C      1  0.4923980000000  0.5691580000000  0.5740310000000 1.0
C      1  0.5767240000000  0.5236950000000  0.4354760000000 1.0
C      1  0.5198920000000  0.4659130000000  0.5423200000000 1.0
C      1  0.5001750000000  0.5460360000000  0.5970770000000 1.0
C      1  0.4679760000000  0.4408410000000  0.4033280000000 1.0
C      1  0.5585480000000  0.4182280000000  0.4849460000000 1.0
END
