TITL C-2778429-3646-474 0.00813944471864698 125000 -1170.34064803941 0 0 197 (C1) n - 1
REM
REM in /home/nfs/bkarasulu/CARBON/AIRSS/Generating-Clusters/REBO/Only-C1/SD-CG/HFTN-CG
REM
REM
REM
REM
REM
REM ./C.cell (11c1c37f851c82e70ff6c80c92926a4b)
REM
REM compiler GCC version 9.2.1 20190827 (Red Hat 9.2.1-1)
REM options -cpp -mtune=generic -march=x86-64 -g -O0 -fpre-include=/usr/include/finclude/math-vector-fortran.h
REM seed -1847970845 1533557599 -1442883970 -625537079 -78605613 343214853 1275559827 -939773294 -240696386 -1223990973 -1390612568 1399584379 -883413863 -907902329 621456973 -590282059 1158213236 -1483372911 -137909557 -1157429181 -1726983923 1949252394 -1548905640 -1313965111 -896030242 2095704298 -828296608 1687273792 1007965642 -1728018321 -658641673 -1052021018 93529098
REM
CELL 1.54180   50.00000   50.00000   50.00000   90.00000   90.00000   90.00000
LATT -1
SFAC C  
C      1  0.4104240000000  0.4425970000000  0.4467300000000 1.0
C      1  0.5733880000000  0.5702080000000  0.5507150000000 1.0
C      1  0.4810410000000  0.4859230000000  0.3969680000000 1.0
C      1  0.3994600000000  0.5555140000000  0.5041800000000 1.0
C      1  0.4459980000000  0.5864100000000  0.5563790000000 1.0
C      1  0.5487320000000  0.5090040000000  0.5495060000000 1.0
C      1  0.5904800000000  0.4078220000000  0.4660110000000 1.0
C      1  0.5745970000000  0.5020510000000  0.5361920000000 1.0
C      1  0.4849800000000  0.5257650000000  0.5971680000000 1.0
C      1  0.5001490000000  0.4232680000000  0.5457800000000 1.0
C      1  0.5730490000000  0.4767340000000  0.4628370000000 1.0
C      1  0.4749370000000  0.5855870000000  0.5468630000000 1.0
C      1  0.5387370000000  0.5640950000000  0.4314360000000 1.0
C      1  0.5451250000000  0.4658740000000  0.4534110000000 1.0
C      1  0.4668300000000  0.5543420000000  0.4183170000000 1.0
C      1  0.4197870000000  0.4677820000000  0.5567590000000 1.0
C      1  0.4331330000000  0.4298070000000  0.5815750000000 1.0
C      1  0.5040600000000  0.5462810000000  0.5114810000000 1.0
C      1  0.3928290000000  0.4973560000000  0.5306850000000 1.0
C      1  0.5359160000000  0.4429590000000  0.5134490000000 1.0
C      1  0.4640860000000  0.4392600000000  0.4257510000000 1.0
C      1  0.4993290000000  0.5013750000000  0.5512600000000 1.0
C      1  0.4985190000000  0.5858240000000  0.4387430000000 1.0
C      1  0.5307430000000  0.5082310000000  0.4870340000000 1.0
C      1  0.4716780000000  0.6159090000000  0.4650790000000 1.0
C      1  0.5027180000000  0.5856300000000  0.4696420000000 1.0
C      1  0.4726350000000  0.5408810000000  0.4466860000000 1.0
C      1  0.4967460000000  0.5905900000000  0.5710940000000 1.0
C      1  0.5305080000000  0.5776640000000  0.4802850000000 1.0
C      1  0.4986060000000  0.6157010000000  0.4791970000000 1.0
C      1  0.5116370000000  0.5661010000000  0.4241430000000 1.0
C      1  0.5251180000000  0.5217370000000  0.4037940000000 1.0
C      1  0.5794470000000  0.4732380000000  0.5777150000000 1.0
C      1  0.4423970000000  0.4053430000000  0.4896390000000 1.0
C      1  0.4168880000000  0.5336930000000  0.5417640000000 1.0
C      1  0.4283580000000  0.4766610000000  0.4567440000000 1.0
C      1  0.4295690000000  0.5262750000000  0.5108650000000 1.0
C      1  0.5008080000000  0.4878220000000  0.4701920000000 1.0
C      1  0.4268150000000  0.5935580000000  0.4758530000000 1.0
C      1  0.4353820000000  0.5419740000000  0.5906610000000 1.0
C      1  0.4736500000000  0.6010320000000  0.4389170000000 1.0
C      1  0.4816780000000  0.4981480000000  0.5155640000000 1.0
C      1  0.4180860000000  0.5759390000000  0.4996200000000 1.0
C      1  0.4099980000000  0.4423620000000  0.5636270000000 1.0
C      1  0.5316300000000  0.3931550000000  0.4744290000000 1.0
C      1  0.4189530000000  0.5137310000000  0.5676540000000 1.0
C      1  0.4995540000000  0.5360090000000  0.4520790000000 1.0
C      1  0.5357480000000  0.5604880000000  0.5940870000000 1.0
C      1  0.5028500000000  0.4750450000000  0.4213350000000 1.0
C      1  0.4529120000000  0.5828680000000  0.4307110000000 1.0
C      1  0.4470360000000  0.4823960000000  0.4797390000000 1.0
C      1  0.4848540000000  0.5719900000000  0.5172410000000 1.0
C      1  0.5089470000000  0.4291020000000  0.3942340000000 1.0
C      1  0.5772960000000  0.5268920000000  0.4690500000000 1.0
C      1  0.4969950000000  0.5614580000000  0.5845660000000 1.0
C      1  0.5260000000000  0.5642450000000  0.5415950000000 1.0
C      1  0.5933190000000  0.4418370000000  0.5086100000000 1.0
C      1  0.4366310000000  0.5774120000000  0.4537440000000 1.0
C      1  0.5319660000000  0.4630350000000  0.4221880000000 1.0
C      1  0.3980750000000  0.4647140000000  0.4667540000000 1.0
C      1  0.4936380000000  0.3926260000000  0.5325570000000 1.0
C      1  0.5460020000000  0.5370680000000  0.4464560000000 1.0
C      1  0.4812850000000  0.4956800000000  0.6064470000000 1.0
C      1  0.5090370000000  0.4290100000000  0.4471430000000 1.0
C      1  0.4539250000000  0.5069180000000  0.4370580000000 1.0
C      1  0.4566780000000  0.4348920000000  0.5414320000000 1.0
C      1  0.5894680000000  0.5453930000000  0.5539240000000 1.0
C      1  0.4816800000000  0.5684160000000  0.4836610000000 1.0
C      1  0.4507310000000  0.4584140000000  0.5889600000000 1.0
C      1  0.5684910000000  0.4478530000000  0.4265480000000 1.0
C      1  0.6035990000000  0.4741460000000  0.5058430000000 1.0
C      1  0.5543110000000  0.5336700000000  0.3973620000000 1.0
C      1  0.5746500000000  0.4737280000000  0.5223850000000 1.0
C      1  0.5541870000000  0.5744810000000  0.5707300000000 1.0
C      1  0.4033660000000  0.4558660000000  0.4959400000000 1.0
C      1  0.4963980000000  0.5380590000000  0.4123700000000 1.0
C      1  0.5211860000000  0.4547550000000  0.3925190000000 1.0
C      1  0.4367300000000  0.4569200000000  0.4312270000000 1.0
C      1  0.5987510000000  0.4824970000000  0.5612920000000 1.0
C      1  0.4327220000000  0.4955150000000  0.5052350000000 1.0
C      1  0.5106400000000  0.5904600000000  0.5412250000000 1.0
C      1  0.6070160000000  0.4956590000000  0.5322260000000 1.0
C      1  0.5259230000000  0.5489870000000  0.4911960000000 1.0
C      1  0.6018820000000  0.5482990000000  0.4568720000000 1.0
C      1  0.5598420000000  0.4801130000000  0.4195120000000 1.0
C      1  0.4188810000000  0.5799900000000  0.5606210000000 1.0
C      1  0.4760650000000  0.4049550000000  0.5591100000000 1.0
C      1  0.4884520000000  0.5255190000000  0.5328110000000 1.0
C      1  0.4343080000000  0.5341700000000  0.4792650000000 1.0
C      1  0.5641870000000  0.5109040000000  0.4443980000000 1.0
C      1  0.4737810000000  0.5125450000000  0.5679070000000 1.0
C      1  0.4292210000000  0.4093050000000  0.5543100000000 1.0
C      1  0.4705610000000  0.4790040000000  0.5698060000000 1.0
C      1  0.4549150000000  0.5581430000000  0.5678830000000 1.0
C      1  0.5245640000000  0.4698650000000  0.4777060000000 1.0
C      1  0.5633330000000  0.3997660000000  0.4513020000000 1.0
C      1  0.5522150000000  0.4249180000000  0.4323720000000 1.0
C      1  0.4534710000000  0.5455820000000  0.5190450000000 1.0
C      1  0.5773800000000  0.5315810000000  0.4130700000000 1.0
C      1  0.4563210000000  0.4820790000000  0.5204510000000 1.0
C      1  0.5177830000000  0.6175000000000  0.5028020000000 1.0
C      1  0.4497920000000  0.4674180000000  0.5490910000000 1.0
C      1  0.5379530000000  0.4108120000000  0.5485730000000 1.0
C      1  0.5048400000000  0.4447500000000  0.5247050000000 1.0
C      1  0.4060660000000  0.4822240000000  0.5103400000000 1.0
C      1  0.4523000000000  0.4886630000000  0.6035310000000 1.0
C      1  0.4540020000000  0.4496820000000  0.5138160000000 1.0
C      1  0.4917760000000  0.6055220000000  0.5172410000000 1.0
C      1  0.4751520000000  0.5385470000000  0.4975720000000 1.0
C      1  0.4808960000000  0.4543350000000  0.4073590000000 1.0
C      1  0.5758720000000  0.5509430000000  0.4374270000000 1.0
C      1  0.4810080000000  0.5074970000000  0.4852590000000 1.0
C      1  0.4013880000000  0.4961110000000  0.4537780000000 1.0
C      1  0.5613150000000  0.4930550000000  0.4865910000000 1.0
C      1  0.5330580000000  0.4852140000000  0.5346020000000 1.0
C      1  0.5238220000000  0.4175420000000  0.4961910000000 1.0
C      1  0.4051010000000  0.4915590000000  0.5558820000000 1.0
C      1  0.4497230000000  0.6109950000000  0.4840650000000 1.0
C      1  0.4762600000000  0.4685410000000  0.4777630000000 1.0
C      1  0.4817240000000  0.4486780000000  0.5006180000000 1.0
C      1  0.4813250000000  0.5086740000000  0.4211940000000 1.0
C      1  0.5198780000000  0.4396680000000  0.4703920000000 1.0
C      1  0.4317400000000  0.4371020000000  0.4967360000000 1.0
C      1  0.6030540000000  0.5295580000000  0.5334000000000 1.0
C      1  0.5543900000000  0.5319700000000  0.4896190000000 1.0
C      1  0.5768380000000  0.5125450000000  0.5063770000000 1.0
C      1  0.5086670000000  0.4788470000000  0.3818460000000 1.0
C      1  0.4548330000000  0.4017990000000  0.5332240000000 1.0
C      1  0.4354820000000  0.5095330000000  0.5927450000000 1.0
C      1  0.5505530000000  0.5752000000000  0.4575260000000 1.0
C      1  0.6042910000000  0.4278860000000  0.4543700000000 1.0
C      1  0.4635940000000  0.5381830000000  0.5479880000000 1.0
C      1  0.4543970000000  0.5571480000000  0.4688900000000 1.0
C      1  0.5775510000000  0.5623410000000  0.5003540000000 1.0
C      1  0.5364940000000  0.5278010000000  0.5248070000000 1.0
C      1  0.4589100000000  0.5178710000000  0.4661410000000 1.0
C      1  0.4614710000000  0.4544310000000  0.4551760000000 1.0
C      1  0.3799020000000  0.5324210000000  0.4924690000000 1.0
C      1  0.5152690000000  0.5033410000000  0.5134980000000 1.0
C      1  0.4176300000000  0.5372100000000  0.4283400000000 1.0
C      1  0.5637850000000  0.4246750000000  0.5063720000000 1.0
C      1  0.5013000000000  0.4694780000000  0.5751590000000 1.0
C      1  0.5435640000000  0.4726230000000  0.5058440000000 1.0
C      1  0.3911310000000  0.5279320000000  0.5228860000000 1.0
C      1  0.5323480000000  0.4586030000000  0.5978480000000 1.0
C      1  0.5002010000000  0.3963730000000  0.4501750000000 1.0
C      1  0.6024040000000  0.4865630000000  0.4781150000000 1.0
C      1  0.5327160000000  0.3978680000000  0.4405540000000 1.0
C      1  0.5961670000000  0.5383200000000  0.5041190000000 1.0
C      1  0.5657660000000  0.5854660000000  0.5211530000000 1.0
C      1  0.4905210000000  0.4200130000000  0.4966610000000 1.0
C      1  0.4043750000000  0.4227420000000  0.5405870000000 1.0
C      1  0.5825680000000  0.5307040000000  0.5782010000000 1.0
C      1  0.4153450000000  0.5532490000000  0.5667700000000 1.0
C      1  0.5621360000000  0.4049050000000  0.4847960000000 1.0
C      1  0.4249420000000  0.5079090000000  0.4322660000000 1.0
C      1  0.5702480000000  0.4437250000000  0.5337210000000 1.0
C      1  0.4651000000000  0.4313460000000  0.5741960000000 1.0
C      1  0.6013190000000  0.4793170000000  0.4448280000000 1.0
C      1  0.4368960000000  0.4350930000000  0.4644400000000 1.0
C      1  0.4499980000000  0.4056260000000  0.4589910000000 1.0
C      1  0.5775930000000  0.5668250000000  0.4696430000000 1.0
C      1  0.4982780000000  0.4201330000000  0.4184590000000 1.0
C      1  0.5191950000000  0.4203460000000  0.5718010000000 1.0
C      1  0.4112600000000  0.5348450000000  0.4583030000000 1.0
C      1  0.5498920000000  0.4400070000000  0.5547650000000 1.0
C      1  0.4981240000000  0.3905840000000  0.4817730000000 1.0
C      1  0.6276410000000  0.5327670000000  0.4628710000000 1.0
C      1  0.5556840000000  0.4584700000000  0.5810740000000 1.0
C      1  0.5604340000000  0.5146980000000  0.5800160000000 1.0
C      1  0.5864250000000  0.5003330000000  0.4231880000000 1.0
C      1  0.6069780000000  0.5168010000000  0.4805170000000 1.0
C      1  0.5304480000000  0.5092180000000  0.5950890000000 1.0
C      1  0.5265430000000  0.4611290000000  0.5540000000000 1.0
C      1  0.4741880000000  0.3929030000000  0.5065550000000 1.0
C      1  0.4588670000000  0.6009550000000  0.5099190000000 1.0
C      1  0.4670160000000  0.5521690000000  0.5974660000000 1.0
C      1  0.5402850000000  0.5981720000000  0.5025690000000 1.0
C      1  0.5187770000000  0.4338160000000  0.5959620000000 1.0
C      1  0.5944000000000  0.4492380000000  0.4387900000000 1.0
C      1  0.4439390000000  0.5758080000000  0.5153900000000 1.0
C      1  0.5506580000000  0.5558650000000  0.5213270000000 1.0
C      1  0.5165050000000  0.5476590000000  0.5612230000000 1.0
C      1  0.4966400000000  0.4711570000000  0.5410000000000 1.0
C      1  0.3966620000000  0.4309280000000  0.5150540000000 1.0
C      1  0.5267350000000  0.5881120000000  0.5816440000000 1.0
C      1  0.5055480000000  0.4977210000000  0.4424180000000 1.0
C      1  0.5351650000000  0.5023340000000  0.4287720000000 1.0
C      1  0.5157700000000  0.5367980000000  0.5996370000000 1.0
C      1  0.4720290000000  0.4088630000000  0.4373240000000 1.0
C      1  0.3872850000000  0.5209560000000  0.4684040000000 1.0
C      1  0.5223120000000  0.5024840000000  0.3785210000000 1.0
C      1  0.5130840000000  0.4844630000000  0.6014340000000 1.0
C      1  0.4351490000000  0.5523060000000  0.4121200000000 1.0
C      1  0.5217820000000  0.5182440000000  0.5647680000000 1.0
C      1  0.5234450000000  0.5311440000000  0.4645150000000 1.0
C      1  0.5247200000000  0.3996440000000  0.5252060000000 1.0
END
