TITL C-2778437-8639-649 -0.000450264067349878 125000 -1063.2924120967 0 0 187 (C1) n - 1
REM
REM in /home/nfs/bkarasulu/CARBON/AIRSS/Generating-Clusters/REBO/Only-C1/SD-CG/HFTN-CG
REM
REM
REM
REM
REM
REM ./C.cell (11c1c37f851c82e70ff6c80c92926a4b)
REM
REM compiler GCC version 9.2.1 20190827 (Red Hat 9.2.1-1)
REM options -cpp -mtune=generic -march=x86-64 -g -O0 -fpre-include=/usr/include/finclude/math-vector-fortran.h
REM seed 2110636590 662247642 957932773 -1811853909 1427319255 1586400322 1453494501 2098761269 1663872702 1658745502 -179138595 -742106752 34041972 1594184694 -188411030 1454038673 15466848 -778261281 -601027615 -211201081 2013202261 -2142608784 191817357 -2077581463 -1563219174 -223196856 130520224 1251185051 -1421395861 -1587550594 -2091914370 -1473495541 -800883086
REM
CELL 1.54180   50.00000   50.00000   50.00000   90.00000   90.00000   90.00000
LATT -1
SFAC C  
C      1  0.4602960000000  0.5833640000000  0.5447680000000 1.0
C      1  0.4622450000000  0.5590450000000  0.4731560000000 1.0
C      1  0.4355490000000  0.5479140000000  0.5695490000000 1.0
C      1  0.5257670000000  0.3984080000000  0.5199760000000 1.0
C      1  0.4260470000000  0.5747610000000  0.4945370000000 1.0
C      1  0.4914010000000  0.4281750000000  0.5386170000000 1.0
C      1  0.5727800000000  0.4824770000000  0.5137190000000 1.0
C      1  0.5361180000000  0.4196920000000  0.5625930000000 1.0
C      1  0.5585880000000  0.4595810000000  0.4128500000000 1.0
C      1  0.5989820000000  0.5283620000000  0.5487660000000 1.0
C      1  0.4386880000000  0.5804470000000  0.4673000000000 1.0
C      1  0.4942800000000  0.4613950000000  0.5453640000000 1.0
C      1  0.5129890000000  0.4969910000000  0.4666750000000 1.0
C      1  0.4467160000000  0.4791010000000  0.5027960000000 1.0
C      1  0.4215170000000  0.5647630000000  0.4447070000000 1.0
C      1  0.4617700000000  0.5287160000000  0.3905170000000 1.0
C      1  0.5688080000000  0.4310120000000  0.5281030000000 1.0
C      1  0.4337580000000  0.4567190000000  0.4265170000000 1.0
C      1  0.4490240000000  0.4922040000000  0.5478970000000 1.0
C      1  0.4673000000000  0.5404890000000  0.6007040000000 1.0
C      1  0.5120360000000  0.5999420000000  0.4407850000000 1.0
C      1  0.5839390000000  0.5449820000000  0.4332050000000 1.0
C      1  0.4051060000000  0.4496760000000  0.4997110000000 1.0
C      1  0.4284610000000  0.4825690000000  0.5814140000000 1.0
C      1  0.5874900000000  0.4569470000000  0.5231410000000 1.0
C      1  0.5448890000000  0.5569580000000  0.4551860000000 1.0
C      1  0.5618870000000  0.5397480000000  0.4126230000000 1.0
C      1  0.5672920000000  0.4877490000000  0.5906500000000 1.0
C      1  0.4274950000000  0.4567540000000  0.4579560000000 1.0
C      1  0.4253820000000  0.5169700000000  0.5797590000000 1.0
C      1  0.5425550000000  0.4353730000000  0.4108820000000 1.0
C      1  0.5457120000000  0.4229090000000  0.4487250000000 1.0
C      1  0.4157650000000  0.4360170000000  0.4772310000000 1.0
C      1  0.4918860000000  0.4745420000000  0.5762920000000 1.0
C      1  0.4756220000000  0.5589460000000  0.4323910000000 1.0
C      1  0.3923330000000  0.5206470000000  0.4752100000000 1.0
C      1  0.4556250000000  0.4353760000000  0.4765210000000 1.0
C      1  0.4782280000000  0.6059890000000  0.4980220000000 1.0
C      1  0.4435370000000  0.4960720000000  0.4515540000000 1.0
C      1  0.5580610000000  0.4260010000000  0.4972120000000 1.0
C      1  0.4930850000000  0.4434130000000  0.4098880000000 1.0
C      1  0.4648640000000  0.4477540000000  0.5883020000000 1.0
C      1  0.4595310000000  0.4870640000000  0.4229300000000 1.0
C      1  0.4578990000000  0.5504340000000  0.5357540000000 1.0
C      1  0.4528930000000  0.5335240000000  0.4618140000000 1.0
C      1  0.4663360000000  0.4931240000000  0.5771580000000 1.0
C      1  0.5191220000000  0.4539410000000  0.5232290000000 1.0
C      1  0.3953800000000  0.5088960000000  0.5034970000000 1.0
C      1  0.6041930000000  0.4833130000000  0.4750250000000 1.0
C      1  0.6103230000000  0.5147830000000  0.5266710000000 1.0
C      1  0.4823670000000  0.4052170000000  0.4616750000000 1.0
C      1  0.5290800000000  0.4361530000000  0.4888170000000 1.0
C      1  0.4822430000000  0.5384870000000  0.4089290000000 1.0
C      1  0.4631980000000  0.4002040000000  0.5371270000000 1.0
C      1  0.5403020000000  0.5500970000000  0.5369220000000 1.0
C      1  0.6259280000000  0.4810120000000  0.4978200000000 1.0
C      1  0.5369300000000  0.4289920000000  0.5310270000000 1.0
C      1  0.4542990000000  0.4250620000000  0.5580110000000 1.0
C      1  0.5615160000000  0.4648260000000  0.4556190000000 1.0
C      1  0.4436600000000  0.4597460000000  0.5705130000000 1.0
C      1  0.4689100000000  0.5262490000000  0.5696690000000 1.0
C      1  0.5314580000000  0.3964650000000  0.4930320000000 1.0
C      1  0.4646920000000  0.3985630000000  0.4859320000000 1.0
C      1  0.4081230000000  0.5316360000000  0.5212140000000 1.0
C      1  0.5526390000000  0.4816530000000  0.6140500000000 1.0
C      1  0.4579970000000  0.5666640000000  0.5719510000000 1.0
C      1  0.5517280000000  0.4084020000000  0.4710420000000 1.0
C      1  0.4933530000000  0.5213350000000  0.6003510000000 1.0
C      1  0.4186950000000  0.4471820000000  0.5261150000000 1.0
C      1  0.5153220000000  0.4497490000000  0.5785250000000 1.0
C      1  0.4074090000000  0.5380740000000  0.4501160000000 1.0
C      1  0.4272670000000  0.4743780000000  0.5372600000000 1.0
C      1  0.4972570000000  0.4406310000000  0.5010050000000 1.0
C      1  0.4545520000000  0.4471340000000  0.5086390000000 1.0
C      1  0.5378620000000  0.4823460000000  0.4177850000000 1.0
C      1  0.4060810000000  0.4775000000000  0.4441150000000 1.0
C      1  0.5398910000000  0.4795950000000  0.5149140000000 1.0
C      1  0.5900790000000  0.5141800000000  0.4701550000000 1.0
C      1  0.4398760000000  0.4235080000000  0.5279810000000 1.0
C      1  0.5342290000000  0.4530340000000  0.4457060000000 1.0
C      1  0.4871310000000  0.5468580000000  0.5498540000000 1.0
C      1  0.5081260000000  0.4124050000000  0.4401890000000 1.0
C      1  0.5326040000000  0.5851150000000  0.5176120000000 1.0
C      1  0.4162790000000  0.5147940000000  0.5496990000000 1.0
C      1  0.4932210000000  0.5888350000000  0.5229790000000 1.0
C      1  0.5148860000000  0.5797430000000  0.5445710000000 1.0
C      1  0.4432360000000  0.5071140000000  0.4012460000000 1.0
C      1  0.4876940000000  0.5341060000000  0.4911410000000 1.0
C      1  0.5868380000000  0.4399280000000  0.4938940000000 1.0
C      1  0.4865400000000  0.4895830000000  0.3809240000000 1.0
C      1  0.4992440000000  0.5123980000000  0.5659450000000 1.0
C      1  0.5199150000000  0.4662550000000  0.4804710000000 1.0
C      1  0.4887950000000  0.5586120000000  0.5818020000000 1.0
C      1  0.5088530000000  0.5001860000000  0.5281130000000 1.0
C      1  0.4862080000000  0.4606470000000  0.4764790000000 1.0
C      1  0.5543740000000  0.5862720000000  0.4713610000000 1.0
C      1  0.5498550000000  0.5455190000000  0.5909160000000 1.0
C      1  0.4884440000000  0.4333040000000  0.5730680000000 1.0
C      1  0.5004070000000  0.6083670000000  0.4717300000000 1.0
C      1  0.3807410000000  0.4917420000000  0.5262140000000 1.0
C      1  0.5331850000000  0.5125840000000  0.5482600000000 1.0
C      1  0.4419320000000  0.5252200000000  0.6082930000000 1.0
C      1  0.5522840000000  0.5025850000000  0.4669090000000 1.0
C      1  0.4882050000000  0.5732360000000  0.4580630000000 1.0
C      1  0.5922350000000  0.4770530000000  0.5690960000000 1.0
C      1  0.5291570000000  0.5994590000000  0.4868910000000 1.0
C      1  0.5624950000000  0.5301460000000  0.5215640000000 1.0
C      1  0.5432230000000  0.5874900000000  0.4397610000000 1.0
C      1  0.4492730000000  0.5277450000000  0.4284640000000 1.0
C      1  0.4197130000000  0.5131500000000  0.4324190000000 1.0
C      1  0.4608230000000  0.4458490000000  0.4210140000000 1.0
C      1  0.4677860000000  0.5980620000000  0.4682400000000 1.0
C      1  0.5046750000000  0.4884200000000  0.4983240000000 1.0
C      1  0.5359410000000  0.5007040000000  0.3919550000000 1.0
C      1  0.4923200000000  0.4893430000000  0.6072740000000 1.0
C      1  0.5121170000000  0.5434330000000  0.4015740000000 1.0
C      1  0.5710140000000  0.4821280000000  0.4835640000000 1.0
C      1  0.5121570000000  0.4124100000000  0.4726120000000 1.0
C      1  0.5631870000000  0.5098400000000  0.4013000000000 1.0
C      1  0.4727080000000  0.4635800000000  0.6095850000000 1.0
C      1  0.5004620000000  0.4509570000000  0.4492450000000 1.0
C      1  0.5793020000000  0.5521200000000  0.5424260000000 1.0
C      1  0.5744960000000  0.5408450000000  0.4608060000000 1.0
C      1  0.5118080000000  0.5718800000000  0.4213150000000 1.0
C      1  0.5614780000000  0.5704440000000  0.5197000000000 1.0
C      1  0.4551160000000  0.6004260000000  0.5224580000000 1.0
C      1  0.4739360000000  0.4340350000000  0.4478560000000 1.0
C      1  0.5934200000000  0.5463200000000  0.4990370000000 1.0
C      1  0.5657890000000  0.4581460000000  0.5642720000000 1.0
C      1  0.4545460000000  0.4673980000000  0.4743400000000 1.0
C      1  0.5916020000000  0.4529900000000  0.4670930000000 1.0
C      1  0.5148460000000  0.4285510000000  0.4183580000000 1.0
C      1  0.4241210000000  0.5528480000000  0.5414850000000 1.0
C      1  0.5661060000000  0.5594420000000  0.4888090000000 1.0
C      1  0.4471250000000  0.5674510000000  0.4304250000000 1.0
C      1  0.5876310000000  0.5100820000000  0.5661860000000 1.0
C      1  0.4882930000000  0.6191820000000  0.5341340000000 1.0
C      1  0.5148640000000  0.5648360000000  0.4994690000000 1.0
C      1  0.4141330000000  0.4817900000000  0.5066890000000 1.0
C      1  0.6223950000000  0.4885460000000  0.5256600000000 1.0
C      1  0.5465100000000  0.5090860000000  0.4998000000000 1.0
C      1  0.6078550000000  0.4692820000000  0.5422920000000 1.0
C      1  0.5443770000000  0.5666200000000  0.4128860000000 1.0
C      1  0.5769690000000  0.4880970000000  0.4154900000000 1.0
C      1  0.5107960000000  0.4733690000000  0.4298410000000 1.0
C      1  0.5304130000000  0.4764330000000  0.5673300000000 1.0
C      1  0.5550030000000  0.5597160000000  0.5652030000000 1.0
C      1  0.4795950000000  0.5011130000000  0.5404840000000 1.0
C      1  0.5488370000000  0.4728030000000  0.5444340000000 1.0
C      1  0.4817960000000  0.5662290000000  0.5001330000000 1.0
C      1  0.4624610000000  0.5061350000000  0.4781490000000 1.0
C      1  0.4342810000000  0.4104480000000  0.4806220000000 1.0
C      1  0.4250570000000  0.5172190000000  0.4713430000000 1.0
C      1  0.4925540000000  0.4949150000000  0.4200810000000 1.0
C      1  0.5255240000000  0.4872190000000  0.6136550000000 1.0
C      1  0.5085340000000  0.5448480000000  0.4409260000000 1.0
C      1  0.4614030000000  0.4541230000000  0.5414180000000 1.0
C      1  0.5564020000000  0.5066670000000  0.5642850000000 1.0
C      1  0.4558440000000  0.5299790000000  0.5015130000000 1.0
C      1  0.5204130000000  0.5617370000000  0.5695930000000 1.0
C      1  0.5784180000000  0.4930110000000  0.4460720000000 1.0
C      1  0.5184680000000  0.3992970000000  0.5498110000000 1.0
C      1  0.5340980000000  0.5037920000000  0.4410290000000 1.0
C      1  0.3925400000000  0.4937710000000  0.5486450000000 1.0
C      1  0.5482040000000  0.4409130000000  0.5789380000000 1.0
C      1  0.4795760000000  0.5187870000000  0.4363130000000 1.0
C      1  0.4883340000000  0.4019570000000  0.5598960000000 1.0
C      1  0.4951140000000  0.5237860000000  0.4631720000000 1.0
C      1  0.5228400000000  0.5003700000000  0.5845320000000 1.0
C      1  0.4449170000000  0.5203720000000  0.5317200000000 1.0
C      1  0.4293940000000  0.5474810000000  0.5031970000000 1.0
C      1  0.5375700000000  0.5409840000000  0.4927830000000 1.0
C      1  0.5864220000000  0.5126350000000  0.5043090000000 1.0
C      1  0.5328550000000  0.5305730000000  0.4256190000000 1.0
C      1  0.5833880000000  0.4092180000000  0.5434840000000 1.0
C      1  0.4471260000000  0.4949660000000  0.6044380000000 1.0
C      1  0.3834120000000  0.4866790000000  0.4536200000000 1.0
C      1  0.4289390000000  0.5965600000000  0.5121580000000 1.0
C      1  0.4746830000000  0.4954220000000  0.5080240000000 1.0
C      1  0.5123550000000  0.5383610000000  0.5382590000000 1.0
C      1  0.5072500000000  0.5111010000000  0.3940090000000 1.0
C      1  0.4735040000000  0.4675210000000  0.3985010000000 1.0
C      1  0.5221730000000  0.5340300000000  0.5901120000000 1.0
C      1  0.5115090000000  0.5263740000000  0.5081620000000 1.0
C      1  0.4207470000000  0.4848300000000  0.4140760000000 1.0
C      1  0.5172940000000  0.5721190000000  0.4683910000000 1.0
C      1  0.4784640000000  0.4144420000000  0.5102550000000 1.0
END
