TITL C-2778431-5191-861 0.098484060676132 125000 -723.935660933315 0 0 126 (C1) n - 1
REM
REM in /home/nfs/bkarasulu/CARBON/AIRSS/Generating-Clusters/REBO/Only-C1/SD-CG/HFTN-CG
REM
REM
REM
REM
REM
REM ./C.cell (11c1c37f851c82e70ff6c80c92926a4b)
REM
REM compiler GCC version 9.2.1 20190827 (Red Hat 9.2.1-1)
REM options -cpp -mtune=generic -march=x86-64 -g -O0 -fpre-include=/usr/include/finclude/math-vector-fortran.h
REM seed -1275399002 1602659190 -1422290660 -2019600879 648696499 1427371493 -922885326 242121519 -1637719907 1676139749 309311862 -1172560088 -483079280 -1837078359 2126286795 -1691496016 -158201882 -888729415 -113480678 1333104065 1677485448 -799610064 -1150114056 1173636261 -1998063870 -1122848681 -307414860 -57606673 -247376090 648231757 -2126420995 1636401248 -938171145
REM
CELL 1.54180   50.00000   50.00000   50.00000   90.00000   90.00000   90.00000
LATT -1
SFAC C  
C      1  0.5320030000000  0.5529350000000  0.5569390000000 1.0
C      1  0.5339260000000  0.4160330000000  0.5319590000000 1.0
C      1  0.4817900000000  0.4046480000000  0.5055990000000 1.0
C      1  0.5693850000000  0.5634790000000  0.4555160000000 1.0
C      1  0.4821680000000  0.4772600000000  0.4489630000000 1.0
C      1  0.4563760000000  0.5790660000000  0.5342520000000 1.0
C      1  0.4561200000000  0.5824450000000  0.5002290000000 1.0
C      1  0.4996360000000  0.5840030000000  0.4441550000000 1.0
C      1  0.5010190000000  0.4098910000000  0.4778840000000 1.0
C      1  0.4726850000000  0.4558560000000  0.4167460000000 1.0
C      1  0.5328570000000  0.4977030000000  0.4989080000000 1.0
C      1  0.4392980000000  0.4982070000000  0.4250520000000 1.0
C      1  0.4461270000000  0.5246230000000  0.4982710000000 1.0
C      1  0.5584170000000  0.5516600000000  0.5352640000000 1.0
C      1  0.5151990000000  0.4708140000000  0.5081990000000 1.0
C      1  0.5446830000000  0.5022310000000  0.4271130000000 1.0
C      1  0.4682670000000  0.4504820000000  0.4646850000000 1.0
C      1  0.4329930000000  0.5038970000000  0.4789420000000 1.0
C      1  0.4156880000000  0.5014500000000  0.5084250000000 1.0
C      1  0.5463290000000  0.4252760000000  0.5029100000000 1.0
C      1  0.5039630000000  0.4629490000000  0.4789630000000 1.0
C      1  0.4645740000000  0.4836800000000  0.4073160000000 1.0
C      1  0.4539680000000  0.5482600000000  0.4246210000000 1.0
C      1  0.5012740000000  0.4832690000000  0.4221100000000 1.0
C      1  0.4044310000000  0.4667540000000  0.4477160000000 1.0
C      1  0.5430930000000  0.5388020000000  0.4116620000000 1.0
C      1  0.4436610000000  0.5685760000000  0.4716420000000 1.0
C      1  0.4921610000000  0.4986650000000  0.3939820000000 1.0
C      1  0.5461480000000  0.5088800000000  0.5727230000000 1.0
C      1  0.4863680000000  0.5925230000000  0.5120760000000 1.0
C      1  0.4133900000000  0.4741180000000  0.5283060000000 1.0
C      1  0.4198160000000  0.4862430000000  0.5595350000000 1.0
C      1  0.5027010000000  0.5338990000000  0.4920920000000 1.0
C      1  0.4437240000000  0.4495280000000  0.5212460000000 1.0
C      1  0.4990110000000  0.5456300000000  0.5241380000000 1.0
C      1  0.5882830000000  0.4934760000000  0.5433810000000 1.0
C      1  0.4787510000000  0.5507800000000  0.4776820000000 1.0
C      1  0.4654780000000  0.5015420000000  0.4441540000000 1.0
C      1  0.5545550000000  0.4815310000000  0.5831900000000 1.0
C      1  0.4301730000000  0.5400350000000  0.5748970000000 1.0
C      1  0.4357750000000  0.5585390000000  0.5278270000000 1.0
C      1  0.4555920000000  0.5542280000000  0.5870170000000 1.0
C      1  0.4659310000000  0.5238910000000  0.5216090000000 1.0
C      1  0.4590080000000  0.4244530000000  0.5204580000000 1.0
C      1  0.5447390000000  0.5579580000000  0.4322640000000 1.0
C      1  0.5830730000000  0.5469790000000  0.4821550000000 1.0
C      1  0.4752440000000  0.5261180000000  0.4591810000000 1.0
C      1  0.5290100000000  0.5411420000000  0.4729130000000 1.0
C      1  0.5612730000000  0.4874380000000  0.4906980000000 1.0
C      1  0.4962480000000  0.4445500000000  0.4307970000000 1.0
C      1  0.5800900000000  0.4841890000000  0.4616830000000 1.0
C      1  0.5715070000000  0.4549080000000  0.5216280000000 1.0
C      1  0.5658510000000  0.4477110000000  0.5506750000000 1.0
C      1  0.5293170000000  0.5252490000000  0.5399600000000 1.0
C      1  0.5353800000000  0.4775780000000  0.4417270000000 1.0
C      1  0.5288000000000  0.5299270000000  0.5794950000000 1.0
C      1  0.5538980000000  0.4790560000000  0.5290410000000 1.0
C      1  0.4300340000000  0.5185120000000  0.4511280000000 1.0
C      1  0.4175070000000  0.4519050000000  0.5034130000000 1.0
C      1  0.5381590000000  0.5282910000000  0.5092180000000 1.0
C      1  0.5054370000000  0.5361260000000  0.4510770000000 1.0
C      1  0.5130600000000  0.4864920000000  0.4598830000000 1.0
C      1  0.5055950000000  0.5191920000000  0.5895150000000 1.0
C      1  0.5463050000000  0.4570630000000  0.4907680000000 1.0
C      1  0.4616630000000  0.4754010000000  0.5206180000000 1.0
C      1  0.5283410000000  0.5916020000000  0.4708510000000 1.0
C      1  0.4182660000000  0.4444160000000  0.4778700000000 1.0
C      1  0.5979560000000  0.4733940000000  0.4872270000000 1.0
C      1  0.5559460000000  0.4643440000000  0.4586700000000 1.0
C      1  0.5857550000000  0.4487750000000  0.4972180000000 1.0
C      1  0.4716510000000  0.5534310000000  0.5078610000000 1.0
C      1  0.5079180000000  0.5723940000000  0.5549000000000 1.0
C      1  0.4276580000000  0.4789940000000  0.4482970000000 1.0
C      1  0.4914290000000  0.4464100000000  0.5129690000000 1.0
C      1  0.5424260000000  0.5590950000000  0.5060620000000 1.0
C      1  0.4319190000000  0.5083790000000  0.5363580000000 1.0
C      1  0.5407310000000  0.4341440000000  0.5545820000000 1.0
C      1  0.5022630000000  0.5898450000000  0.4836270000000 1.0
C      1  0.4855270000000  0.5822430000000  0.5438620000000 1.0
C      1  0.5205520000000  0.4459160000000  0.5707540000000 1.0
C      1  0.5880840000000  0.5278130000000  0.4968750000000 1.0
C      1  0.5733160000000  0.5333030000000  0.4462460000000 1.0
C      1  0.4846750000000  0.4767280000000  0.5649620000000 1.0
C      1  0.4300160000000  0.5524760000000  0.4974260000000 1.0
C      1  0.5766120000000  0.5040690000000  0.4386140000000 1.0
C      1  0.5449830000000  0.5687280000000  0.4757310000000 1.0
C      1  0.4763840000000  0.4789820000000  0.4912890000000 1.0
C      1  0.4979590000000  0.4697390000000  0.5359640000000 1.0
C      1  0.5809010000000  0.5266150000000  0.5403030000000 1.0
C      1  0.5044560000000  0.4007710000000  0.5307300000000 1.0
C      1  0.4985740000000  0.5169580000000  0.4281460000000 1.0
C      1  0.4688990000000  0.5258110000000  0.4198410000000 1.0
C      1  0.5560150000000  0.5109720000000  0.5286300000000 1.0
C      1  0.4298210000000  0.5375780000000  0.5453510000000 1.0
C      1  0.4839950000000  0.5292510000000  0.5500100000000 1.0
C      1  0.4411150000000  0.5077730000000  0.5750580000000 1.0
C      1  0.5215850000000  0.5131010000000  0.4049650000000 1.0
C      1  0.5419970000000  0.4348820000000  0.4645090000000 1.0
C      1  0.4351300000000  0.4582970000000  0.5512470000000 1.0
C      1  0.5012530000000  0.5019140000000  0.4874290000000 1.0
C      1  0.4066250000000  0.5284770000000  0.4961460000000 1.0
C      1  0.5330250000000  0.4869280000000  0.5502960000000 1.0
C      1  0.4376490000000  0.4418120000000  0.4588790000000 1.0
C      1  0.5713320000000  0.4279290000000  0.4809430000000 1.0
C      1  0.4497280000000  0.4778620000000  0.4722620000000 1.0
C      1  0.5269390000000  0.4692510000000  0.5856230000000 1.0
C      1  0.5223220000000  0.4581900000000  0.4202400000000 1.0
C      1  0.4870760000000  0.4807010000000  0.6148390000000 1.0
C      1  0.4679890000000  0.5288040000000  0.5750720000000 1.0
C      1  0.5446310000000  0.5233110000000  0.4521890000000 1.0
C      1  0.4558120000000  0.4496230000000  0.5693760000000 1.0
C      1  0.5070540000000  0.5065300000000  0.5478390000000 1.0
C      1  0.4787410000000  0.4333250000000  0.4868130000000 1.0
C      1  0.4754360000000  0.5797490000000  0.4653370000000 1.0
C      1  0.5214400000000  0.4043410000000  0.5015110000000 1.0
C      1  0.4377180000000  0.5468060000000  0.4483020000000 1.0
C      1  0.4581550000000  0.4909400000000  0.5508210000000 1.0
C      1  0.5179440000000  0.5636850000000  0.4418600000000 1.0
C      1  0.5747810000000  0.4731620000000  0.5629480000000 1.0
C      1  0.4860170000000  0.4992720000000  0.5239810000000 1.0
C      1  0.5132690000000  0.5716430000000  0.5105440000000 1.0
C      1  0.5092120000000  0.4362640000000  0.4611500000000 1.0
C      1  0.5001720000000  0.4876790000000  0.5906040000000 1.0
C      1  0.4869990000000  0.4264700000000  0.5384960000000 1.0
C      1  0.5881760000000  0.4973310000000  0.5094110000000 1.0
C      1  0.4886710000000  0.4427760000000  0.5638930000000 1.0
END
