TITL C-2778430-5657-664 -0.00895150046147846 125000 -739.310019650973 0 0 128 (C1) n - 1
REM
REM in /home/nfs/bkarasulu/CARBON/AIRSS/Generating-Clusters/REBO/Only-C1/SD-CG/HFTN-CG
REM
REM
REM
REM
REM
REM ./C.cell (11c1c37f851c82e70ff6c80c92926a4b)
REM
REM compiler GCC version 9.2.1 20190827 (Red Hat 9.2.1-1)
REM options -cpp -mtune=generic -march=x86-64 -g -O0 -fpre-include=/usr/include/finclude/math-vector-fortran.h
REM seed -550573648 -1536476100 -623046782 -1682430819 1557495976 874123965 1591572672 1460669276 -621061301 -1711457615 -1598392622 -1417529728 1038494063 -1510907550 1842354853 -1134032349 2050133557 1999904851 -1857319680 1163292827 -438940237 1418583247 52032691 447021585 -1566289449 663236248 -1726872026 737323727 -1669104345 1066254947 -1792354405 277856836 1302035832
REM
CELL 1.54180   50.00000   50.00000   50.00000   90.00000   90.00000   90.00000
LATT -1
SFAC C  
C      1  0.5172520000000  0.5396430000000  0.5043310000000 1.0
C      1  0.4309660000000  0.4427040000000  0.4649120000000 1.0
C      1  0.5857540000000  0.5047350000000  0.5433020000000 1.0
C      1  0.5066240000000  0.4723130000000  0.4523340000000 1.0
C      1  0.4302600000000  0.5588730000000  0.4682440000000 1.0
C      1  0.5358710000000  0.4061630000000  0.4907520000000 1.0
C      1  0.4945740000000  0.5183920000000  0.5111350000000 1.0
C      1  0.5414010000000  0.5686440000000  0.5621540000000 1.0
C      1  0.5603450000000  0.5312440000000  0.5036620000000 1.0
C      1  0.5716600000000  0.4940510000000  0.4184100000000 1.0
C      1  0.4727300000000  0.5233840000000  0.4435800000000 1.0
C      1  0.5086200000000  0.5739720000000  0.5699450000000 1.0
C      1  0.4317010000000  0.4672900000000  0.4413920000000 1.0
C      1  0.5174630000000  0.4168210000000  0.5432030000000 1.0
C      1  0.4642230000000  0.5403390000000  0.5703930000000 1.0
C      1  0.5612240000000  0.4307240000000  0.4528230000000 1.0
C      1  0.5404630000000  0.5334870000000  0.5258990000000 1.0
C      1  0.4849160000000  0.5170360000000  0.5422230000000 1.0
C      1  0.4666860000000  0.5065100000000  0.5686320000000 1.0
C      1  0.5289990000000  0.5374440000000  0.4754190000000 1.0
C      1  0.5717250000000  0.4596140000000  0.5226840000000 1.0
C      1  0.4737160000000  0.4814980000000  0.4788990000000 1.0
C      1  0.5014620000000  0.4405360000000  0.4991600000000 1.0
C      1  0.5060760000000  0.5819460000000  0.4398460000000 1.0
C      1  0.4748110000000  0.4925500000000  0.4173320000000 1.0
C      1  0.4007610000000  0.4602870000000  0.5172670000000 1.0
C      1  0.4374960000000  0.4996300000000  0.5583900000000 1.0
C      1  0.4410700000000  0.5267320000000  0.4314790000000 1.0
C      1  0.5008870000000  0.5041380000000  0.4453060000000 1.0
C      1  0.4145880000000  0.5193230000000  0.4987810000000 1.0
C      1  0.5207650000000  0.5971600000000  0.5238600000000 1.0
C      1  0.4565090000000  0.4440990000000  0.4430770000000 1.0
C      1  0.5699350000000  0.5282740000000  0.4715790000000 1.0
C      1  0.5889630000000  0.5318480000000  0.5497570000000 1.0
C      1  0.5522860000000  0.4081620000000  0.5145370000000 1.0
C      1  0.4644620000000  0.5382880000000  0.5281330000000 1.0
C      1  0.4841960000000  0.4036690000000  0.4804740000000 1.0
C      1  0.4174910000000  0.4527330000000  0.4884780000000 1.0
C      1  0.5200120000000  0.5136700000000  0.4195490000000 1.0
C      1  0.4509420000000  0.5577290000000  0.4420070000000 1.0
C      1  0.4715820000000  0.4535010000000  0.4953400000000 1.0
C      1  0.5047150000000  0.5090670000000  0.6140140000000 1.0
C      1  0.4128970000000  0.4876820000000  0.4571320000000 1.0
C      1  0.4991480000000  0.5563450000000  0.5355530000000 1.0
C      1  0.4768680000000  0.5895250000000  0.4538570000000 1.0
C      1  0.4494790000000  0.5729550000000  0.5035510000000 1.0
C      1  0.4987280000000  0.4965090000000  0.4875910000000 1.0
C      1  0.5045450000000  0.5854230000000  0.4738180000000 1.0
C      1  0.5061890000000  0.5140440000000  0.5662390000000 1.0
C      1  0.5492730000000  0.5026290000000  0.4123720000000 1.0
C      1  0.5778590000000  0.4870210000000  0.5210380000000 1.0
C      1  0.5012060000000  0.5242400000000  0.4711520000000 1.0
C      1  0.4902080000000  0.5152750000000  0.4086270000000 1.0
C      1  0.4263860000000  0.5514370000000  0.5003160000000 1.0
C      1  0.4981100000000  0.4203110000000  0.4444620000000 1.0
C      1  0.5456140000000  0.5825230000000  0.5345690000000 1.0
C      1  0.5435380000000  0.4522370000000  0.4219280000000 1.0
C      1  0.4188740000000  0.5366260000000  0.4513820000000 1.0
C      1  0.5508660000000  0.5812670000000  0.5032550000000 1.0
C      1  0.4505930000000  0.4444950000000  0.5297260000000 1.0
C      1  0.5320140000000  0.4544310000000  0.4944110000000 1.0
C      1  0.4768160000000  0.5717990000000  0.4256560000000 1.0
C      1  0.4731590000000  0.5413970000000  0.4711590000000 1.0
C      1  0.4771520000000  0.5419970000000  0.4163000000000 1.0
C      1  0.4356880000000  0.4689500000000  0.5576170000000 1.0
C      1  0.5682550000000  0.5482360000000  0.5622520000000 1.0
C      1  0.4775330000000  0.5920960000000  0.4999000000000 1.0
C      1  0.4443860000000  0.4957780000000  0.4296460000000 1.0
C      1  0.4836980000000  0.4557540000000  0.4333810000000 1.0
C      1  0.5520390000000  0.4529200000000  0.5495820000000 1.0
C      1  0.4681340000000  0.4816840000000  0.4492790000000 1.0
C      1  0.4985070000000  0.4226260000000  0.5247340000000 1.0
C      1  0.5475300000000  0.5570150000000  0.4557350000000 1.0
C      1  0.5246510000000  0.4388390000000  0.4076440000000 1.0
C      1  0.5389840000000  0.4307720000000  0.4728720000000 1.0
C      1  0.4662560000000  0.5279430000000  0.4979020000000 1.0
C      1  0.4965360000000  0.5892260000000  0.5424410000000 1.0
C      1  0.4186690000000  0.4867560000000  0.4894710000000 1.0
C      1  0.5613210000000  0.5585470000000  0.4857160000000 1.0
C      1  0.4431690000000  0.5499960000000  0.5516300000000 1.0
C      1  0.4579820000000  0.4222620000000  0.4687240000000 1.0
C      1  0.5214480000000  0.4588570000000  0.5359190000000 1.0
C      1  0.5310610000000  0.5125920000000  0.5974810000000 1.0
C      1  0.5308580000000  0.5699900000000  0.4309640000000 1.0
C      1  0.4209360000000  0.5097060000000  0.5308590000000 1.0
C      1  0.4263540000000  0.4392570000000  0.5175410000000 1.0
C      1  0.4933050000000  0.4828500000000  0.6105650000000 1.0
C      1  0.5446430000000  0.5172650000000  0.4537610000000 1.0
C      1  0.4663350000000  0.4216630000000  0.5011650000000 1.0
C      1  0.5016680000000  0.5683350000000  0.5035630000000 1.0
C      1  0.5081720000000  0.4411090000000  0.4656260000000 1.0
C      1  0.5186830000000  0.5389130000000  0.5482370000000 1.0
C      1  0.5226690000000  0.4888990000000  0.5241270000000 1.0
C      1  0.4691690000000  0.5720130000000  0.5313170000000 1.0
C      1  0.5826740000000  0.4783230000000  0.4445880000000 1.0
C      1  0.5818130000000  0.4974080000000  0.4713450000000 1.0
C      1  0.5304820000000  0.4621020000000  0.5749080000000 1.0
C      1  0.5624050000000  0.4995740000000  0.4979680000000 1.0
C      1  0.5352340000000  0.4882750000000  0.4580530000000 1.0
C      1  0.4235830000000  0.5409400000000  0.5307210000000 1.0
C      1  0.5777000000000  0.4637020000000  0.4750530000000 1.0
C      1  0.4952010000000  0.5284280000000  0.5921560000000 1.0
C      1  0.4638080000000  0.4302930000000  0.5645470000000 1.0
C      1  0.4686410000000  0.4180490000000  0.5339580000000 1.0
C      1  0.5636000000000  0.4514070000000  0.4966910000000 1.0
C      1  0.5312290000000  0.4866210000000  0.4918990000000 1.0
C      1  0.4675890000000  0.4668280000000  0.5336830000000 1.0
C      1  0.5562580000000  0.5171080000000  0.5672940000000 1.0
C      1  0.5406690000000  0.5054300000000  0.5403560000000 1.0
C      1  0.5394640000000  0.5379460000000  0.4282700000000 1.0
C      1  0.5337140000000  0.5399010000000  0.5790410000000 1.0
C      1  0.5522380000000  0.4680450000000  0.4416260000000 1.0
C      1  0.5270070000000  0.4913580000000  0.5752070000000 1.0
C      1  0.4270000000000  0.4778730000000  0.5272500000000 1.0
C      1  0.4676910000000  0.5700640000000  0.4761460000000 1.0
C      1  0.5619710000000  0.4849010000000  0.5575570000000 1.0
C      1  0.5049970000000  0.4613180000000  0.5896310000000 1.0
C      1  0.4760970000000  0.4776790000000  0.5818700000000 1.0
C      1  0.5262640000000  0.5978750000000  0.4933870000000 1.0
C      1  0.4890970000000  0.5560680000000  0.5815330000000 1.0
C      1  0.4936860000000  0.4744060000000  0.5325290000000 1.0
C      1  0.4990960000000  0.4325880000000  0.4176690000000 1.0
C      1  0.5093570000000  0.3957920000000  0.4862780000000 1.0
C      1  0.5801780000000  0.4306810000000  0.4357360000000 1.0
C      1  0.4070310000000  0.5165090000000  0.4662440000000 1.0
C      1  0.4477760000000  0.4759380000000  0.5003510000000 1.0
C      1  0.4568620000000  0.4561750000000  0.5707130000000 1.0
C      1  0.5452490000000  0.4211560000000  0.5392990000000 1.0
END
