TITL C-2778431-5191-942 -0.000270472385509791 125000 -638.56552152479 0 0 108 (C1) n - 1
REM
REM in /home/nfs/bkarasulu/CARBON/AIRSS/Generating-Clusters/REBO/Only-C1/SD-CG/HFTN-CG
REM
REM
REM
REM
REM
REM ./C.cell (11c1c37f851c82e70ff6c80c92926a4b)
REM
REM compiler GCC version 9.2.1 20190827 (Red Hat 9.2.1-1)
REM options -cpp -mtune=generic -march=x86-64 -g -O0 -fpre-include=/usr/include/finclude/math-vector-fortran.h
REM seed 1816712949 1965717155 -406240718 -1945893174 507959887 163379338 735178055 2049731892 -1290156421 174626474 2033116548 -533677589 -1907661621 1811648401 1987325776 247943987 821242561 -999512251 1027573430 -1687660322 -1249006168 -468443075 1429743134 1611632824 -1815130187 1340099238 -1458063016 412958619 767678135 -226925956 332700840 1107751422 884073520
REM
CELL 1.54180   50.00000   50.00000   50.00000   90.00000   90.00000   90.00000
LATT -1
SFAC C  
C      1  0.4390860000000  0.5136350000000  0.4238100000000 1.0
C      1  0.5284140000000  0.4982070000000  0.4648850000000 1.0
C      1  0.4251090000000  0.4786990000000  0.4617580000000 1.0
C      1  0.5263330000000  0.5693890000000  0.5404830000000 1.0
C      1  0.5646830000000  0.4761080000000  0.5034140000000 1.0
C      1  0.5017240000000  0.5175360000000  0.6228510000000 1.0
C      1  0.4567650000000  0.5739580000000  0.5245250000000 1.0
C      1  0.4363610000000  0.5666740000000  0.5024110000000 1.0
C      1  0.4807170000000  0.4725280000000  0.5572990000000 1.0
C      1  0.4537830000000  0.4442790000000  0.5427800000000 1.0
C      1  0.5988810000000  0.4979480000000  0.4805430000000 1.0
C      1  0.5278120000000  0.4970640000000  0.4110900000000 1.0
C      1  0.4707960000000  0.4340620000000  0.5615360000000 1.0
C      1  0.5669720000000  0.5081520000000  0.5416860000000 1.0
C      1  0.5632930000000  0.4334330000000  0.4584780000000 1.0
C      1  0.5091050000000  0.5575110000000  0.4474060000000 1.0
C      1  0.5350800000000  0.4340170000000  0.4525270000000 1.0
C      1  0.4397480000000  0.5249610000000  0.4547490000000 1.0
C      1  0.5392160000000  0.4874220000000  0.5654930000000 1.0
C      1  0.5438970000000  0.4263880000000  0.5375040000000 1.0
C      1  0.5720080000000  0.4113120000000  0.4736000000000 1.0
C      1  0.4928410000000  0.6053440000000  0.5539670000000 1.0
C      1  0.4243540000000  0.5516880000000  0.5306200000000 1.0
C      1  0.4891060000000  0.5236880000000  0.4418540000000 1.0
C      1  0.5192290000000  0.4235400000000  0.4735890000000 1.0
C      1  0.5293470000000  0.4789530000000  0.5895220000000 1.0
C      1  0.4442570000000  0.5130170000000  0.5664730000000 1.0
C      1  0.5417040000000  0.5110160000000  0.4388540000000 1.0
C      1  0.5221840000000  0.5514290000000  0.5875090000000 1.0
C      1  0.5012670000000  0.5416970000000  0.4189520000000 1.0
C      1  0.5610480000000  0.5334680000000  0.4823960000000 1.0
C      1  0.5272430000000  0.4895060000000  0.5399250000000 1.0
C      1  0.5719730000000  0.4830870000000  0.5305620000000 1.0
C      1  0.4973950000000  0.4172180000000  0.4886180000000 1.0
C      1  0.5046820000000  0.4665370000000  0.4606640000000 1.0
C      1  0.4730330000000  0.4577040000000  0.4834580000000 1.0
C      1  0.4833190000000  0.5881920000000  0.5764880000000 1.0
C      1  0.4728120000000  0.4177870000000  0.4490830000000 1.0
C      1  0.4470080000000  0.4863290000000  0.4763960000000 1.0
C      1  0.4518040000000  0.4491880000000  0.4618330000000 1.0
C      1  0.4743760000000  0.5462320000000  0.4043650000000 1.0
C      1  0.4969670000000  0.5529990000000  0.4994830000000 1.0
C      1  0.4685950000000  0.5188020000000  0.4685780000000 1.0
C      1  0.5631410000000  0.4774380000000  0.4421790000000 1.0
C      1  0.5271290000000  0.5287140000000  0.4070040000000 1.0
C      1  0.5163710000000  0.4471530000000  0.4277780000000 1.0
C      1  0.5008920000000  0.5238760000000  0.5157520000000 1.0
C      1  0.5101800000000  0.4746010000000  0.4091350000000 1.0
C      1  0.5015960000000  0.5093050000000  0.4694150000000 1.0
C      1  0.5498210000000  0.4065240000000  0.5190070000000 1.0
C      1  0.4567890000000  0.5783180000000  0.5743030000000 1.0
C      1  0.4354380000000  0.4631780000000  0.4376310000000 1.0
C      1  0.5135920000000  0.5380580000000  0.6099900000000 1.0
C      1  0.4876000000000  0.4546580000000  0.5833570000000 1.0
C      1  0.5634880000000  0.4000690000000  0.4967050000000 1.0
C      1  0.5400090000000  0.4819860000000  0.4912070000000 1.0
C      1  0.5285680000000  0.5569250000000  0.5119740000000 1.0
C      1  0.4793390000000  0.5887680000000  0.4787080000000 1.0
C      1  0.5788020000000  0.4617430000000  0.5476770000000 1.0
C      1  0.4545110000000  0.5065390000000  0.5284360000000 1.0
C      1  0.4290860000000  0.4765460000000  0.5142100000000 1.0
C      1  0.4434300000000  0.5707960000000  0.5510890000000 1.0
C      1  0.5320540000000  0.4725560000000  0.4423600000000 1.0
C      1  0.4644150000000  0.4988200000000  0.5693760000000 1.0
C      1  0.5764550000000  0.4590240000000  0.4593610000000 1.0
C      1  0.4292130000000  0.5458450000000  0.4768650000000 1.0
C      1  0.5041640000000  0.4727800000000  0.6013300000000 1.0
C      1  0.4901180000000  0.4296020000000  0.4315820000000 1.0
C      1  0.5288880000000  0.5126480000000  0.5230580000000 1.0
C      1  0.5084440000000  0.5721670000000  0.5698050000000 1.0
C      1  0.4170710000000  0.5321560000000  0.5034380000000 1.0
C      1  0.5149990000000  0.4664390000000  0.4872490000000 1.0
C      1  0.5811830000000  0.5169530000000  0.4682240000000 1.0
C      1  0.5023530000000  0.5889010000000  0.5330940000000 1.0
C      1  0.5716530000000  0.5060330000000  0.4433200000000 1.0
C      1  0.4836380000000  0.5751410000000  0.5173930000000 1.0
C      1  0.5368270000000  0.5427020000000  0.4369130000000 1.0
C      1  0.4869900000000  0.5574440000000  0.4677090000000 1.0
C      1  0.5474990000000  0.5313000000000  0.5088630000000 1.0
C      1  0.4952830000000  0.4911800000000  0.6205230000000 1.0
C      1  0.4890210000000  0.5012690000000  0.4978940000000 1.0
C      1  0.5043760000000  0.4674610000000  0.5362960000000 1.0
C      1  0.4533730000000  0.4764730000000  0.5382390000000 1.0
C      1  0.4820260000000  0.4810790000000  0.4084060000000 1.0
C      1  0.4509250000000  0.5732360000000  0.4745020000000 1.0
C      1  0.4582780000000  0.5528870000000  0.4506340000000 1.0
C      1  0.4925860000000  0.4147530000000  0.5506040000000 1.0
C      1  0.5399220000000  0.5494180000000  0.5625330000000 1.0
C      1  0.4273620000000  0.5213970000000  0.5399820000000 1.0
C      1  0.4757790000000  0.4806620000000  0.4591190000000 1.0
C      1  0.4928070000000  0.4699810000000  0.5082990000000 1.0
C      1  0.4785830000000  0.5202660000000  0.5378900000000 1.0
C      1  0.5653990000000  0.4384050000000  0.5508370000000 1.0
C      1  0.5454330000000  0.5529360000000  0.4662090000000 1.0
C      1  0.4497980000000  0.4275310000000  0.4952910000000 1.0
C      1  0.5086320000000  0.5891840000000  0.4786820000000 1.0
C      1  0.4492260000000  0.4833450000000  0.4178720000000 1.0
C      1  0.5862130000000  0.4721380000000  0.4840890000000 1.0
C      1  0.4708120000000  0.4179720000000  0.4779860000000 1.0
C      1  0.4411250000000  0.4467390000000  0.5147680000000 1.0
C      1  0.5570780000000  0.5296810000000  0.5538720000000 1.0
C      1  0.4531510000000  0.5411960000000  0.4210230000000 1.0
C      1  0.4178640000000  0.5021640000000  0.5133150000000 1.0
C      1  0.5078300000000  0.4310990000000  0.5748330000000 1.0
C      1  0.5167680000000  0.4375600000000  0.5430820000000 1.0
C      1  0.4573850000000  0.5062230000000  0.4981400000000 1.0
C      1  0.4738780000000  0.4975020000000  0.4350070000000 1.0
C      1  0.5290120000000  0.5698500000000  0.4825590000000 1.0
END
