TITL C-2778430-5657-8 0.181410625752193 125000 -232.274721510023 0 0 41 (C1) n - 1
REM
REM in /home/nfs/bkarasulu/CARBON/AIRSS/Generating-Clusters/REBO/Only-C1/SD-CG/HFTN-CG
REM
REM
REM
REM
REM
REM ./C.cell (11c1c37f851c82e70ff6c80c92926a4b)
REM
REM compiler GCC version 9.2.1 20190827 (Red Hat 9.2.1-1)
REM options -cpp -mtune=generic -march=x86-64 -g -O0 -fpre-include=/usr/include/finclude/math-vector-fortran.h
REM seed 781335592 -1077959781 -1494643112 1084434213 40706835 -1645093601 367848483 1376948072 706198434 -1511308177 -1969932322 -101366768 -1784313542 111170567 -547179069 1415506715 -1056824445 2078106935 531512766 1118324258 599590768 190914310 -1470822430 -948588140 -258649611 520920870 -210464513 1205871853 432377943 1494229048 -369789423 152000683 1026869786
REM
CELL 1.54180   50.00000   50.00000   50.00000   90.00000   90.00000   90.00000
LATT -1
SFAC C  
C      1  0.4742070000000  0.4358090000000  0.4931670000000 1.0
C      1  0.5073280000000  0.4659250000000  0.4997420000000 1.0
C      1  0.5297560000000  0.5607250000000  0.5292220000000 1.0
C      1  0.4535500000000  0.5361650000000  0.4888600000000 1.0
C      1  0.4641440000000  0.5617510000000  0.4947620000000 1.0
C      1  0.4647850000000  0.5812730000000  0.4757110000000 1.0
C      1  0.5161300000000  0.5244000000000  0.4561160000000 1.0
C      1  0.5028890000000  0.5608260000000  0.4849060000000 1.0
C      1  0.5197990000000  0.4426070000000  0.5029040000000 1.0
C      1  0.4845350000000  0.4660070000000  0.4470300000000 1.0
C      1  0.4505530000000  0.5090260000000  0.4813670000000 1.0
C      1  0.5042120000000  0.5147390000000  0.5017010000000 1.0
C      1  0.4739870000000  0.5393290000000  0.5599460000000 1.0
C      1  0.4925680000000  0.4656180000000  0.5368620000000 1.0
C      1  0.5394630000000  0.5080140000000  0.4560020000000 1.0
C      1  0.4927620000000  0.4894950000000  0.4962230000000 1.0
C      1  0.4768440000000  0.5665020000000  0.5205180000000 1.0
C      1  0.5362530000000  0.4806500000000  0.4671890000000 1.0
C      1  0.4909950000000  0.4445820000000  0.4701430000000 1.0
C      1  0.4371140000000  0.5694220000000  0.5492640000000 1.0
C      1  0.4682810000000  0.4626480000000  0.5128100000000 1.0
C      1  0.5137570000000  0.5160390000000  0.5302150000000 1.0
C      1  0.5059470000000  0.5340880000000  0.4810440000000 1.0
C      1  0.5378500000000  0.5335500000000  0.5305730000000 1.0
C      1  0.5322700000000  0.4192900000000  0.5060650000000 1.0
C      1  0.5534240000000  0.4792010000000  0.4912850000000 1.0
C      1  0.4915790000000  0.5190490000000  0.5548480000000 1.0
C      1  0.5141350000000  0.4651510000000  0.4603770000000 1.0
C      1  0.4619000000000  0.5594540000000  0.5443100000000 1.0
C      1  0.4994810000000  0.4897100000000  0.5464250000000 1.0
C      1  0.5608000000000  0.5216210000000  0.5190770000000 1.0
C      1  0.5562630000000  0.4581930000000  0.5080900000000 1.0
C      1  0.4480580000000  0.5012210000000  0.4540870000000 1.0
C      1  0.4628100000000  0.4892540000000  0.4976610000000 1.0
C      1  0.4855790000000  0.4363160000000  0.5252130000000 1.0
C      1  0.5656630000000  0.5061920000000  0.4956090000000 1.0
C      1  0.4636400000000  0.4830390000000  0.4407720000000 1.0
C      1  0.5047920000000  0.5705770000000  0.5236230000000 1.0
C      1  0.5626330000000  0.5194340000000  0.4696770000000 1.0
C      1  0.4547230000000  0.4167620000000  0.4874270000000 1.0
C      1  0.5445420000000  0.3963440000000  0.5091760000000 1.0
END
