TITL C-2778428-5639-1299 -0.000235199767604938 125000 -736.372440977096 0 0 129 (C1) n - 1
REM
REM in /home/nfs/bkarasulu/CARBON/AIRSS/Generating-Clusters/REBO/Only-C1/SD-CG/HFTN-CG
REM
REM
REM
REM
REM
REM ./C.cell (11c1c37f851c82e70ff6c80c92926a4b)
REM
REM compiler GCC version 9.2.1 20190827 (Red Hat 9.2.1-1)
REM options -cpp -mtune=generic -march=x86-64 -g -O0 -fpre-include=/usr/include/finclude/math-vector-fortran.h
REM seed -1750193212 119442190 45013746 758975774 -869442283 -296926105 1522494375 95554205 1790741514 -1743816283 -385255508 -1312385995 -1458280248 -680138009 281880009 -21284616 1387655834 1134914809 432968265 746725732 -720663499 42392744 -311116427 -100794960 2090128748 2128065930 -1477002267 1682771033 1345363268 -925727381 -1793629386 1646416927 -857237766
REM
CELL 1.54180   50.00000   50.00000   50.00000   90.00000   90.00000   90.00000
LATT -1
SFAC C  
C      1  0.4700240000000  0.5179060000000  0.4122590000000 1.0
C      1  0.5235180000000  0.5410350000000  0.4608130000000 1.0
C      1  0.4628840000000  0.4900020000000  0.5021850000000 1.0
C      1  0.5256360000000  0.4087100000000  0.5203700000000 1.0
C      1  0.4864170000000  0.4726380000000  0.5159770000000 1.0
C      1  0.5482770000000  0.5184560000000  0.4648470000000 1.0
C      1  0.4215190000000  0.4434840000000  0.4608550000000 1.0
C      1  0.4394030000000  0.4692640000000  0.5145890000000 1.0
C      1  0.4947850000000  0.6116830000000  0.5151430000000 1.0
C      1  0.5653390000000  0.5101240000000  0.5154650000000 1.0
C      1  0.5147390000000  0.5119010000000  0.4942630000000 1.0
C      1  0.4910470000000  0.6025140000000  0.5381510000000 1.0
C      1  0.5329830000000  0.5409550000000  0.5357650000000 1.0
C      1  0.3909200000000  0.4565560000000  0.5080350000000 1.0
C      1  0.5400250000000  0.5299180000000  0.5042410000000 1.0
C      1  0.4392230000000  0.5069460000000  0.5557930000000 1.0
C      1  0.5845580000000  0.4883140000000  0.4498440000000 1.0
C      1  0.5618250000000  0.4362940000000  0.4270220000000 1.0
C      1  0.4988350000000  0.5660410000000  0.4420510000000 1.0
C      1  0.4380410000000  0.5672180000000  0.4473460000000 1.0
C      1  0.5291860000000  0.4453800000000  0.4278390000000 1.0
C      1  0.4102790000000  0.4987150000000  0.4549580000000 1.0
C      1  0.5716960000000  0.4769190000000  0.5681870000000 1.0
C      1  0.4512290000000  0.5668140000000  0.5351910000000 1.0
C      1  0.4868100000000  0.4441170000000  0.5031890000000 1.0
C      1  0.5577710000000  0.4460460000000  0.4786500000000 1.0
C      1  0.5640760000000  0.5035730000000  0.4315080000000 1.0
C      1  0.4466310000000  0.4866710000000  0.4660080000000 1.0
C      1  0.4003640000000  0.4883210000000  0.4858570000000 1.0
C      1  0.4327100000000  0.4653560000000  0.4829910000000 1.0
C      1  0.4817740000000  0.5519360000000  0.4999250000000 1.0
C      1  0.5554880000000  0.5550720000000  0.4924310000000 1.0
C      1  0.4731840000000  0.5096050000000  0.5352810000000 1.0
C      1  0.4452620000000  0.5867160000000  0.4949620000000 1.0
C      1  0.4038400000000  0.4462460000000  0.4859280000000 1.0
C      1  0.5212680000000  0.4861890000000  0.4735790000000 1.0
C      1  0.4768510000000  0.4083080000000  0.4888150000000 1.0
C      1  0.5370460000000  0.4433920000000  0.5040770000000 1.0
C      1  0.4682400000000  0.5703290000000  0.4548610000000 1.0
C      1  0.5693500000000  0.4338020000000  0.5306420000000 1.0
C      1  0.4791910000000  0.5192360000000  0.5859080000000 1.0
C      1  0.5744600000000  0.4948690000000  0.5447240000000 1.0
C      1  0.4277630000000  0.4947080000000  0.4319160000000 1.0
C      1  0.4655470000000  0.4238490000000  0.5153870000000 1.0
C      1  0.4841320000000  0.4571050000000  0.5438790000000 1.0
C      1  0.4625560000000  0.4827060000000  0.5508720000000 1.0
C      1  0.4151340000000  0.5172040000000  0.4831600000000 1.0
C      1  0.5369210000000  0.5078300000000  0.5433060000000 1.0
C      1  0.5418210000000  0.4796280000000  0.5244770000000 1.0
C      1  0.5319270000000  0.5338480000000  0.5901150000000 1.0
C      1  0.4542420000000  0.4214360000000  0.4349920000000 1.0
C      1  0.5150080000000  0.4922580000000  0.4117530000000 1.0
C      1  0.5384570000000  0.4422910000000  0.5373090000000 1.0
C      1  0.5232820000000  0.5788760000000  0.5747420000000 1.0
C      1  0.5745230000000  0.4743390000000  0.4770580000000 1.0
C      1  0.4447350000000  0.5268930000000  0.5303860000000 1.0
C      1  0.4376540000000  0.4427550000000  0.4383080000000 1.0
C      1  0.5082840000000  0.4376290000000  0.4489160000000 1.0
C      1  0.5115210000000  0.4139720000000  0.5453720000000 1.0
C      1  0.4987700000000  0.5981160000000  0.4862280000000 1.0
C      1  0.4472450000000  0.5182360000000  0.4914310000000 1.0
C      1  0.4157520000000  0.5324220000000  0.5126050000000 1.0
C      1  0.4872840000000  0.5238890000000  0.5091490000000 1.0
C      1  0.4876150000000  0.4964740000000  0.4182020000000 1.0
C      1  0.5020430000000  0.5361630000000  0.5893940000000 1.0
C      1  0.5785660000000  0.5257270000000  0.4784930000000 1.0
C      1  0.5117370000000  0.4258660000000  0.4969880000000 1.0
C      1  0.5221120000000  0.4651330000000  0.4058340000000 1.0
C      1  0.5644260000000  0.5232690000000  0.5529730000000 1.0
C      1  0.5201370000000  0.5699220000000  0.5255710000000 1.0
C      1  0.5683920000000  0.5523280000000  0.4605170000000 1.0
C      1  0.5423930000000  0.5584960000000  0.5775480000000 1.0
C      1  0.5055100000000  0.4108600000000  0.4698870000000 1.0
C      1  0.5344050000000  0.5150960000000  0.4188050000000 1.0
C      1  0.5173630000000  0.5407480000000  0.4281320000000 1.0
C      1  0.4126050000000  0.5066490000000  0.5345740000000 1.0
C      1  0.4845130000000  0.4444120000000  0.4731710000000 1.0
C      1  0.5079610000000  0.5413740000000  0.5590520000000 1.0
C      1  0.5558080000000  0.4490780000000  0.5717630000000 1.0
C      1  0.4776560000000  0.4989520000000  0.4726480000000 1.0
C      1  0.5063290000000  0.5693950000000  0.5000450000000 1.0
C      1  0.5045200000000  0.5139980000000  0.5435660000000 1.0
C      1  0.5003520000000  0.4686410000000  0.4603700000000 1.0
C      1  0.4467750000000  0.5200420000000  0.4590890000000 1.0
C      1  0.4614260000000  0.4150240000000  0.5678720000000 1.0
C      1  0.4487550000000  0.4707300000000  0.4363050000000 1.0
C      1  0.4846010000000  0.5436970000000  0.4205500000000 1.0
C      1  0.5492690000000  0.4900580000000  0.4927790000000 1.0
C      1  0.5010880000000  0.4565730000000  0.5734800000000 1.0
C      1  0.4783910000000  0.4822410000000  0.4426140000000 1.0
C      1  0.5478090000000  0.5810870000000  0.5253360000000 1.0
C      1  0.4711670000000  0.5791520000000  0.4836920000000 1.0
C      1  0.5900540000000  0.4794000000000  0.5043920000000 1.0
C      1  0.4678720000000  0.5574770000000  0.5552250000000 1.0
C      1  0.4093380000000  0.4814320000000  0.5179960000000 1.0
C      1  0.4681440000000  0.4646010000000  0.5791800000000 1.0
C      1  0.5723330000000  0.5620040000000  0.5211600000000 1.0
C      1  0.5177930000000  0.4858890000000  0.5789410000000 1.0
C      1  0.4603490000000  0.5310460000000  0.5672810000000 1.0
C      1  0.4984170000000  0.5728580000000  0.5521990000000 1.0
C      1  0.4213800000000  0.5624280000000  0.4973130000000 1.0
C      1  0.5389420000000  0.5059590000000  0.5906860000000 1.0
C      1  0.5648910000000  0.4941570000000  0.5909350000000 1.0
C      1  0.5858640000000  0.5356360000000  0.5096500000000 1.0
C      1  0.4415580000000  0.5175400000000  0.4196740000000 1.0
C      1  0.5511230000000  0.4569260000000  0.4499010000000 1.0
C      1  0.5221700000000  0.4561000000000  0.3796010000000 1.0
C      1  0.4198960000000  0.5741620000000  0.4668950000000 1.0
C      1  0.4476080000000  0.4458180000000  0.5323880000000 1.0
C      1  0.6001070000000  0.5070190000000  0.4971650000000 1.0
C      1  0.5536730000000  0.5794030000000  0.4705180000000 1.0
C      1  0.5606070000000  0.5538370000000  0.5516230000000 1.0
C      1  0.4961250000000  0.5256360000000  0.4686640000000 1.0
C      1  0.5160700000000  0.5735440000000  0.4690390000000 1.0
C      1  0.5552040000000  0.4100610000000  0.5161190000000 1.0
C      1  0.5619370000000  0.4152820000000  0.4880350000000 1.0
C      1  0.5714770000000  0.4628200000000  0.5217720000000 1.0
C      1  0.5561600000000  0.5360470000000  0.4355810000000 1.0
C      1  0.4514270000000  0.4425270000000  0.5614570000000 1.0
C      1  0.4513630000000  0.5489200000000  0.5062770000000 1.0
C      1  0.4821250000000  0.4243010000000  0.5435040000000 1.0
C      1  0.4861170000000  0.4917130000000  0.5847590000000 1.0
C      1  0.5341660000000  0.4703250000000  0.5563230000000 1.0
C      1  0.5099450000000  0.4905330000000  0.5195110000000 1.0
C      1  0.4727500000000  0.5373560000000  0.4516480000000 1.0
C      1  0.5254270000000  0.4335290000000  0.5676940000000 1.0
C      1  0.4346720000000  0.5415830000000  0.4367320000000 1.0
C      1  0.5450370000000  0.4866580000000  0.4531510000000 1.0
C      1  0.4748860000000  0.4167260000000  0.4558760000000 1.0
END
