TITL C-2778424-3986-23 0.000259694826847259 125000 -144.014474971201 0 0 26 (C1) n - 1
REM
REM in /home/nfs/bkarasulu/CARBON/AIRSS/Generating-Clusters/REBO/Only-C1/SD-CG/HFTN-CG
REM
REM
REM
REM
REM
REM ./C.cell (11c1c37f851c82e70ff6c80c92926a4b)
REM
REM compiler GCC version 9.2.1 20190827 (Red Hat 9.2.1-1)
REM options -cpp -mtune=generic -march=x86-64 -g -O0 -fpre-include=/usr/include/finclude/math-vector-fortran.h
REM seed -1119754636 670530409 -262691180 1667457057 -1946945078 265510746 707336344 -1861689639 352684111 1096345511 1520019237 -166108916 1538645074 -1759397597 -1887361450 -1512840257 -132138051 -1500553584 -1914726646 -2138161307 200769036 758807118 1025136624 42888531 -1937122237 -532259070 -1742122219 -1206184452 -1499089105 1367765779 -1663064249 -1413998969 1483394601
REM
CELL 1.54180   50.00000   50.00000   50.00000   90.00000   90.00000   90.00000
LATT -1
SFAC C  
C      1  0.4430230000000  0.5172400000000  0.5085040000000 1.0
C      1  0.4979320000000  0.4617330000000  0.5151180000000 1.0
C      1  0.4068760000000  0.5534000000000  0.5218340000000 1.0
C      1  0.5194850000000  0.4978600000000  0.5411590000000 1.0
C      1  0.4702230000000  0.4530580000000  0.5128230000000 1.0
C      1  0.5288750000000  0.5307490000000  0.5037790000000 1.0
C      1  0.5109410000000  0.4703130000000  0.5396180000000 1.0
C      1  0.5071930000000  0.4823520000000  0.4404200000000 1.0
C      1  0.5537590000000  0.5155950000000  0.4905400000000 1.0
C      1  0.4988310000000  0.5623860000000  0.4700320000000 1.0
C      1  0.5357230000000  0.5073560000000  0.5617060000000 1.0
C      1  0.4619950000000  0.4982620000000  0.5015080000000 1.0
C      1  0.4909260000000  0.5010470000000  0.5029200000000 1.0
C      1  0.4931730000000  0.4713920000000  0.4628060000000 1.0
C      1  0.5170290000000  0.5444740000000  0.4774740000000 1.0
C      1  0.5258770000000  0.5026660000000  0.4468220000000 1.0
C      1  0.4558860000000  0.4700170000000  0.4935060000000 1.0
C      1  0.5509990000000  0.5162890000000  0.5810360000000 1.0
C      1  0.5755880000000  0.5020250000000  0.4973730000000 1.0
C      1  0.5014120000000  0.4752730000000  0.4148190000000 1.0
C      1  0.5045520000000  0.4771190000000  0.4890800000000 1.0
C      1  0.5350310000000  0.5212880000000  0.4656870000000 1.0
C      1  0.5139680000000  0.4533190000000  0.5606790000000 1.0
C      1  0.4652130000000  0.4648120000000  0.4662130000000 1.0
C      1  0.4248050000000  0.5354650000000  0.5152230000000 1.0
C      1  0.5106860000000  0.5145110000000  0.5193210000000 1.0
END
