TITL C-2778423-5760-1429 -0.0096009728669658 125000 -201.326697283714 0 0 36 (C1) n - 1
REM
REM in /home/nfs/bkarasulu/CARBON/AIRSS/Generating-Clusters/REBO/Only-C1/SD-CG/HFTN-CG
REM
REM
REM
REM
REM
REM ./C.cell (11c1c37f851c82e70ff6c80c92926a4b)
REM
REM compiler GCC version 9.2.1 20190827 (Red Hat 9.2.1-1)
REM options -cpp -mtune=generic -march=x86-64 -g -O0 -fpre-include=/usr/include/finclude/math-vector-fortran.h
REM seed 1543013737 1871623827 87282515 -130952081 2060505396 -425683557 -1096398049 1447126391 2022184415 1647437279 -540587039 2043684109 -273960525 -1403636034 1615045869 1935426735 582893256 818421290 -1290717193 -802194947 823241966 350216766 -1774688267 -584409468 -161245808 761268287 -433644877 682985636 -1829578448 1823940221 1068530480 -487586099 980451213
REM
CELL 1.54180   50.00000   50.00000   50.00000   90.00000   90.00000   90.00000
LATT -1
SFAC C  
C      1  0.4983810000000  0.5396150000000  0.5029550000000 1.0
C      1  0.4998560000000  0.4760440000000  0.4453530000000 1.0
C      1  0.4628070000000  0.5196130000000  0.5397560000000 1.0
C      1  0.4680740000000  0.5259200000000  0.4327090000000 1.0
C      1  0.4649890000000  0.4911290000000  0.5674980000000 1.0
C      1  0.5441170000000  0.4874890000000  0.4638880000000 1.0
C      1  0.4900440000000  0.5438490000000  0.5560180000000 1.0
C      1  0.5264360000000  0.4840630000000  0.4432250000000 1.0
C      1  0.5038150000000  0.4695180000000  0.5498410000000 1.0
C      1  0.4749840000000  0.4725570000000  0.5475860000000 1.0
C      1  0.4967450000000  0.5145500000000  0.5430160000000 1.0
C      1  0.5062640000000  0.5512540000000  0.5304170000000 1.0
C      1  0.5384180000000  0.4975180000000  0.5237920000000 1.0
C      1  0.4793190000000  0.4431850000000  0.5098680000000 1.0
C      1  0.4855570000000  0.5488560000000  0.4278250000000 1.0
C      1  0.4659100000000  0.4901090000000  0.4977770000000 1.0
C      1  0.4812100000000  0.5103560000000  0.4530490000000 1.0
C      1  0.5368130000000  0.5517770000000  0.5327480000000 1.0
C      1  0.5425850000000  0.4397640000000  0.5137520000000 1.0
C      1  0.5226950000000  0.5155030000000  0.4823300000000 1.0
C      1  0.4998630000000  0.4455670000000  0.4903250000000 1.0
C      1  0.4553590000000  0.5171960000000  0.5132530000000 1.0
C      1  0.5332030000000  0.4855710000000  0.4948590000000 1.0
C      1  0.5492230000000  0.5237040000000  0.5233240000000 1.0
C      1  0.5164700000000  0.4936860000000  0.5417230000000 1.0
C      1  0.5252690000000  0.4558340000000  0.4990760000000 1.0
C      1  0.5318920000000  0.5403400000000  0.5005590000000 1.0
C      1  0.5063060000000  0.5227140000000  0.4608020000000 1.0
C      1  0.5589030000000  0.4246210000000  0.5275820000000 1.0
C      1  0.4701530000000  0.5218970000000  0.5716040000000 1.0
C      1  0.4899490000000  0.4551630000000  0.4659490000000 1.0
C      1  0.4744420000000  0.4841030000000  0.4681550000000 1.0
C      1  0.4794320000000  0.5218960000000  0.4944860000000 1.0
C      1  0.4445220000000  0.5207140000000  0.4205620000000 1.0
C      1  0.4676740000000  0.4673420000000  0.5197290000000 1.0
C      1  0.5083190000000  0.5469860000000  0.4446060000000 1.0
END
