TITL C-2778429-3646-693 0.00138189208039452 125000 -926.098257562961 0 0 159 (C1) n - 1
REM
REM in /home/nfs/bkarasulu/CARBON/AIRSS/Generating-Clusters/REBO/Only-C1/SD-CG/HFTN-CG
REM
REM
REM
REM
REM
REM ./C.cell (11c1c37f851c82e70ff6c80c92926a4b)
REM
REM compiler GCC version 9.2.1 20190827 (Red Hat 9.2.1-1)
REM options -cpp -mtune=generic -march=x86-64 -g -O0 -fpre-include=/usr/include/finclude/math-vector-fortran.h
REM seed 1004042555 1480515398 241358281 1016052502 -1523342290 -1056574276 1451799797 -444051237 774717360 -686430527 -333417375 -1914856499 -1260451576 59905466 1515743561 1808486425 -810207497 233169166 1687245784 -2041907973 -2025300994 -1417795354 -1724693710 -311681232 1452839426 -1769235219 979138642 -1893405589 588595484 2122544844 -377710801 1455017407 -2012604854
REM
CELL 1.54180   50.00000   50.00000   50.00000   90.00000   90.00000   90.00000
LATT -1
SFAC C  
C      1  0.5134880000000  0.4824440000000  0.4472100000000 1.0
C      1  0.5630060000000  0.5598340000000  0.5158270000000 1.0
C      1  0.4880740000000  0.3952100000000  0.5107000000000 1.0
C      1  0.4574210000000  0.4573440000000  0.5211760000000 1.0
C      1  0.4376010000000  0.5396190000000  0.5160220000000 1.0
C      1  0.5516900000000  0.4067370000000  0.4894040000000 1.0
C      1  0.4439250000000  0.4856610000000  0.5140290000000 1.0
C      1  0.4934770000000  0.5050890000000  0.5519950000000 1.0
C      1  0.5806720000000  0.5077170000000  0.4455200000000 1.0
C      1  0.4752420000000  0.5814820000000  0.4453790000000 1.0
C      1  0.4974090000000  0.5298200000000  0.4404900000000 1.0
C      1  0.5144520000000  0.5323440000000  0.5964780000000 1.0
C      1  0.4791680000000  0.5545180000000  0.4249850000000 1.0
C      1  0.5306820000000  0.4956760000000  0.5133970000000 1.0
C      1  0.5111350000000  0.4126650000000  0.5286160000000 1.0
C      1  0.4297560000000  0.5926210000000  0.5296950000000 1.0
C      1  0.4480240000000  0.4767900000000  0.5826220000000 1.0
C      1  0.4611030000000  0.5937190000000  0.5289020000000 1.0
C      1  0.5054500000000  0.4195810000000  0.5619960000000 1.0
C      1  0.4663040000000  0.5188760000000  0.5498620000000 1.0
C      1  0.4456960000000  0.5024240000000  0.5399510000000 1.0
C      1  0.5692500000000  0.4192730000000  0.5128380000000 1.0
C      1  0.4723170000000  0.4229720000000  0.5542340000000 1.0
C      1  0.5912660000000  0.4422290000000  0.5370800000000 1.0
C      1  0.5035300000000  0.4806900000000  0.5110650000000 1.0
C      1  0.4864320000000  0.4349570000000  0.4830300000000 1.0
C      1  0.3970630000000  0.4848760000000  0.4408050000000 1.0
C      1  0.4904860000000  0.5436190000000  0.4892200000000 1.0
C      1  0.4992070000000  0.4944100000000  0.5785210000000 1.0
C      1  0.5080090000000  0.4943580000000  0.3988290000000 1.0
C      1  0.4804360000000  0.4840910000000  0.4491590000000 1.0
C      1  0.4940000000000  0.4654120000000  0.4907310000000 1.0
C      1  0.5106690000000  0.6129590000000  0.4771660000000 1.0
C      1  0.5117950000000  0.5373170000000  0.5222990000000 1.0
C      1  0.5683440000000  0.5047840000000  0.5219870000000 1.0
C      1  0.5354200000000  0.5160950000000  0.6113700000000 1.0
C      1  0.6073880000000  0.4725800000000  0.5045670000000 1.0
C      1  0.4932760000000  0.5564140000000  0.5881910000000 1.0
C      1  0.4153990000000  0.4675020000000  0.5410650000000 1.0
C      1  0.5596880000000  0.4836880000000  0.4357070000000 1.0
C      1  0.5614710000000  0.5184070000000  0.5953500000000 1.0
C      1  0.5480960000000  0.5107590000000  0.5464450000000 1.0
C      1  0.4413740000000  0.4213750000000  0.5107100000000 1.0
C      1  0.5916550000000  0.5506700000000  0.5086820000000 1.0
C      1  0.5299170000000  0.5600000000000  0.5130550000000 1.0
C      1  0.4341640000000  0.5290680000000  0.5711590000000 1.0
C      1  0.4642030000000  0.4066530000000  0.5294940000000 1.0
C      1  0.5171040000000  0.5880370000000  0.5218790000000 1.0
C      1  0.5550470000000  0.5670840000000  0.4833100000000 1.0
C      1  0.4279470000000  0.4346710000000  0.4911110000000 1.0
C      1  0.5136150000000  0.4460430000000  0.5333600000000 1.0
C      1  0.4002830000000  0.5024640000000  0.4933760000000 1.0
C      1  0.4411720000000  0.4512440000000  0.5454040000000 1.0
C      1  0.5169970000000  0.5258820000000  0.4914070000000 1.0
C      1  0.5526130000000  0.4954740000000  0.5739790000000 1.0
C      1  0.4472790000000  0.5532150000000  0.4127300000000 1.0
C      1  0.4760780000000  0.5534030000000  0.4644500000000 1.0
C      1  0.4711450000000  0.5925780000000  0.4963840000000 1.0
C      1  0.5852550000000  0.5311740000000  0.4667380000000 1.0
C      1  0.5567090000000  0.4102530000000  0.4624190000000 1.0
C      1  0.5894720000000  0.4670450000000  0.5549960000000 1.0
C      1  0.3995970000000  0.5498730000000  0.5221620000000 1.0
C      1  0.4729490000000  0.4322080000000  0.5096320000000 1.0
C      1  0.4823770000000  0.5472770000000  0.5274530000000 1.0
C      1  0.4978370000000  0.3970300000000  0.4781210000000 1.0
C      1  0.5079900000000  0.5634570000000  0.4592910000000 1.0
C      1  0.4460420000000  0.4508930000000  0.4721570000000 1.0
C      1  0.4837660000000  0.4701720000000  0.4033690000000 1.0
C      1  0.4074170000000  0.4980640000000  0.4662720000000 1.0
C      1  0.5512610000000  0.5272770000000  0.4685660000000 1.0
C      1  0.5003960000000  0.5248570000000  0.4090710000000 1.0
C      1  0.5253930000000  0.4839870000000  0.6165030000000 1.0
C      1  0.4713800000000  0.5342460000000  0.3984510000000 1.0
C      1  0.4871300000000  0.6007570000000  0.4702450000000 1.0
C      1  0.5656070000000  0.4680780000000  0.5706090000000 1.0
C      1  0.4773910000000  0.5135770000000  0.4612740000000 1.0
C      1  0.4353250000000  0.4965060000000  0.4649980000000 1.0
C      1  0.5923990000000  0.4419440000000  0.5029330000000 1.0
C      1  0.4922080000000  0.5720630000000  0.5082040000000 1.0
C      1  0.5935720000000  0.4915250000000  0.5415490000000 1.0
C      1  0.5043000000000  0.4047080000000  0.4453410000000 1.0
C      1  0.5192010000000  0.4512820000000  0.4592880000000 1.0
C      1  0.5432450000000  0.4521740000000  0.5606880000000 1.0
C      1  0.4901150000000  0.4801850000000  0.5354890000000 1.0
C      1  0.5189490000000  0.5212270000000  0.5454170000000 1.0
C      1  0.4634820000000  0.4347510000000  0.4387440000000 1.0
C      1  0.5574330000000  0.5133750000000  0.4208430000000 1.0
C      1  0.5562700000000  0.4584890000000  0.4874810000000 1.0
C      1  0.4231850000000  0.5299000000000  0.4191720000000 1.0
C      1  0.4882240000000  0.4529560000000  0.5489490000000 1.0
C      1  0.5066010000000  0.4464710000000  0.4140820000000 1.0
C      1  0.4567010000000  0.5466930000000  0.5577400000000 1.0
C      1  0.5228950000000  0.6113780000000  0.5019610000000 1.0
C      1  0.4649240000000  0.5283630000000  0.5063620000000 1.0
C      1  0.4520590000000  0.5105610000000  0.5888740000000 1.0
C      1  0.4583240000000  0.5016290000000  0.4876090000000 1.0
C      1  0.4958500000000  0.5740620000000  0.5665820000000 1.0
C      1  0.4372180000000  0.5688890000000  0.5093150000000 1.0
C      1  0.4579810000000  0.4470230000000  0.5739420000000 1.0
C      1  0.4256180000000  0.5576000000000  0.4388070000000 1.0
C      1  0.5635820000000  0.4562150000000  0.5266570000000 1.0
C      1  0.4072540000000  0.4596180000000  0.4557090000000 1.0
C      1  0.5673730000000  0.5659320000000  0.4588760000000 1.0
C      1  0.5596650000000  0.5416540000000  0.4387110000000 1.0
C      1  0.5173410000000  0.5634450000000  0.4323430000000 1.0
C      1  0.4302880000000  0.4873090000000  0.5587110000000 1.0
C      1  0.5453530000000  0.4342220000000  0.4458070000000 1.0
C      1  0.4019720000000  0.5831720000000  0.5203460000000 1.0
C      1  0.4205790000000  0.5354930000000  0.5448120000000 1.0
C      1  0.4084870000000  0.4563020000000  0.4847020000000 1.0
C      1  0.5968990000000  0.5505370000000  0.4810030000000 1.0
C      1  0.5231020000000  0.5145080000000  0.4537090000000 1.0
C      1  0.5348480000000  0.4723450000000  0.5344870000000 1.0
C      1  0.4656260000000  0.4690380000000  0.4829400000000 1.0
C      1  0.4511460000000  0.5351060000000  0.4592680000000 1.0
C      1  0.4453710000000  0.5792180000000  0.4840910000000 1.0
C      1  0.5180890000000  0.4249470000000  0.4293970000000 1.0
C      1  0.4729310000000  0.5714220000000  0.5467220000000 1.0
C      1  0.5209300000000  0.4097430000000  0.4960860000000 1.0
C      1  0.5511870000000  0.5550660000000  0.5473740000000 1.0
C      1  0.4560380000000  0.4598090000000  0.4176920000000 1.0
C      1  0.5199680000000  0.4732920000000  0.4187510000000 1.0
C      1  0.5558340000000  0.4109050000000  0.5427030000000 1.0
C      1  0.4912960000000  0.4440760000000  0.5818180000000 1.0
C      1  0.4690970000000  0.5008610000000  0.4051780000000 1.0
C      1  0.5235310000000  0.5744810000000  0.5509700000000 1.0
C      1  0.5372050000000  0.4247920000000  0.5575630000000 1.0
C      1  0.5494240000000  0.5225180000000  0.5022530000000 1.0
C      1  0.5250310000000  0.4877460000000  0.5855620000000 1.0
C      1  0.5320240000000  0.5184000000000  0.4015710000000 1.0
C      1  0.4338510000000  0.4495120000000  0.4416960000000 1.0
C      1  0.5934130000000  0.5213140000000  0.5483500000000 1.0
C      1  0.5679330000000  0.4550200000000  0.4460950000000 1.0
C      1  0.5868270000000  0.4586780000000  0.4736670000000 1.0
C      1  0.5680420000000  0.5311230000000  0.5645080000000 1.0
C      1  0.6014610000000  0.5269950000000  0.5204120000000 1.0
C      1  0.4806440000000  0.5270360000000  0.5959770000000 1.0
C      1  0.4447710000000  0.5767860000000  0.4564060000000 1.0
C      1  0.4753360000000  0.4876560000000  0.5974790000000 1.0
C      1  0.4989470000000  0.4656730000000  0.6059820000000 1.0
C      1  0.4873170000000  0.4529670000000  0.4535050000000 1.0
C      1  0.5298580000000  0.4959740000000  0.4804990000000 1.0
C      1  0.4488550000000  0.4861300000000  0.4362960000000 1.0
C      1  0.4215990000000  0.5471540000000  0.4711040000000 1.0
C      1  0.5907740000000  0.4925040000000  0.4743610000000 1.0
C      1  0.6043600000000  0.5047000000000  0.5022750000000 1.0
C      1  0.5310440000000  0.4406750000000  0.4855810000000 1.0
C      1  0.5250540000000  0.5647960000000  0.4806560000000 1.0
C      1  0.5347410000000  0.5461760000000  0.4204280000000 1.0
C      1  0.4111830000000  0.4779410000000  0.5089450000000 1.0
C      1  0.5250660000000  0.5442270000000  0.5672220000000 1.0
C      1  0.4121250000000  0.5290040000000  0.4985000000000 1.0
C      1  0.5754210000000  0.4777600000000  0.5081510000000 1.0
C      1  0.4530690000000  0.5180210000000  0.4299320000000 1.0
C      1  0.4186230000000  0.4969300000000  0.4233760000000 1.0
C      1  0.4017660000000  0.5659170000000  0.4915430000000 1.0
C      1  0.5576390000000  0.4856260000000  0.4694920000000 1.0
C      1  0.5402850000000  0.4371470000000  0.5169960000000 1.0
C      1  0.4765630000000  0.4149820000000  0.4586540000000 1.0
END
