TITL C-2778429-3646-607 -8.69582142212129e-06 125000 -91.6209019180808 0 0 18 (C1) n - 1
REM
REM in /home/nfs/bkarasulu/CARBON/AIRSS/Generating-Clusters/REBO/Only-C1/SD-CG/HFTN-CG
REM
REM
REM
REM
REM
REM ./C.cell (11c1c37f851c82e70ff6c80c92926a4b)
REM
REM compiler GCC version 9.2.1 20190827 (Red Hat 9.2.1-1)
REM options -cpp -mtune=generic -march=x86-64 -g -O0 -fpre-include=/usr/include/finclude/math-vector-fortran.h
REM seed -1092973641 -1064365782 1533132936 -1902415323 1708911792 1844034683 -1075873722 -375551168 -1583929542 -434851724 -590534311 1766832967 -340395258 1151545261 -368113287 970136786 1209084900 -342136257 879404089 -899295648 1838128370 -1304106144 -1443838206 -1546836854 -882763770 1112277670 -1216893363 -1646503018 -1781254933 504359840 1324401439 1243993139 1268586928
REM
CELL 1.54180   50.00000   50.00000   50.00000   90.00000   90.00000   90.00000
LATT -1
SFAC C  
C      1  0.5145060000000  0.5270180000000  0.5093000000000 1.0
C      1  0.4939450000000  0.4368370000000  0.5502930000000 1.0
C      1  0.4669110000000  0.5463290000000  0.4323560000000 1.0
C      1  0.4961900000000  0.4514640000000  0.4931200000000 1.0
C      1  0.5175360000000  0.5351710000000  0.5598710000000 1.0
C      1  0.5333370000000  0.5230850000000  0.4525410000000 1.0
C      1  0.4910350000000  0.4672270000000  0.4319720000000 1.0
C      1  0.5178850000000  0.5390670000000  0.5330940000000 1.0
C      1  0.4522110000000  0.5359280000000  0.4567120000000 1.0
C      1  0.4988620000000  0.4597420000000  0.5257500000000 1.0
C      1  0.4813870000000  0.5202920000000  0.4488090000000 1.0
C      1  0.5066030000000  0.4879130000000  0.5739900000000 1.0
C      1  0.5011580000000  0.4664330000000  0.5583950000000 1.0
C      1  0.5091510000000  0.5060970000000  0.4916990000000 1.0
C      1  0.5034560000000  0.4813530000000  0.5004670000000 1.0
C      1  0.4930860000000  0.4902030000000  0.4430210000000 1.0
C      1  0.5128710000000  0.5140670000000  0.5762470000000 1.0
C      1  0.5098690000000  0.5117750000000  0.4623620000000 1.0
END
