TITL C-2778431-5191-1257 0.00108775820800031 125000 -813.833486739569 0 0 138 (C1) n - 1
REM
REM in /home/nfs/bkarasulu/CARBON/AIRSS/Generating-Clusters/REBO/Only-C1/SD-CG/HFTN-CG
REM
REM
REM
REM
REM
REM ./C.cell (11c1c37f851c82e70ff6c80c92926a4b)
REM
REM compiler GCC version 9.2.1 20190827 (Red Hat 9.2.1-1)
REM options -cpp -mtune=generic -march=x86-64 -g -O0 -fpre-include=/usr/include/finclude/math-vector-fortran.h
REM seed -290057746 1742582984 -752114539 295449674 -1438418227 -656944592 -1780757841 1321571697 -310608895 693117563 1071319074 -298135484 -256073548 -941364330 -1665059162 -691865623 1557120537 990544659 -1389697400 895407637 1056529827 1305124059 1622449460 -651944905 -1856884397 -1150211021 857284371 1805920683 1015241392 2013418053 496769763 -1601880773 1893949222
REM
CELL 1.54180   50.00000   50.00000   50.00000   90.00000   90.00000   90.00000
LATT -1
SFAC C  
C      1  0.5583020000000  0.4293020000000  0.5433280000000 1.0
C      1  0.5096170000000  0.5713520000000  0.4368330000000 1.0
C      1  0.5152830000000  0.5077340000000  0.4464060000000 1.0
C      1  0.5210870000000  0.5408770000000  0.4423980000000 1.0
C      1  0.4640030000000  0.5809990000000  0.4398490000000 1.0
C      1  0.5294670000000  0.5114160000000  0.4057610000000 1.0
C      1  0.5626480000000  0.4897330000000  0.5834800000000 1.0
C      1  0.5245470000000  0.5218690000000  0.5769530000000 1.0
C      1  0.5049630000000  0.4764450000000  0.5933820000000 1.0
C      1  0.5484960000000  0.5721860000000  0.5281560000000 1.0
C      1  0.4706190000000  0.5125150000000  0.5585630000000 1.0
C      1  0.4768140000000  0.4477970000000  0.4471190000000 1.0
C      1  0.4536960000000  0.4110700000000  0.5420040000000 1.0
C      1  0.5804130000000  0.4861110000000  0.4588820000000 1.0
C      1  0.4353340000000  0.4533660000000  0.5679570000000 1.0
C      1  0.4356930000000  0.4985970000000  0.5466960000000 1.0
C      1  0.4806870000000  0.5528570000000  0.4705600000000 1.0
C      1  0.5077140000000  0.5898480000000  0.4585240000000 1.0
C      1  0.4365470000000  0.5609130000000  0.4381720000000 1.0
C      1  0.5511340000000  0.4854470000000  0.4758590000000 1.0
C      1  0.4370280000000  0.4923740000000  0.4948320000000 1.0
C      1  0.5333540000000  0.4023410000000  0.5025010000000 1.0
C      1  0.5302460000000  0.4775060000000  0.4088150000000 1.0
C      1  0.4808860000000  0.5806150000000  0.5700780000000 1.0
C      1  0.5186190000000  0.4560550000000  0.4241540000000 1.0
C      1  0.4292940000000  0.4840330000000  0.5753340000000 1.0
C      1  0.5243620000000  0.5305030000000  0.5440490000000 1.0
C      1  0.5199300000000  0.5269810000000  0.4929530000000 1.0
C      1  0.5667930000000  0.4582800000000  0.4645710000000 1.0
C      1  0.5736680000000  0.5333290000000  0.5661600000000 1.0
C      1  0.5470880000000  0.5470350000000  0.5721740000000 1.0
C      1  0.4906170000000  0.4424530000000  0.5152120000000 1.0
C      1  0.4416370000000  0.4173210000000  0.4582610000000 1.0
C      1  0.5372910000000  0.4152480000000  0.4772930000000 1.0
C      1  0.4819590000000  0.5184760000000  0.5135880000000 1.0
C      1  0.4874230000000  0.4114260000000  0.5466170000000 1.0
C      1  0.4141380000000  0.4960380000000  0.4716170000000 1.0
C      1  0.5539070000000  0.4701570000000  0.5330520000000 1.0
C      1  0.4793100000000  0.5974210000000  0.4631690000000 1.0
C      1  0.4995790000000  0.5501610000000  0.5521850000000 1.0
C      1  0.3903110000000  0.4979880000000  0.5180490000000 1.0
C      1  0.5306100000000  0.5959020000000  0.5430170000000 1.0
C      1  0.5258920000000  0.5881390000000  0.4820660000000 1.0
C      1  0.5259780000000  0.4842260000000  0.5206690000000 1.0
C      1  0.5622780000000  0.5168830000000  0.4134090000000 1.0
C      1  0.4743910000000  0.4723670000000  0.5779830000000 1.0
C      1  0.5990740000000  0.5055790000000  0.4881480000000 1.0
C      1  0.4505930000000  0.5260340000000  0.5371740000000 1.0
C      1  0.4515840000000  0.4984410000000  0.3938930000000 1.0
C      1  0.4848440000000  0.4120640000000  0.5067250000000 1.0
C      1  0.5279630000000  0.4598310000000  0.4560050000000 1.0
C      1  0.4568780000000  0.4719460000000  0.5494940000000 1.0
C      1  0.4838780000000  0.5488840000000  0.4040940000000 1.0
C      1  0.4691420000000  0.4654050000000  0.5228900000000 1.0
C      1  0.5305410000000  0.4717280000000  0.5583110000000 1.0
C      1  0.4245200000000  0.5300190000000  0.4899700000000 1.0
C      1  0.5934420000000  0.5137090000000  0.4547980000000 1.0
C      1  0.4588340000000  0.5699500000000  0.4834380000000 1.0
C      1  0.4404240000000  0.4351350000000  0.4364230000000 1.0
C      1  0.4261480000000  0.4615910000000  0.4367370000000 1.0
C      1  0.5743760000000  0.5550280000000  0.4395080000000 1.0
C      1  0.4727190000000  0.4212000000000  0.5755390000000 1.0
C      1  0.5699270000000  0.4711810000000  0.5636420000000 1.0
C      1  0.5385790000000  0.4886900000000  0.4462310000000 1.0
C      1  0.5230990000000  0.4815210000000  0.4891520000000 1.0
C      1  0.5631910000000  0.5303640000000  0.5135050000000 1.0
C      1  0.4559610000000  0.5167720000000  0.4920930000000 1.0
C      1  0.5054710000000  0.5049420000000  0.4760870000000 1.0
C      1  0.5573280000000  0.4882790000000  0.4212470000000 1.0
C      1  0.4677670000000  0.4799870000000  0.4081150000000 1.0
C      1  0.4420660000000  0.4262080000000  0.5668330000000 1.0
C      1  0.5809500000000  0.4410310000000  0.5299980000000 1.0
C      1  0.5953060000000  0.4706610000000  0.5286270000000 1.0
C      1  0.5878750000000  0.5365750000000  0.4791550000000 1.0
C      1  0.5496510000000  0.5303890000000  0.4888440000000 1.0
C      1  0.5010450000000  0.5231350000000  0.4126760000000 1.0
C      1  0.4521000000000  0.5663620000000  0.5102380000000 1.0
C      1  0.4773230000000  0.5196570000000  0.4697230000000 1.0
C      1  0.5204950000000  0.4511480000000  0.5150130000000 1.0
C      1  0.4309470000000  0.4749930000000  0.5149960000000 1.0
C      1  0.5137390000000  0.4154800000000  0.4603510000000 1.0
C      1  0.4821940000000  0.5013090000000  0.5949990000000 1.0
C      1  0.4874140000000  0.5358420000000  0.4417160000000 1.0
C      1  0.4612530000000  0.4448950000000  0.4972510000000 1.0
C      1  0.5567380000000  0.4357000000000  0.4796370000000 1.0
C      1  0.4381850000000  0.5435560000000  0.5157960000000 1.0
C      1  0.4363950000000  0.5748120000000  0.4677910000000 1.0
C      1  0.5222340000000  0.5851430000000  0.5116500000000 1.0
C      1  0.4338950000000  0.4486100000000  0.4850960000000 1.0
C      1  0.4537030000000  0.4089100000000  0.5129190000000 1.0
C      1  0.4887120000000  0.4969280000000  0.4288050000000 1.0
C      1  0.5625760000000  0.5532700000000  0.4685440000000 1.0
C      1  0.5891700000000  0.5223590000000  0.5428010000000 1.0
C      1  0.5090210000000  0.4029750000000  0.5260970000000 1.0
C      1  0.3993100000000  0.5116640000000  0.4963740000000 1.0
C      1  0.5813480000000  0.5299400000000  0.4301680000000 1.0
C      1  0.4548790000000  0.4070890000000  0.4810790000000 1.0
C      1  0.4690170000000  0.4799350000000  0.4478790000000 1.0
C      1  0.4169400000000  0.4637760000000  0.4755400000000 1.0
C      1  0.4609710000000  0.4541770000000  0.4186010000000 1.0
C      1  0.4864870000000  0.5532400000000  0.5814580000000 1.0
C      1  0.4883700000000  0.4045130000000  0.4757030000000 1.0
C      1  0.5113740000000  0.4514610000000  0.4822360000000 1.0
C      1  0.5944910000000  0.5296220000000  0.5117910000000 1.0
C      1  0.4974170000000  0.5275100000000  0.5902080000000 1.0
C      1  0.5772320000000  0.5134930000000  0.5872720000000 1.0
C      1  0.4985810000000  0.5896970000000  0.5470140000000 1.0
C      1  0.5317980000000  0.4927180000000  0.5828660000000 1.0
C      1  0.4841220000000  0.5960900000000  0.5167960000000 1.0
C      1  0.4901930000000  0.4457130000000  0.5910590000000 1.0
C      1  0.4846710000000  0.4380400000000  0.4759560000000 1.0
C      1  0.4899790000000  0.4943710000000  0.5486220000000 1.0
C      1  0.5670770000000  0.4566310000000  0.5044460000000 1.0
C      1  0.5143020000000  0.5127830000000  0.5216670000000 1.0
C      1  0.5968900000000  0.4941070000000  0.5453570000000 1.0
C      1  0.4410370000000  0.4847140000000  0.4443350000000 1.0
C      1  0.5492890000000  0.5445430000000  0.5326610000000 1.0
C      1  0.5056920000000  0.5543550000000  0.4882980000000 1.0
C      1  0.5321640000000  0.5591350000000  0.4674790000000 1.0
C      1  0.4405540000000  0.5220220000000  0.4027360000000 1.0
C      1  0.4921610000000  0.4430990000000  0.5573880000000 1.0
C      1  0.5923270000000  0.4785650000000  0.4982950000000 1.0
C      1  0.5254540000000  0.5678000000000  0.5603650000000 1.0
C      1  0.4758210000000  0.6051370000000  0.4916400000000 1.0
C      1  0.4956280000000  0.5657410000000  0.5155660000000 1.0
C      1  0.4258340000000  0.5109230000000  0.4461000000000 1.0
C      1  0.5023810000000  0.4700080000000  0.5495220000000 1.0
C      1  0.5346220000000  0.4248780000000  0.5260020000000 1.0
C      1  0.5045030000000  0.4328340000000  0.4397740000000 1.0
C      1  0.4785490000000  0.5446080000000  0.5307340000000 1.0
C      1  0.4515660000000  0.5043850000000  0.5827840000000 1.0
C      1  0.4325690000000  0.5311450000000  0.4282490000000 1.0
C      1  0.4202050000000  0.5479410000000  0.4655780000000 1.0
C      1  0.4066020000000  0.4778670000000  0.5280730000000 1.0
C      1  0.4848960000000  0.5706540000000  0.4222280000000 1.0
C      1  0.4602570000000  0.5959430000000  0.5790330000000 1.0
C      1  0.5517400000000  0.4458970000000  0.5646790000000 1.0
C      1  0.4777770000000  0.4893150000000  0.5109320000000 1.0
END
