TITL C-2778429-3646-358 -0.00549670773836081 125000 -1131.26637377792 0 0 194 (C1) n - 1
REM
REM in /home/nfs/bkarasulu/CARBON/AIRSS/Generating-Clusters/REBO/Only-C1/SD-CG/HFTN-CG
REM
REM
REM
REM
REM
REM ./C.cell (11c1c37f851c82e70ff6c80c92926a4b)
REM
REM compiler GCC version 9.2.1 20190827 (Red Hat 9.2.1-1)
REM options -cpp -mtune=generic -march=x86-64 -g -O0 -fpre-include=/usr/include/finclude/math-vector-fortran.h
REM seed -236713338 -1865226395 1715663268 656865349 211176064 -763800665 -303439431 -162029509 1478839453 -1141038229 635507245 -2044543412 1424150285 -798888467 -108259888 1772238226 292276129 328736987 293103444 452810008 -117497220 -1139818835 -1126701055 -1352808981 -1070313626 -422971886 -466426673 587393308 -525190436 -1891150816 920364799 -1567495135 564453825
REM
CELL 1.54180   50.00000   50.00000   50.00000   90.00000   90.00000   90.00000
LATT -1
SFAC C  
C      1  0.5416790000000  0.5442330000000  0.4516950000000 1.0
C      1  0.4278090000000  0.5308710000000  0.5807960000000 1.0
C      1  0.4778480000000  0.5136690000000  0.4268040000000 1.0
C      1  0.3935050000000  0.4864070000000  0.5411100000000 1.0
C      1  0.5029310000000  0.4000290000000  0.4315510000000 1.0
C      1  0.5051380000000  0.6113200000000  0.5110060000000 1.0
C      1  0.5494360000000  0.5256030000000  0.3947910000000 1.0
C      1  0.5511910000000  0.5045030000000  0.4862080000000 1.0
C      1  0.5835010000000  0.4916130000000  0.6011410000000 1.0
C      1  0.4923140000000  0.5740580000000  0.5062430000000 1.0
C      1  0.4102080000000  0.5807780000000  0.5080440000000 1.0
C      1  0.4535990000000  0.4778370000000  0.4544110000000 1.0
C      1  0.5233640000000  0.3855860000000  0.4811060000000 1.0
C      1  0.4684140000000  0.5571760000000  0.4924000000000 1.0
C      1  0.4765540000000  0.5246570000000  0.5106970000000 1.0
C      1  0.5076840000000  0.5031990000000  0.4538490000000 1.0
C      1  0.5202440000000  0.4256470000000  0.5713790000000 1.0
C      1  0.4182530000000  0.4729070000000  0.4351670000000 1.0
C      1  0.4080310000000  0.4743200000000  0.5159480000000 1.0
C      1  0.4057200000000  0.4431740000000  0.5229050000000 1.0
C      1  0.5082930000000  0.4100970000000  0.5508980000000 1.0
C      1  0.4824100000000  0.3963140000000  0.4515870000000 1.0
C      1  0.4765560000000  0.5956210000000  0.4568160000000 1.0
C      1  0.4554190000000  0.4498450000000  0.5931110000000 1.0
C      1  0.4325750000000  0.5085580000000  0.6041320000000 1.0
C      1  0.5174900000000  0.5509060000000  0.5033140000000 1.0
C      1  0.5155500000000  0.4242530000000  0.4348340000000 1.0
C      1  0.5033010000000  0.5036290000000  0.4098540000000 1.0
C      1  0.4231220000000  0.5471840000000  0.4626700000000 1.0
C      1  0.4929650000000  0.5852420000000  0.4287720000000 1.0
C      1  0.4923210000000  0.4899510000000  0.5753900000000 1.0
C      1  0.5199180000000  0.5210050000000  0.5339020000000 1.0
C      1  0.5488190000000  0.6107260000000  0.4849280000000 1.0
C      1  0.4722760000000  0.5165670000000  0.3874640000000 1.0
C      1  0.5701460000000  0.3439590000000  0.4436040000000 1.0
C      1  0.4063720000000  0.4867950000000  0.4878500000000 1.0
C      1  0.4328560000000  0.4437040000000  0.4245520000000 1.0
C      1  0.4375020000000  0.5898260000000  0.4996890000000 1.0
C      1  0.5313790000000  0.5497060000000  0.5742280000000 1.0
C      1  0.5775690000000  0.5691970000000  0.4909960000000 1.0
C      1  0.5741360000000  0.4148710000000  0.5130620000000 1.0
C      1  0.4651420000000  0.4799250000000  0.5331020000000 1.0
C      1  0.5525950000000  0.4220650000000  0.5345470000000 1.0
C      1  0.6022680000000  0.5010050000000  0.4420710000000 1.0
C      1  0.5509340000000  0.5924700000000  0.5096420000000 1.0
C      1  0.5027340000000  0.4617900000000  0.5380600000000 1.0
C      1  0.4545540000000  0.5500120000000  0.4159750000000 1.0
C      1  0.4514500000000  0.4492420000000  0.4675080000000 1.0
C      1  0.4316940000000  0.5097300000000  0.4854630000000 1.0
C      1  0.4563610000000  0.5465070000000  0.5814990000000 1.0
C      1  0.4942300000000  0.4562820000000  0.4800950000000 1.0
C      1  0.4856550000000  0.6112610000000  0.4825130000000 1.0
C      1  0.5901520000000  0.5189530000000  0.5030430000000 1.0
C      1  0.4571670000000  0.4652150000000  0.4935990000000 1.0
C      1  0.5678510000000  0.3953470000000  0.4954140000000 1.0
C      1  0.4678040000000  0.5977100000000  0.5083870000000 1.0
C      1  0.5491920000000  0.5037600000000  0.3761910000000 1.0
C      1  0.4256150000000  0.5734230000000  0.5517220000000 1.0
C      1  0.5305370000000  0.4721020000000  0.4772640000000 1.0
C      1  0.5648930000000  0.4852390000000  0.5376440000000 1.0
C      1  0.5037170000000  0.4418320000000  0.5860130000000 1.0
C      1  0.5144670000000  0.5882860000000  0.5712490000000 1.0
C      1  0.4157960000000  0.4200910000000  0.4921040000000 1.0
C      1  0.4082610000000  0.5223480000000  0.5069710000000 1.0
C      1  0.5940560000000  0.4387800000000  0.5088570000000 1.0
C      1  0.5973110000000  0.4914600000000  0.4957710000000 1.0
C      1  0.4350540000000  0.4412510000000  0.5674390000000 1.0
C      1  0.5831850000000  0.5186290000000  0.4329170000000 1.0
C      1  0.5635640000000  0.5875260000000  0.4720930000000 1.0
C      1  0.4605050000000  0.5805520000000  0.4301830000000 1.0
C      1  0.4474560000000  0.4197640000000  0.5474480000000 1.0
C      1  0.5202910000000  0.4796230000000  0.4198750000000 1.0
C      1  0.4829490000000  0.4268180000000  0.4773110000000 1.0
C      1  0.5798210000000  0.4696760000000  0.5110040000000 1.0
C      1  0.4828820000000  0.5399130000000  0.4049010000000 1.0
C      1  0.4144460000000  0.5436750000000  0.5546660000000 1.0
C      1  0.4787250000000  0.4443800000000  0.5449050000000 1.0
C      1  0.5003750000000  0.5212420000000  0.5790060000000 1.0
C      1  0.5020880000000  0.6293490000000  0.5375320000000 1.0
C      1  0.5187120000000  0.5008770000000  0.6029460000000 1.0
C      1  0.5170310000000  0.5275090000000  0.4388380000000 1.0
C      1  0.5519750000000  0.5765530000000  0.4488430000000 1.0
C      1  0.4757300000000  0.4677340000000  0.4327270000000 1.0
C      1  0.4464030000000  0.4734700000000  0.4156030000000 1.0
C      1  0.4801250000000  0.5636660000000  0.5427660000000 1.0
C      1  0.5703550000000  0.4551800000000  0.5478270000000 1.0
C      1  0.5020720000000  0.5252990000000  0.4984210000000 1.0
C      1  0.5635180000000  0.5608890000000  0.5700110000000 1.0
C      1  0.5487620000000  0.4376770000000  0.5649190000000 1.0
C      1  0.5680370000000  0.5387650000000  0.5196140000000 1.0
C      1  0.4144230000000  0.4011170000000  0.4641210000000 1.0
C      1  0.5241690000000  0.4594110000000  0.3860090000000 1.0
C      1  0.4470040000000  0.5139230000000  0.5225150000000 1.0
C      1  0.5632430000000  0.4578850000000  0.4364920000000 1.0
C      1  0.5661950000000  0.4708910000000  0.5994090000000 1.0
C      1  0.5493120000000  0.5241590000000  0.5396400000000 1.0
C      1  0.5835650000000  0.5670580000000  0.5247110000000 1.0
C      1  0.5288000000000  0.4351030000000  0.5032580000000 1.0
C      1  0.6068300000000  0.5482660000000  0.4984510000000 1.0
C      1  0.5643110000000  0.4741200000000  0.4819380000000 1.0
C      1  0.4352530000000  0.5427240000000  0.5279810000000 1.0
C      1  0.5952650000000  0.5409070000000  0.3918930000000 1.0
C      1  0.5182160000000  0.5035190000000  0.4830070000000 1.0
C      1  0.5238890000000  0.5762000000000  0.4357500000000 1.0
C      1  0.5167620000000  0.5877520000000  0.4889610000000 1.0
C      1  0.4233660000000  0.4397110000000  0.4657810000000 1.0
C      1  0.4407900000000  0.5137260000000  0.5547860000000 1.0
C      1  0.4752320000000  0.5620670000000  0.4622060000000 1.0
C      1  0.4082560000000  0.5543610000000  0.5139180000000 1.0
C      1  0.5958060000000  0.4458380000000  0.5397550000000 1.0
C      1  0.4104090000000  0.5060120000000  0.4331920000000 1.0
C      1  0.4805860000000  0.4726430000000  0.6002520000000 1.0
C      1  0.4198610000000  0.4189910000000  0.4398520000000 1.0
C      1  0.5158920000000  0.4066750000000  0.5033830000000 1.0
C      1  0.4250610000000  0.4716110000000  0.5798660000000 1.0
C      1  0.4626240000000  0.5133620000000  0.5888830000000 1.0
C      1  0.5317630000000  0.4640140000000  0.4464730000000 1.0
C      1  0.5652900000000  0.5276740000000  0.4569430000000 1.0
C      1  0.4368690000000  0.5628280000000  0.4843220000000 1.0
C      1  0.4038520000000  0.5278110000000  0.4569770000000 1.0
C      1  0.5419480000000  0.4852980000000  0.5130210000000 1.0
C      1  0.4536440000000  0.5007440000000  0.4060850000000 1.0
C      1  0.5940340000000  0.4557880000000  0.4470320000000 1.0
C      1  0.5805920000000  0.5389690000000  0.4787880000000 1.0
C      1  0.5043850000000  0.5555120000000  0.5910580000000 1.0
C      1  0.5456000000000  0.4786910000000  0.3892930000000 1.0
C      1  0.6052950000000  0.4803020000000  0.4670830000000 1.0
C      1  0.5016450000000  0.5401650000000  0.5382590000000 1.0
C      1  0.4150990000000  0.4963220000000  0.5634360000000 1.0
C      1  0.4662740000000  0.4391650000000  0.4186480000000 1.0
C      1  0.5165650000000  0.4453450000000  0.4149090000000 1.0
C      1  0.5318470000000  0.5727090000000  0.5488110000000 1.0
C      1  0.5719310000000  0.5791210000000  0.5505830000000 1.0
C      1  0.4759720000000  0.5029580000000  0.4565260000000 1.0
C      1  0.5539620000000  0.4852640000000  0.4217630000000 1.0
C      1  0.4388450000000  0.5222150000000  0.4248220000000 1.0
C      1  0.5219040000000  0.5296330000000  0.4068130000000 1.0
C      1  0.5606490000000  0.3614500000000  0.4606530000000 1.0
C      1  0.4992470000000  0.4708200000000  0.4523780000000 1.0
C      1  0.5065990000000  0.5587720000000  0.4121680000000 1.0
C      1  0.4540570000000  0.5781150000000  0.5691780000000 1.0
C      1  0.5600510000000  0.4941400000000  0.4542690000000 1.0
C      1  0.5143970000000  0.4784930000000  0.5575790000000 1.0
C      1  0.4375410000000  0.4835310000000  0.5147380000000 1.0
C      1  0.5577410000000  0.6012550000000  0.5385820000000 1.0
C      1  0.4785530000000  0.4126720000000  0.5354340000000 1.0
C      1  0.5397560000000  0.5174550000000  0.5819310000000 1.0
C      1  0.5505460000000  0.3800590000000  0.4787900000000 1.0
C      1  0.5427460000000  0.4397090000000  0.4760780000000 1.0
C      1  0.4889270000000  0.5340810000000  0.6304090000000 1.0
C      1  0.4987340000000  0.5554550000000  0.6203510000000 1.0
C      1  0.5252350000000  0.6045250000000  0.5375300000000 1.0
C      1  0.4472500000000  0.4796570000000  0.6037590000000 1.0
C      1  0.5422190000000  0.5610560000000  0.5196220000000 1.0
C      1  0.5452790000000  0.4536780000000  0.5241260000000 1.0
C      1  0.4323680000000  0.4258380000000  0.5193990000000 1.0
C      1  0.4558280000000  0.4487930000000  0.5216920000000 1.0
C      1  0.4572950000000  0.5618450000000  0.5222810000000 1.0
C      1  0.5686980000000  0.4391740000000  0.4630290000000 1.0
C      1  0.4867630000000  0.4861140000000  0.5104900000000 1.0
C      1  0.4874700000000  0.5110670000000  0.6117740000000 1.0
C      1  0.4807710000000  0.5385270000000  0.5637490000000 1.0
C      1  0.5186440000000  0.6188850000000  0.4760420000000 1.0
C      1  0.5029730000000  0.5540340000000  0.4516720000000 1.0
C      1  0.5136450000000  0.4330060000000  0.4636600000000 1.0
C      1  0.5443320000000  0.4571410000000  0.5908540000000 1.0
C      1  0.4483980000000  0.5539420000000  0.4471450000000 1.0
C      1  0.4512780000000  0.5908070000000  0.5374220000000 1.0
C      1  0.4094020000000  0.4582960000000  0.5525230000000 1.0
C      1  0.3925860000000  0.5152850000000  0.4798100000000 1.0
C      1  0.5870860000000  0.5181530000000  0.5952160000000 1.0
C      1  0.4901950000000  0.4529530000000  0.3986290000000 1.0
C      1  0.5084380000000  0.4595590000000  0.5079490000000 1.0
C      1  0.4922610000000  0.3881430000000  0.4773550000000 1.0
C      1  0.5151980000000  0.4962140000000  0.5219980000000 1.0
C      1  0.4916440000000  0.4819260000000  0.3914150000000 1.0
C      1  0.4363960000000  0.5048110000000  0.4542770000000 1.0
C      1  0.4041970000000  0.4653300000000  0.4648560000000 1.0
C      1  0.6169500000000  0.5631860000000  0.5230960000000 1.0
C      1  0.5667360000000  0.5343200000000  0.5842380000000 1.0
C      1  0.5959760000000  0.4497980000000  0.4802880000000 1.0
C      1  0.5279890000000  0.4045860000000  0.5311610000000 1.0
C      1  0.5148870000000  0.4686380000000  0.6003540000000 1.0
C      1  0.4635740000000  0.4972230000000  0.4876760000000 1.0
C      1  0.4782380000000  0.4423390000000  0.5745590000000 1.0
C      1  0.4865450000000  0.5767470000000  0.5735620000000 1.0
C      1  0.5250710000000  0.5619480000000  0.4741680000000 1.0
C      1  0.4659990000000  0.4955570000000  0.5596410000000 1.0
C      1  0.4048200000000  0.5173390000000  0.5377100000000 1.0
C      1  0.4832540000000  0.4074500000000  0.5042380000000 1.0
C      1  0.5755630000000  0.5296740000000  0.4072680000000 1.0
C      1  0.4652100000000  0.4248000000000  0.4495340000000 1.0
C      1  0.5406320000000  0.4963700000000  0.5574550000000 1.0
C      1  0.3938310000000  0.4463020000000  0.4911850000000 1.0
END
