TITL C-2778437-8639-1298 -0.0022597460545947 125000 -287.035678658159 0 0 51 (C1) n - 1
REM
REM in /home/nfs/bkarasulu/CARBON/AIRSS/Generating-Clusters/REBO/Only-C1/SD-CG/HFTN-CG
REM
REM
REM
REM
REM
REM ./C.cell (11c1c37f851c82e70ff6c80c92926a4b)
REM
REM compiler GCC version 9.2.1 20190827 (Red Hat 9.2.1-1)
REM options -cpp -mtune=generic -march=x86-64 -g -O0 -fpre-include=/usr/include/finclude/math-vector-fortran.h
REM seed 786362721 -49908504 -906039677 394035740 -1303899780 1068711762 1099878116 -1746801354 203652220 63278643 -2119839094 1438449401 -678018174 1517752664 1091871300 1899795818 744037148 486150364 1015014803 -695173030 -612489783 -1208363326 851156847 1149941520 1925454764 1198726757 -329192816 -664313839 1543857303 -1070118078 -708543709 400377893 -1763903538
REM
CELL 1.54180   50.00000   50.00000   50.00000   90.00000   90.00000   90.00000
LATT -1
SFAC C  
C      1  0.4486770000000  0.5087550000000  0.4732800000000 1.0
C      1  0.5487860000000  0.4544470000000  0.5289340000000 1.0
C      1  0.5434510000000  0.4536950000000  0.4687490000000 1.0
C      1  0.5234220000000  0.4899620000000  0.4933520000000 1.0
C      1  0.5351740000000  0.4999930000000  0.4406380000000 1.0
C      1  0.5136940000000  0.4912740000000  0.5518270000000 1.0
C      1  0.5423180000000  0.5382740000000  0.5464760000000 1.0
C      1  0.5269870000000  0.5241940000000  0.4299020000000 1.0
C      1  0.5069620000000  0.5152370000000  0.5706400000000 1.0
C      1  0.5082680000000  0.4819710000000  0.4446320000000 1.0
C      1  0.5008860000000  0.4765100000000  0.4745500000000 1.0
C      1  0.4888290000000  0.5162750000000  0.5244160000000 1.0
C      1  0.4684860000000  0.5202710000000  0.4509040000000 1.0
C      1  0.4436180000000  0.4809340000000  0.4556550000000 1.0
C      1  0.4227260000000  0.4816960000000  0.5103200000000 1.0
C      1  0.5314620000000  0.5409520000000  0.4938740000000 1.0
C      1  0.4912850000000  0.5409450000000  0.4658390000000 1.0
C      1  0.4577930000000  0.4791730000000  0.4328000000000 1.0
C      1  0.4765690000000  0.5142350000000  0.5673870000000 1.0
C      1  0.5535560000000  0.4498460000000  0.5553170000000 1.0
C      1  0.5169700000000  0.5148240000000  0.5075310000000 1.0
C      1  0.5155300000000  0.5402820000000  0.5303850000000 1.0
C      1  0.5528150000000  0.4796670000000  0.4850150000000 1.0
C      1  0.4914850000000  0.4772810000000  0.5441280000000 1.0
C      1  0.4842950000000  0.4968330000000  0.4319170000000 1.0
C      1  0.5565050000000  0.4940190000000  0.4566350000000 1.0
C      1  0.5262820000000  0.4377010000000  0.4856790000000 1.0
C      1  0.4966710000000  0.5286180000000  0.4345310000000 1.0
C      1  0.4477060000000  0.4762810000000  0.5333050000000 1.0
C      1  0.5328420000000  0.4602190000000  0.4439090000000 1.0
C      1  0.5067140000000  0.5682400000000  0.5233150000000 1.0
C      1  0.4841050000000  0.4750390000000  0.5171690000000 1.0
C      1  0.5529750000000  0.5041270000000  0.5299200000000 1.0
C      1  0.4639370000000  0.5354230000000  0.5488660000000 1.0
C      1  0.4245110000000  0.5074190000000  0.5246450000000 1.0
C      1  0.4718330000000  0.5267820000000  0.4899110000000 1.0
C      1  0.4674010000000  0.5449130000000  0.5163630000000 1.0
C      1  0.5541040000000  0.4796420000000  0.5167470000000 1.0
C      1  0.4670580000000  0.4855690000000  0.5599860000000 1.0
C      1  0.4738420000000  0.4373600000000  0.4924580000000 1.0
C      1  0.4987370000000  0.4459740000000  0.4813920000000 1.0
C      1  0.4825770000000  0.5706130000000  0.5154420000000 1.0
C      1  0.5518090000000  0.5326080000000  0.5155300000000 1.0
C      1  0.4632950000000  0.4540390000000  0.5127170000000 1.0
C      1  0.4560340000000  0.5094540000000  0.5303150000000 1.0
C      1  0.5361220000000  0.4349750000000  0.5122890000000 1.0
C      1  0.5222870000000  0.5800010000000  0.4661700000000 1.0
C      1  0.4284780000000  0.4833330000000  0.4833320000000 1.0
C      1  0.5162660000000  0.5547600000000  0.4756920000000 1.0
C      1  0.5396040000000  0.5092680000000  0.5608950000000 1.0
C      1  0.4842620000000  0.4960970000000  0.4943160000000 1.0
END
