TITL C-2778422-5617-308 0.267251056079403 125000 -850.391865931638 0 0 147 (C1) n - 1
REM
REM in /home/nfs/bkarasulu/CARBON/AIRSS/Generating-Clusters/REBO/Only-C1/SD-CG/HFTN-CG
REM
REM
REM
REM
REM
REM ./C.cell (11c1c37f851c82e70ff6c80c92926a4b)
REM
REM compiler GCC version 9.2.1 20190827 (Red Hat 9.2.1-1)
REM options -cpp -mtune=generic -march=x86-64 -g -O0 -fpre-include=/usr/include/finclude/math-vector-fortran.h
REM seed 245878412 735111421 726256494 1964340656 -1865749321 783537051 -216114474 440558460 753480362 897086161 1376409071 712296324 1434011827 603142166 -2036245047 -1515607136 1190859809 1782371992 -1869727030 533902581 -2068827532 1570748808 905306119 709347566 -945935998 -1109944231 579745395 -766771583 1825029726 1428966365 -1234856250 616363303 1273100124
REM
CELL 1.54180   50.00000   50.00000   50.00000   90.00000   90.00000   90.00000
LATT -1
SFAC C  
C      1  0.5438960000000  0.4389720000000  0.5569750000000 1.0
C      1  0.4770670000000  0.5293780000000  0.4388880000000 1.0
C      1  0.4585090000000  0.5733250000000  0.4488870000000 1.0
C      1  0.4506120000000  0.5259800000000  0.4176830000000 1.0
C      1  0.4640230000000  0.4637910000000  0.4810660000000 1.0
C      1  0.5804480000000  0.4371680000000  0.4572440000000 1.0
C      1  0.4511420000000  0.5206030000000  0.5413090000000 1.0
C      1  0.5186310000000  0.5256110000000  0.4174270000000 1.0
C      1  0.4453990000000  0.5757970000000  0.5399240000000 1.0
C      1  0.5182740000000  0.4247440000000  0.5478970000000 1.0
C      1  0.4920370000000  0.5752610000000  0.4868310000000 1.0
C      1  0.5855260000000  0.5449000000000  0.5224240000000 1.0
C      1  0.4814700000000  0.4573010000000  0.4074500000000 1.0
C      1  0.4505760000000  0.4551120000000  0.4328310000000 1.0
C      1  0.4196180000000  0.4940310000000  0.4521030000000 1.0
C      1  0.4898930000000  0.5823140000000  0.4566390000000 1.0
C      1  0.5615210000000  0.5675830000000  0.5827270000000 1.0
C      1  0.5914750000000  0.4410850000000  0.4892290000000 1.0
C      1  0.5659130000000  0.4347140000000  0.5361480000000 1.0
C      1  0.5406180000000  0.5508790000000  0.5385490000000 1.0
C      1  0.5369000000000  0.4688360000000  0.4174020000000 1.0
C      1  0.4097090000000  0.5395830000000  0.4722730000000 1.0
C      1  0.4786330000000  0.4004170000000  0.4620710000000 1.0
C      1  0.5010940000000  0.6121300000000  0.4990370000000 1.0
C      1  0.5604050000000  0.4166200000000  0.4528460000000 1.0
C      1  0.4245710000000  0.5116510000000  0.4314060000000 1.0
C      1  0.4680630000000  0.4567510000000  0.5797970000000 1.0
C      1  0.4380130000000  0.5051860000000  0.4952910000000 1.0
C      1  0.5588980000000  0.4495340000000  0.5104950000000 1.0
C      1  0.5368000000000  0.5260940000000  0.5155590000000 1.0
C      1  0.5016780000000  0.4595160000000  0.5874970000000 1.0
C      1  0.4332760000000  0.4946440000000  0.5333320000000 1.0
C      1  0.5262340000000  0.4932930000000  0.5491320000000 1.0
C      1  0.5903600000000  0.4602630000000  0.5176380000000 1.0
C      1  0.5395410000000  0.5371910000000  0.4549830000000 1.0
C      1  0.5175240000000  0.5645860000000  0.5247760000000 1.0
C      1  0.3979250000000  0.4857250000000  0.4945150000000 1.0
C      1  0.4307240000000  0.5313790000000  0.5642390000000 1.0
C      1  0.4970850000000  0.4399840000000  0.5600100000000 1.0
C      1  0.4518390000000  0.4116160000000  0.4607020000000 1.0
C      1  0.4816250000000  0.5129120000000  0.5364280000000 1.0
C      1  0.4549100000000  0.4791420000000  0.5670490000000 1.0
C      1  0.4682800000000  0.5375820000000  0.4939160000000 1.0
C      1  0.4976140000000  0.5394300000000  0.5459330000000 1.0
C      1  0.5736580000000  0.5623630000000  0.5028960000000 1.0
C      1  0.4079230000000  0.4312210000000  0.4718360000000 1.0
C      1  0.4930950000000  0.5572310000000  0.4368710000000 1.0
C      1  0.4580960000000  0.5091640000000  0.4529840000000 1.0
C      1  0.5480440000000  0.4597380000000  0.4625480000000 1.0
C      1  0.4981060000000  0.4110850000000  0.4430390000000 1.0
C      1  0.5275610000000  0.4559380000000  0.4395150000000 1.0
C      1  0.5038460000000  0.4419470000000  0.4520370000000 1.0
C      1  0.4665770000000  0.5063900000000  0.5073440000000 1.0
C      1  0.5652190000000  0.4984420000000  0.4768280000000 1.0
C      1  0.5270770000000  0.5028390000000  0.4360130000000 1.0
C      1  0.4978260000000  0.5202630000000  0.4006420000000 1.0
C      1  0.5012780000000  0.4869500000000  0.4449720000000 1.0
C      1  0.5059870000000  0.5316390000000  0.4548140000000 1.0
C      1  0.4707030000000  0.6088550000000  0.4860090000000 1.0
C      1  0.5449260000000  0.5499520000000  0.5697120000000 1.0
C      1  0.6120230000000  0.5353650000000  0.5258680000000 1.0
C      1  0.4517210000000  0.5535120000000  0.4743910000000 1.0
C      1  0.5228960000000  0.4231260000000  0.4718880000000 1.0
C      1  0.5453190000000  0.5823340000000  0.4660080000000 1.0
C      1  0.4814460000000  0.4024900000000  0.5103600000000 1.0
C      1  0.5474310000000  0.5839940000000  0.5000250000000 1.0
C      1  0.4316010000000  0.4165700000000  0.4812420000000 1.0
C      1  0.5541300000000  0.4916960000000  0.4225760000000 1.0
C      1  0.5500940000000  0.4372550000000  0.4852060000000 1.0
C      1  0.5553530000000  0.4027370000000  0.4815520000000 1.0
C      1  0.4734530000000  0.5178210000000  0.5913950000000 1.0
C      1  0.4335850000000  0.4777510000000  0.4785610000000 1.0
C      1  0.5546530000000  0.4997460000000  0.5217800000000 1.0
C      1  0.4719650000000  0.5737570000000  0.5102490000000 1.0
C      1  0.5767050000000  0.4698070000000  0.4472440000000 1.0
C      1  0.4862270000000  0.6372020000000  0.4850270000000 1.0
C      1  0.4625770000000  0.4790730000000  0.4512450000000 1.0
C      1  0.4919890000000  0.4729240000000  0.5512720000000 1.0
C      1  0.4513890000000  0.5873830000000  0.4790750000000 1.0
C      1  0.5296170000000  0.5376960000000  0.4863670000000 1.0
C      1  0.4132380000000  0.4754240000000  0.5189640000000 1.0
C      1  0.5173310000000  0.4212000000000  0.5205200000000 1.0
C      1  0.5024960000000  0.5962550000000  0.5438860000000 1.0
C      1  0.4203080000000  0.5404990000000  0.4398810000000 1.0
C      1  0.4794190000000  0.4807370000000  0.4223940000000 1.0
C      1  0.6203970000000  0.5095170000000  0.5307030000000 1.0
C      1  0.5938880000000  0.5154890000000  0.4667990000000 1.0
C      1  0.4590420000000  0.4548690000000  0.5129570000000 1.0
C      1  0.5023570000000  0.5208100000000  0.4842310000000 1.0
C      1  0.4633430000000  0.4233590000000  0.5255570000000 1.0
C      1  0.5211500000000  0.5976070000000  0.5171680000000 1.0
C      1  0.4866840000000  0.5181920000000  0.6190780000000 1.0
C      1  0.4257390000000  0.4505140000000  0.5165260000000 1.0
C      1  0.4667440000000  0.5667430000000  0.5645690000000 1.0
C      1  0.5075360000000  0.5038220000000  0.6215510000000 1.0
C      1  0.5367980000000  0.4913500000000  0.4666480000000 1.0
C      1  0.5315480000000  0.4160600000000  0.4394000000000 1.0
C      1  0.6086330000000  0.4884820000000  0.5187000000000 1.0
C      1  0.5595960000000  0.4748650000000  0.5646930000000 1.0
C      1  0.4590250000000  0.5424800000000  0.5767500000000 1.0
C      1  0.5699770000000  0.5332750000000  0.4536640000000 1.0
C      1  0.5362140000000  0.4042990000000  0.5092130000000 1.0
C      1  0.4358510000000  0.4228680000000  0.5088060000000 1.0
C      1  0.4391270000000  0.5235820000000  0.4706550000000 1.0
C      1  0.5389810000000  0.4716130000000  0.5161910000000 1.0
C      1  0.3889220000000  0.4196660000000  0.4562970000000 1.0
C      1  0.5012950000000  0.4363750000000  0.5028070000000 1.0
C      1  0.5958920000000  0.4955770000000  0.4923400000000 1.0
C      1  0.5781120000000  0.5029190000000  0.4393990000000 1.0
C      1  0.4913480000000  0.3930400000000  0.4865950000000 1.0
C      1  0.4667660000000  0.4312360000000  0.5570800000000 1.0
C      1  0.4975040000000  0.4901400000000  0.4737310000000 1.0
C      1  0.5226570000000  0.3909040000000  0.4827870000000 1.0
C      1  0.5210840000000  0.4771560000000  0.4933090000000 1.0
C      1  0.5167420000000  0.4889740000000  0.5958560000000 1.0
C      1  0.4479820000000  0.4286590000000  0.4379940000000 1.0
C      1  0.5136340000000  0.5076340000000  0.5279340000000 1.0
C      1  0.5354020000000  0.4581700000000  0.5818240000000 1.0
C      1  0.4430650000000  0.5574980000000  0.4283080000000 1.0
C      1  0.5669170000000  0.5334010000000  0.5408200000000 1.0
C      1  0.4738440000000  0.5940790000000  0.5344730000000 1.0
C      1  0.4152930000000  0.5507570000000  0.5025140000000 1.0
C      1  0.5659980000000  0.5609220000000  0.4731550000000 1.0
C      1  0.5061900000000  0.5244130000000  0.5695950000000 1.0
C      1  0.4613050000000  0.5447600000000  0.5244480000000 1.0
C      1  0.4624310000000  0.4769990000000  0.5348850000000 1.0
C      1  0.5229920000000  0.5804410000000  0.4486630000000 1.0
C      1  0.4925120000000  0.4956790000000  0.5734480000000 1.0
C      1  0.4923700000000  0.5792590000000  0.5665200000000 1.0
C      1  0.5244760000000  0.4638830000000  0.5439550000000 1.0
C      1  0.4379140000000  0.5724930000000  0.5066260000000 1.0
C      1  0.4906920000000  0.4477750000000  0.4806610000000 1.0
C      1  0.4034440000000  0.5062790000000  0.4752180000000 1.0
C      1  0.5258090000000  0.5543850000000  0.4288980000000 1.0
C      1  0.4473980000000  0.5046830000000  0.5775530000000 1.0
C      1  0.5205120000000  0.5661850000000  0.4926790000000 1.0
C      1  0.5709610000000  0.4787330000000  0.5388700000000 1.0
C      1  0.5319270000000  0.5271780000000  0.5794330000000 1.0
C      1  0.4744620000000  0.5067640000000  0.4062970000000 1.0
C      1  0.5455740000000  0.4982770000000  0.5836650000000 1.0
C      1  0.4971460000000  0.5403030000000  0.5118220000000 1.0
C      1  0.4936440000000  0.4894810000000  0.5069470000000 1.0
C      1  0.4239110000000  0.5494190000000  0.5360540000000 1.0
C      1  0.4196840000000  0.5213040000000  0.5170550000000 1.0
C      1  0.5827880000000  0.4697420000000  0.4796020000000 1.0
C      1  0.5646420000000  0.5143050000000  0.5603570000000 1.0
C      1  0.4068940000000  0.4573760000000  0.4820680000000 1.0
END
