TITL C-2778432-5617-51 -0.10524985229083 125000 -303.007012918073 0 0 54 (C1) n - 1
REM
REM in /home/nfs/bkarasulu/CARBON/AIRSS/Generating-Clusters/REBO/Only-C1/SD-CG/HFTN-CG
REM
REM
REM
REM
REM
REM ./C.cell (11c1c37f851c82e70ff6c80c92926a4b)
REM
REM compiler GCC version 9.2.1 20190827 (Red Hat 9.2.1-1)
REM options -cpp -mtune=generic -march=x86-64 -g -O0 -fpre-include=/usr/include/finclude/math-vector-fortran.h
REM seed -1319309934 1000709226 -1143598595 -24853999 -535267298 -590770282 176063859 1192579792 1092840823 719686064 -327898920 2074754406 601039170 262062366 1203027423 -1046223356 1695044915 -738022642 -1734538834 -1672428357 1945549566 -1181452812 2122510994 1880852535 -1235034511 -2144741679 -1018716745 -1995297416 -50888526 -2028375400 368233400 2001707935 -1618743643
REM
CELL 1.54180   50.00000   50.00000   50.00000   90.00000   90.00000   90.00000
LATT -1
SFAC C  
C      1  0.4761800000000  0.5225570000000  0.5840370000000 1.0
C      1  0.5192400000000  0.4439830000000  0.5304390000000 1.0
C      1  0.5120860000000  0.5472010000000  0.4194540000000 1.0
C      1  0.5256240000000  0.4781060000000  0.4146820000000 1.0
C      1  0.5178250000000  0.5483470000000  0.5143830000000 1.0
C      1  0.5379420000000  0.4491170000000  0.5060750000000 1.0
C      1  0.5205480000000  0.5375910000000  0.4482570000000 1.0
C      1  0.4662370000000  0.4804870000000  0.6033830000000 1.0
C      1  0.4764580000000  0.4930470000000  0.4866610000000 1.0
C      1  0.4704200000000  0.4421890000000  0.4974580000000 1.0
C      1  0.4413190000000  0.4765690000000  0.4673910000000 1.0
C      1  0.4915260000000  0.4492530000000  0.5481010000000 1.0
C      1  0.3996590000000  0.5036320000000  0.4760210000000 1.0
C      1  0.5626460000000  0.4812690000000  0.5272050000000 1.0
C      1  0.4695470000000  0.5701540000000  0.4642480000000 1.0
C      1  0.5798120000000  0.4916140000000  0.4658430000000 1.0
C      1  0.4223600000000  0.4915820000000  0.4843570000000 1.0
C      1  0.4543170000000  0.5486650000000  0.5540050000000 1.0
C      1  0.4885100000000  0.4391390000000  0.5163720000000 1.0
C      1  0.4604660000000  0.4810780000000  0.5083640000000 1.0
C      1  0.5206950000000  0.5752760000000  0.5071260000000 1.0
C      1  0.4699950000000  0.5436910000000  0.5344930000000 1.0
C      1  0.4603010000000  0.4890840000000  0.4504320000000 1.0
C      1  0.5682720000000  0.4122460000000  0.4835600000000 1.0
C      1  0.4709850000000  0.5433500000000  0.4606630000000 1.0
C      1  0.4912430000000  0.4808410000000  0.5590330000000 1.0
C      1  0.5182460000000  0.4898900000000  0.5483640000000 1.0
C      1  0.5042320000000  0.4845120000000  0.4298930000000 1.0
C      1  0.5351000000000  0.5276580000000  0.5182200000000 1.0
C      1  0.5397310000000  0.4692500000000  0.5404130000000 1.0
C      1  0.5243100000000  0.5001160000000  0.5206840000000 1.0
C      1  0.5092580000000  0.4871160000000  0.4862050000000 1.0
C      1  0.4880890000000  0.5322340000000  0.4383950000000 1.0
C      1  0.4743290000000  0.5255350000000  0.4845640000000 1.0
C      1  0.4523690000000  0.4534330000000  0.4806180000000 1.0
C      1  0.4704130000000  0.4714450000000  0.5345130000000 1.0
C      1  0.4714210000000  0.4951920000000  0.5800540000000 1.0
C      1  0.5293530000000  0.5296820000000  0.4729570000000 1.0
C      1  0.5358800000000  0.4778370000000  0.4977120000000 1.0
C      1  0.5068500000000  0.5186690000000  0.4899330000000 1.0
C      1  0.4522370000000  0.4881920000000  0.5549730000000 1.0
C      1  0.4333250000000  0.4912570000000  0.5109610000000 1.0
C      1  0.4883160000000  0.5378790000000  0.5116920000000 1.0
C      1  0.5861120000000  0.4664500000000  0.5253110000000 1.0
C      1  0.4804480000000  0.5036940000000  0.4319970000000 1.0
C      1  0.5056030000000  0.5923060000000  0.4921060000000 1.0
C      1  0.5599140000000  0.4858610000000  0.4807560000000 1.0
C      1  0.5624330000000  0.5090420000000  0.5132260000000 1.0
C      1  0.4916330000000  0.4779660000000  0.4599190000000 1.0
C      1  0.5846250000000  0.5222490000000  0.4910910000000 1.0
C      1  0.4301000000000  0.4964600000000  0.5395970000000 1.0
C      1  0.5542400000000  0.5253420000000  0.4833670000000 1.0
C      1  0.4840070000000  0.5901140000000  0.4756990000000 1.0
C      1  0.5532140000000  0.4305520000000  0.4947380000000 1.0
END
