TITL C-2778431-5191-821 -0.117488830524395 125000 -863.404704088603 0 0 149 (C1) n - 1
REM
REM in /home/nfs/bkarasulu/CARBON/AIRSS/Generating-Clusters/REBO/Only-C1/SD-CG/HFTN-CG
REM
REM
REM
REM
REM
REM ./C.cell (11c1c37f851c82e70ff6c80c92926a4b)
REM
REM compiler GCC version 9.2.1 20190827 (Red Hat 9.2.1-1)
REM options -cpp -mtune=generic -march=x86-64 -g -O0 -fpre-include=/usr/include/finclude/math-vector-fortran.h
REM seed 1588955983 588662752 -867821901 1395988443 2081876462 -306963699 -1299026571 -53872124 1382576979 -811628269 243725073 -319703526 156293725 1221444046 -1389561660 1497347540 941717701 241101125 -9984831 -1356476767 2052351121 1329744050 980335077 -1417343614 -1345585119 815366806 -1491427242 -1777853810 491134304 -1158255814 1759469216 -1389819168 -1747052656
REM
CELL 1.54180   50.00000   50.00000   50.00000   90.00000   90.00000   90.00000
LATT -1
SFAC C  
C      1  0.4777180000000  0.4745410000000  0.3659700000000 1.0
C      1  0.5427340000000  0.4860690000000  0.4540060000000 1.0
C      1  0.5436310000000  0.5347510000000  0.5479480000000 1.0
C      1  0.5339300000000  0.5456130000000  0.4645390000000 1.0
C      1  0.5908810000000  0.5670080000000  0.4562610000000 1.0
C      1  0.4882570000000  0.5042860000000  0.5204030000000 1.0
C      1  0.4423300000000  0.5024910000000  0.5818940000000 1.0
C      1  0.4916280000000  0.6051140000000  0.5284710000000 1.0
C      1  0.4578350000000  0.4720780000000  0.4698960000000 1.0
C      1  0.5696760000000  0.4908710000000  0.4373690000000 1.0
C      1  0.5443610000000  0.5377660000000  0.5877620000000 1.0
C      1  0.5394380000000  0.4864760000000  0.4116730000000 1.0
C      1  0.5203470000000  0.4563700000000  0.5621790000000 1.0
C      1  0.4579610000000  0.4267080000000  0.4477660000000 1.0
C      1  0.5269400000000  0.4992060000000  0.5681680000000 1.0
C      1  0.4971270000000  0.4512330000000  0.5122320000000 1.0
C      1  0.5388110000000  0.4188820000000  0.5573030000000 1.0
C      1  0.5228270000000  0.4637510000000  0.4951100000000 1.0
C      1  0.5695400000000  0.5775180000000  0.4709770000000 1.0
C      1  0.5907060000000  0.5134150000000  0.5430490000000 1.0
C      1  0.5577460000000  0.5588430000000  0.4355610000000 1.0
C      1  0.5715940000000  0.4585780000000  0.4478430000000 1.0
C      1  0.5998240000000  0.4725920000000  0.4987000000000 1.0
C      1  0.5536370000000  0.5274710000000  0.5096290000000 1.0
C      1  0.5833150000000  0.5627140000000  0.5270980000000 1.0
C      1  0.5233100000000  0.4946010000000  0.4805660000000 1.0
C      1  0.5773890000000  0.5276300000000  0.4880160000000 1.0
C      1  0.4886860000000  0.5807110000000  0.5648570000000 1.0
C      1  0.4971580000000  0.5131210000000  0.5669410000000 1.0
C      1  0.5607960000000  0.4662120000000  0.4973960000000 1.0
C      1  0.3996160000000  0.4856400000000  0.4462370000000 1.0
C      1  0.5131650000000  0.5510250000000  0.4412220000000 1.0
C      1  0.5322900000000  0.4305260000000  0.4936970000000 1.0
C      1  0.4974560000000  0.4644730000000  0.5863380000000 1.0
C      1  0.5156120000000  0.5951050000000  0.5504530000000 1.0
C      1  0.4804930000000  0.4266420000000  0.5549710000000 1.0
C      1  0.4731110000000  0.5225700000000  0.4578480000000 1.0
C      1  0.5744270000000  0.4969120000000  0.5676470000000 1.0
C      1  0.5695730000000  0.4128290000000  0.4821690000000 1.0
C      1  0.5133200000000  0.4441900000000  0.4279920000000 1.0
C      1  0.5620270000000  0.4651640000000  0.4158620000000 1.0
C      1  0.4881200000000  0.5519320000000  0.4591320000000 1.0
C      1  0.5427520000000  0.5132720000000  0.4183710000000 1.0
C      1  0.4650060000000  0.5892660000000  0.5254470000000 1.0
C      1  0.4360130000000  0.4836270000000  0.4874510000000 1.0
C      1  0.5072160000000  0.5735500000000  0.3870550000000 1.0
C      1  0.4593380000000  0.4484520000000  0.4289900000000 1.0
C      1  0.4760110000000  0.4792210000000  0.3931950000000 1.0
C      1  0.4988780000000  0.4059550000000  0.4635770000000 1.0
C      1  0.4563310000000  0.5599780000000  0.4280690000000 1.0
C      1  0.4701230000000  0.4022870000000  0.4600180000000 1.0
C      1  0.5955080000000  0.5464340000000  0.4376400000000 1.0
C      1  0.4474310000000  0.5246100000000  0.4769140000000 1.0
C      1  0.3887280000000  0.4970560000000  0.5013920000000 1.0
C      1  0.5271900000000  0.5465210000000  0.5144000000000 1.0
C      1  0.4451270000000  0.4269090000000  0.5205330000000 1.0
C      1  0.5081990000000  0.5155740000000  0.5991710000000 1.0
C      1  0.5486510000000  0.4958690000000  0.5212930000000 1.0
C      1  0.4477990000000  0.4721720000000  0.4410310000000 1.0
C      1  0.4957640000000  0.5576300000000  0.5807730000000 1.0
C      1  0.4229110000000  0.4478690000000  0.5799620000000 1.0
C      1  0.4533530000000  0.5895120000000  0.4676790000000 1.0
C      1  0.4664470000000  0.5033100000000  0.4044290000000 1.0
C      1  0.5203760000000  0.5136050000000  0.5225450000000 1.0
C      1  0.4372080000000  0.4244110000000  0.5830950000000 1.0
C      1  0.4316720000000  0.4403380000000  0.4942240000000 1.0
C      1  0.4607850000000  0.4164100000000  0.5721730000000 1.0
C      1  0.4497610000000  0.5502650000000  0.5612690000000 1.0
C      1  0.4825180000000  0.4680050000000  0.5587340000000 1.0
C      1  0.5077540000000  0.4371830000000  0.4588980000000 1.0
C      1  0.4798730000000  0.5928170000000  0.4517150000000 1.0
C      1  0.5250950000000  0.4444770000000  0.5304490000000 1.0
C      1  0.5217200000000  0.5279950000000  0.4857150000000 1.0
C      1  0.5298430000000  0.5650360000000  0.5432020000000 1.0
C      1  0.4928280000000  0.4994060000000  0.4664420000000 1.0
C      1  0.5727380000000  0.4687630000000  0.5660460000000 1.0
C      1  0.4926360000000  0.5389140000000  0.4880230000000 1.0
C      1  0.4004150000000  0.5225230000000  0.5070600000000 1.0
C      1  0.5574430000000  0.4467260000000  0.5201170000000 1.0
C      1  0.4356410000000  0.5683310000000  0.4520160000000 1.0
C      1  0.5414430000000  0.5727650000000  0.4234500000000 1.0
C      1  0.4160150000000  0.5426030000000  0.4540450000000 1.0
C      1  0.4689080000000  0.4461570000000  0.5307800000000 1.0
C      1  0.5684100000000  0.5838570000000  0.5356570000000 1.0
C      1  0.4805210000000  0.5764380000000  0.4285170000000 1.0
C      1  0.4160400000000  0.5520500000000  0.5052170000000 1.0
C      1  0.5463760000000  0.4402470000000  0.4327090000000 1.0
C      1  0.4892730000000  0.5777680000000  0.4796470000000 1.0
C      1  0.4848860000000  0.5178850000000  0.4268080000000 1.0
C      1  0.4204170000000  0.4651690000000  0.5507060000000 1.0
C      1  0.4922130000000  0.5540380000000  0.5318730000000 1.0
C      1  0.5147470000000  0.4960680000000  0.4416190000000 1.0
C      1  0.4731980000000  0.4988340000000  0.5509670000000 1.0
C      1  0.4544870000000  0.5293500000000  0.4232070000000 1.0
C      1  0.4364880000000  0.5200360000000  0.5563610000000 1.0
C      1  0.4808640000000  0.5345220000000  0.5132390000000 1.0
C      1  0.4265120000000  0.4908380000000  0.4388360000000 1.0
C      1  0.5498120000000  0.4294540000000  0.4643120000000 1.0
C      1  0.4321580000000  0.5516470000000  0.5331730000000 1.0
C      1  0.5022940000000  0.5776100000000  0.5173310000000 1.0
C      1  0.5313770000000  0.4815060000000  0.5433250000000 1.0
C      1  0.5812260000000  0.4506940000000  0.5404160000000 1.0
C      1  0.6049970000000  0.4599760000000  0.5228270000000 1.0
C      1  0.3970350000000  0.4725400000000  0.5214180000000 1.0
C      1  0.4568820000000  0.4418910000000  0.4756770000000 1.0
C      1  0.4462320000000  0.5063240000000  0.5057020000000 1.0
C      1  0.5503780000000  0.5107100000000  0.5791110000000 1.0
C      1  0.4725390000000  0.5397130000000  0.5836250000000 1.0
C      1  0.5242980000000  0.5550210000000  0.5758750000000 1.0
C      1  0.4293530000000  0.4785230000000  0.5809650000000 1.0
C      1  0.4668000000000  0.5122240000000  0.5928710000000 1.0
C      1  0.5011020000000  0.4763040000000  0.5334460000000 1.0
C      1  0.4354910000000  0.5184140000000  0.4452380000000 1.0
C      1  0.5752830000000  0.4961290000000  0.5000370000000 1.0
C      1  0.4610680000000  0.5778330000000  0.4978420000000 1.0
C      1  0.5107740000000  0.4750310000000  0.4176040000000 1.0
C      1  0.5418190000000  0.5725650000000  0.4774630000000 1.0
C      1  0.4553540000000  0.3917060000000  0.4830960000000 1.0
C      1  0.4858550000000  0.4371080000000  0.4849150000000 1.0
C      1  0.5593240000000  0.4379940000000  0.5634210000000 1.0
C      1  0.5364410000000  0.4133150000000  0.5237700000000 1.0
C      1  0.4888220000000  0.4920410000000  0.5996710000000 1.0
C      1  0.5648360000000  0.5370990000000  0.4611240000000 1.0
C      1  0.5330080000000  0.4585550000000  0.4654120000000 1.0
C      1  0.4110550000000  0.4656780000000  0.4915520000000 1.0
C      1  0.5095580000000  0.5315810000000  0.5470260000000 1.0
C      1  0.5907150000000  0.5360710000000  0.5184840000000 1.0
C      1  0.5095380000000  0.5724560000000  0.4149830000000 1.0
C      1  0.4881910000000  0.4121310000000  0.5090430000000 1.0
C      1  0.3910400000000  0.4834570000000  0.4728170000000 1.0
C      1  0.5190810000000  0.5814310000000  0.4920810000000 1.0
C      1  0.5693700000000  0.5332820000000  0.5521100000000 1.0
C      1  0.4391210000000  0.5558930000000  0.4837550000000 1.0
C      1  0.5482760000000  0.6002360000000  0.5441720000000 1.0
C      1  0.4608900000000  0.4027820000000  0.5092960000000 1.0
C      1  0.4179420000000  0.4459100000000  0.5253460000000 1.0
C      1  0.5724480000000  0.5218950000000  0.4323830000000 1.0
C      1  0.5818750000000  0.4580180000000  0.4751560000000 1.0
C      1  0.4783510000000  0.4870810000000  0.4925120000000 1.0
C      1  0.4594260000000  0.4768870000000  0.5189860000000 1.0
C      1  0.4420660000000  0.4884730000000  0.5444830000000 1.0
C      1  0.5149640000000  0.5250440000000  0.4258270000000 1.0
C      1  0.4271980000000  0.5195540000000  0.5246650000000 1.0
C      1  0.5111050000000  0.4069570000000  0.4908620000000 1.0
C      1  0.4933260000000  0.4428580000000  0.6038780000000 1.0
C      1  0.4844180000000  0.4553680000000  0.4132950000000 1.0
C      1  0.5659490000000  0.4158660000000  0.5093550000000 1.0
C      1  0.5080830000000  0.4259280000000  0.5614150000000 1.0
C      1  0.4642360000000  0.5767070000000  0.5509520000000 1.0
END
