TITL C-2778433-5640-371 0.000525650091149606 125000 -624.407071226878 0 0 108 (C1) n - 1
REM
REM in /home/nfs/bkarasulu/CARBON/AIRSS/Generating-Clusters/REBO/Only-C1/SD-CG/HFTN-CG
REM
REM
REM
REM
REM
REM ./C.cell (11c1c37f851c82e70ff6c80c92926a4b)
REM
REM compiler GCC version 9.2.1 20190827 (Red Hat 9.2.1-1)
REM options -cpp -mtune=generic -march=x86-64 -g -O0 -fpre-include=/usr/include/finclude/math-vector-fortran.h
REM seed -817378865 1821049353 1838149348 45510485 -1609607695 -1485634248 -718615034 940750073 -268230868 -1040753624 688737307 -966340514 -1664398160 975720718 1974074124 1625050228 25786930 -1675069162 -867891063 631781535 -167182515 -1514584055 -1266346779 269033715 -785419991 -2113600640 1868641979 -255416835 791437163 -460626004 1379375539 1466374159 1179167475
REM
CELL 1.54180   50.00000   50.00000   50.00000   90.00000   90.00000   90.00000
LATT -1
SFAC C  
C      1  0.4834840000000  0.5458550000000  0.5798730000000 1.0
C      1  0.5390300000000  0.4703420000000  0.5024100000000 1.0
C      1  0.4588480000000  0.5214060000000  0.4304840000000 1.0
C      1  0.5147620000000  0.5551950000000  0.4607660000000 1.0
C      1  0.4895370000000  0.5166960000000  0.5500550000000 1.0
C      1  0.4043570000000  0.5163820000000  0.4899640000000 1.0
C      1  0.5055180000000  0.5310060000000  0.4260900000000 1.0
C      1  0.4779280000000  0.4563600000000  0.4821080000000 1.0
C      1  0.5496660000000  0.5145280000000  0.5277430000000 1.0
C      1  0.5597850000000  0.5456430000000  0.4437630000000 1.0
C      1  0.4737590000000  0.5559250000000  0.5205620000000 1.0
C      1  0.5236980000000  0.5446960000000  0.5283980000000 1.0
C      1  0.4801310000000  0.5418280000000  0.4460220000000 1.0
C      1  0.4898690000000  0.4705350000000  0.5797760000000 1.0
C      1  0.5565150000000  0.4802320000000  0.5565210000000 1.0
C      1  0.5827870000000  0.5413740000000  0.4928460000000 1.0
C      1  0.4350650000000  0.5806400000000  0.5614420000000 1.0
C      1  0.4502000000000  0.4497870000000  0.5394270000000 1.0
C      1  0.4765270000000  0.4795510000000  0.5435060000000 1.0
C      1  0.5005260000000  0.5173880000000  0.4909600000000 1.0
C      1  0.4878760000000  0.5688800000000  0.4630200000000 1.0
C      1  0.4662220000000  0.4120240000000  0.4445680000000 1.0
C      1  0.5383650000000  0.4162380000000  0.5095430000000 1.0
C      1  0.5590020000000  0.4326850000000  0.5389270000000 1.0
C      1  0.5365950000000  0.5748400000000  0.4614570000000 1.0
C      1  0.4256790000000  0.4615910000000  0.4563230000000 1.0
C      1  0.4535390000000  0.4859820000000  0.4932590000000 1.0
C      1  0.5197510000000  0.4458610000000  0.4350770000000 1.0
C      1  0.4728700000000  0.4984170000000  0.4186110000000 1.0
C      1  0.4558120000000  0.4755920000000  0.4215830000000 1.0
C      1  0.5144490000000  0.5275890000000  0.4679970000000 1.0
C      1  0.5823060000000  0.4887840000000  0.4911000000000 1.0
C      1  0.5522410000000  0.4869810000000  0.4365460000000 1.0
C      1  0.4611430000000  0.5268570000000  0.4699570000000 1.0
C      1  0.4261790000000  0.4403280000000  0.4981100000000 1.0
C      1  0.4208090000000  0.4633370000000  0.4841490000000 1.0
C      1  0.4476270000000  0.5062940000000  0.5488380000000 1.0
C      1  0.5713570000000  0.4511410000000  0.5559100000000 1.0
C      1  0.5849300000000  0.5114570000000  0.5091550000000 1.0
C      1  0.5463970000000  0.5036880000000  0.4819430000000 1.0
C      1  0.4102890000000  0.5398630000000  0.4971180000000 1.0
C      1  0.4641930000000  0.5298960000000  0.5017400000000 1.0
C      1  0.4597060000000  0.4960560000000  0.4627900000000 1.0
C      1  0.5234760000000  0.5978370000000  0.4782060000000 1.0
C      1  0.5040040000000  0.4976220000000  0.5661390000000 1.0
C      1  0.5010910000000  0.5025770000000  0.4179180000000 1.0
C      1  0.5543760000000  0.4220220000000  0.4798180000000 1.0
C      1  0.5238290000000  0.5718610000000  0.4991530000000 1.0
C      1  0.5710180000000  0.4971930000000  0.4616430000000 1.0
C      1  0.4878370000000  0.4883470000000  0.4894350000000 1.0
C      1  0.4825150000000  0.4119200000000  0.5043650000000 1.0
C      1  0.5115900000000  0.5196540000000  0.5168920000000 1.0
C      1  0.4626720000000  0.4688350000000  0.5166010000000 1.0
C      1  0.5654310000000  0.5331240000000  0.5510360000000 1.0
C      1  0.5361800000000  0.5884320000000  0.5380210000000 1.0
C      1  0.4678860000000  0.4496210000000  0.4333820000000 1.0
C      1  0.4338090000000  0.5417730000000  0.4645030000000 1.0
C      1  0.5322060000000  0.5007710000000  0.5671440000000 1.0
C      1  0.4594140000000  0.4232880000000  0.5347500000000 1.0
C      1  0.5770960000000  0.5026720000000  0.5411820000000 1.0
C      1  0.5786840000000  0.5277480000000  0.4617660000000 1.0
C      1  0.4488100000000  0.4174130000000  0.5054130000000 1.0
C      1  0.4225330000000  0.4917560000000  0.4985260000000 1.0
C      1  0.5300230000000  0.4461980000000  0.4849870000000 1.0
C      1  0.4938670000000  0.5790120000000  0.5137260000000 1.0
C      1  0.4590320000000  0.5235420000000  0.5749430000000 1.0
C      1  0.4926430000000  0.4508040000000  0.5519460000000 1.0
C      1  0.5403390000000  0.4399960000000  0.4545980000000 1.0
C      1  0.5181940000000  0.4554140000000  0.5822770000000 1.0
C      1  0.4790800000000  0.4725740000000  0.4539000000000 1.0
C      1  0.5172710000000  0.5447280000000  0.5750240000000 1.0
C      1  0.5230390000000  0.4766890000000  0.4220650000000 1.0
C      1  0.5084870000000  0.4303440000000  0.5010450000000 1.0
C      1  0.5277780000000  0.5065820000000  0.4476560000000 1.0
C      1  0.4425450000000  0.4358030000000  0.4504580000000 1.0
C      1  0.5204530000000  0.4846670000000  0.4801190000000 1.0
C      1  0.4881370000000  0.4146360000000  0.4705970000000 1.0
C      1  0.4953070000000  0.5463870000000  0.5417420000000 1.0
C      1  0.4118890000000  0.5539350000000  0.4597110000000 1.0
C      1  0.4707900000000  0.5071890000000  0.5237630000000 1.0
C      1  0.5455880000000  0.5622050000000  0.5321580000000 1.0
C      1  0.4990680000000  0.5713590000000  0.5641320000000 1.0
C      1  0.4315780000000  0.4824430000000  0.4373290000000 1.0
C      1  0.5251540000000  0.4280150000000  0.5386030000000 1.0
C      1  0.5084260000000  0.5890270000000  0.5402920000000 1.0
C      1  0.4324330000000  0.5117710000000  0.4381880000000 1.0
C      1  0.5358580000000  0.5354460000000  0.4333390000000 1.0
C      1  0.5135900000000  0.4687590000000  0.5331620000000 1.0
C      1  0.5726280000000  0.5511670000000  0.5230880000000 1.0
C      1  0.4942380000000  0.4313900000000  0.4411610000000 1.0
C      1  0.4921380000000  0.4213030000000  0.5361740000000 1.0
C      1  0.5673080000000  0.4352720000000  0.5079060000000 1.0
C      1  0.5390910000000  0.5283570000000  0.5683500000000 1.0
C      1  0.4361510000000  0.5440970000000  0.5147630000000 1.0
C      1  0.5471970000000  0.5253020000000  0.5000540000000 1.0
C      1  0.5319540000000  0.4560350000000  0.5568680000000 1.0
C      1  0.4652520000000  0.4911320000000  0.5734410000000 1.0
C      1  0.4937290000000  0.4563880000000  0.5123880000000 1.0
C      1  0.5696080000000  0.4660450000000  0.5023390000000 1.0
C      1  0.4471430000000  0.5632050000000  0.5371600000000 1.0
C      1  0.5276870000000  0.4931880000000  0.5236150000000 1.0
C      1  0.4312380000000  0.5126260000000  0.5229890000000 1.0
C      1  0.4526580000000  0.5550450000000  0.5696230000000 1.0
C      1  0.5067760000000  0.4810970000000  0.4511120000000 1.0
C      1  0.5653660000000  0.5628860000000  0.4724960000000 1.0
C      1  0.5431130000000  0.5522380000000  0.4936220000000 1.0
C      1  0.4597620000000  0.4315970000000  0.4782720000000 1.0
C      1  0.4926130000000  0.5898940000000  0.4824870000000 1.0
END
