TITL C-2778437-8639-67 0.000769860954592816 125000 -300.290875029931 0 0 53 (C1) n - 1
REM
REM in /home/nfs/bkarasulu/CARBON/AIRSS/Generating-Clusters/REBO/Only-C1/SD-CG/HFTN-CG
REM
REM
REM
REM
REM
REM ./C.cell (11c1c37f851c82e70ff6c80c92926a4b)
REM
REM compiler GCC version 9.2.1 20190827 (Red Hat 9.2.1-1)
REM options -cpp -mtune=generic -march=x86-64 -g -O0 -fpre-include=/usr/include/finclude/math-vector-fortran.h
REM seed 1336113267 1414763435 1629810179 773383770 -1757500526 -1745328193 -1329064116 -626246161 -501624854 1485116970 -57704623 482582553 -437948071 -255065026 653149173 -1547513544 875771309 1564077838 575975346 -182048240 -1711239830 -1918882382 351399520 1164321009 -1178553693 1655666167 585585399 1158229696 1697643924 996839368 -1014926127 325334909 196521504
REM
CELL 1.54180   50.00000   50.00000   50.00000   90.00000   90.00000   90.00000
LATT -1
SFAC C  
C      1  0.4702050000000  0.4405480000000  0.4854570000000 1.0
C      1  0.4824340000000  0.5099480000000  0.5653790000000 1.0
C      1  0.4379960000000  0.4637900000000  0.4838530000000 1.0
C      1  0.4957250000000  0.4939880000000  0.4851000000000 1.0
C      1  0.4523020000000  0.4834640000000  0.5311850000000 1.0
C      1  0.5102700000000  0.5077090000000  0.5107130000000 1.0
C      1  0.4862620000000  0.4684130000000  0.4919540000000 1.0
C      1  0.5275090000000  0.4524870000000  0.5383850000000 1.0
C      1  0.4519240000000  0.5166780000000  0.5231940000000 1.0
C      1  0.4475580000000  0.5138940000000  0.4899460000000 1.0
C      1  0.4584900000000  0.5497110000000  0.5291910000000 1.0
C      1  0.4916660000000  0.5693450000000  0.4799550000000 1.0
C      1  0.5574250000000  0.4740690000000  0.4997350000000 1.0
C      1  0.5269490000000  0.5433280000000  0.5037930000000 1.0
C      1  0.4912940000000  0.5309870000000  0.5165840000000 1.0
C      1  0.4723410000000  0.5646490000000  0.5556310000000 1.0
C      1  0.5510060000000  0.5135980000000  0.5421760000000 1.0
C      1  0.5359410000000  0.5359210000000  0.4539910000000 1.0
C      1  0.4735250000000  0.4420970000000  0.4537550000000 1.0
C      1  0.5163980000000  0.5270890000000  0.4319460000000 1.0
C      1  0.5158210000000  0.4708270000000  0.4466800000000 1.0
C      1  0.4905910000000  0.5124650000000  0.4585370000000 1.0
C      1  0.5046900000000  0.4913450000000  0.5477530000000 1.0
C      1  0.5239450000000  0.5598200000000  0.4742990000000 1.0
C      1  0.5082810000000  0.4439600000000  0.5146460000000 1.0
C      1  0.5163920000000  0.4276750000000  0.4704280000000 1.0
C      1  0.4990490000000  0.4305910000000  0.4926640000000 1.0
C      1  0.4867590000000  0.4661580000000  0.4452320000000 1.0
C      1  0.4329790000000  0.4873200000000  0.5049350000000 1.0
C      1  0.5527340000000  0.4581470000000  0.4770170000000 1.0
C      1  0.5055700000000  0.5321870000000  0.4795710000000 1.0
C      1  0.4972400000000  0.4523840000000  0.5518060000000 1.0
C      1  0.4977250000000  0.5674870000000  0.5545670000000 1.0
C      1  0.5503870000000  0.4652890000000  0.5262680000000 1.0
C      1  0.4723220000000  0.5318900000000  0.4882020000000 1.0
C      1  0.5101550000000  0.5572620000000  0.5278940000000 1.0
C      1  0.5016670000000  0.4770330000000  0.5206500000000 1.0
C      1  0.5862950000000  0.5133340000000  0.4947610000000 1.0
C      1  0.5472710000000  0.5101180000000  0.4658120000000 1.0
C      1  0.5263830000000  0.4982460000000  0.4450070000000 1.0
C      1  0.4547050000000  0.4548040000000  0.5121960000000 1.0
C      1  0.4642780000000  0.5256760000000  0.5525740000000 1.0
C      1  0.5099700000000  0.5033950000000  0.5800990000000 1.0
C      1  0.5345590000000  0.5018870000000  0.5598200000000 1.0
C      1  0.5412680000000  0.5168810000000  0.5132690000000 1.0
C      1  0.4495660000000  0.4884570000000  0.4691030000000 1.0
C      1  0.4826150000000  0.5637850000000  0.5095380000000 1.0
C      1  0.5596020000000  0.5040300000000  0.4929610000000 1.0
C      1  0.4879410000000  0.5370460000000  0.4367080000000 1.0
C      1  0.5308920000000  0.4503860000000  0.4608280000000 1.0
C      1  0.4721270000000  0.4889810000000  0.4529070000000 1.0
C      1  0.4728990000000  0.4581800000000  0.5408600000000 1.0
C      1  0.4761010000000  0.5512420000000  0.4604830000000 1.0
END
