TITL C-2778429-3646-457 0.00829783152672681 125000 -1113.36805919233 0 0 193 (C1) n - 1
REM
REM in /home/nfs/bkarasulu/CARBON/AIRSS/Generating-Clusters/REBO/Only-C1/SD-CG/HFTN-CG
REM
REM
REM
REM
REM
REM ./C.cell (11c1c37f851c82e70ff6c80c92926a4b)
REM
REM compiler GCC version 9.2.1 20190827 (Red Hat 9.2.1-1)
REM options -cpp -mtune=generic -march=x86-64 -g -O0 -fpre-include=/usr/include/finclude/math-vector-fortran.h
REM seed -499401065 -947738769 349609683 853962520 44649649 1728604291 -1434634790 -2134121770 1554271377 -761194552 392104395 842920341 -599002380 -831351850 -489435670 -1369934426 69914452 -1604773083 -1933903580 -1126912420 -1673597279 1805442446 79988175 1941864866 1703142431 -575277477 910343104 -1891690438 1655195931 224771365 1355790513 573445144 1687114368
REM
CELL 1.54180   50.00000   50.00000   50.00000   90.00000   90.00000   90.00000
LATT -1
SFAC C  
C      1  0.4531750000000  0.5078070000000  0.4400340000000 1.0
C      1  0.5631890000000  0.5996400000000  0.5184730000000 1.0
C      1  0.5177980000000  0.4262210000000  0.4831770000000 1.0
C      1  0.5015950000000  0.4925340000000  0.5671430000000 1.0
C      1  0.5505640000000  0.4109770000000  0.5162150000000 1.0
C      1  0.5702150000000  0.4888740000000  0.4840450000000 1.0
C      1  0.5630760000000  0.5569470000000  0.5805130000000 1.0
C      1  0.4604430000000  0.4866350000000  0.3890290000000 1.0
C      1  0.5005390000000  0.4085890000000  0.5053190000000 1.0
C      1  0.5273460000000  0.3892460000000  0.5133310000000 1.0
C      1  0.5464170000000  0.5086530000000  0.5589880000000 1.0
C      1  0.4876650000000  0.5213340000000  0.6016720000000 1.0
C      1  0.4625460000000  0.5572520000000  0.4304070000000 1.0
C      1  0.5302660000000  0.6024830000000  0.5172540000000 1.0
C      1  0.4698940000000  0.4564010000000  0.5208580000000 1.0
C      1  0.4879160000000  0.5745650000000  0.5711830000000 1.0
C      1  0.5894170000000  0.4977440000000  0.5539440000000 1.0
C      1  0.5341840000000  0.4323920000000  0.5683340000000 1.0
C      1  0.5417130000000  0.5816370000000  0.4466530000000 1.0
C      1  0.5533640000000  0.4231770000000  0.5446720000000 1.0
C      1  0.6040670000000  0.5241510000000  0.4773990000000 1.0
C      1  0.5612340000000  0.5139770000000  0.4975690000000 1.0
C      1  0.5859820000000  0.5487440000000  0.4623560000000 1.0
C      1  0.5003270000000  0.4979760000000  0.6160750000000 1.0
C      1  0.4762460000000  0.5521210000000  0.5925900000000 1.0
C      1  0.5232800000000  0.4699900000000  0.5752690000000 1.0
C      1  0.4530390000000  0.6043960000000  0.4448390000000 1.0
C      1  0.4373540000000  0.5650450000000  0.5593780000000 1.0
C      1  0.5351370000000  0.5271030000000  0.4800660000000 1.0
C      1  0.5480980000000  0.6027740000000  0.4879210000000 1.0
C      1  0.4868110000000  0.4339290000000  0.4778520000000 1.0
C      1  0.4657460000000  0.5700870000000  0.5129850000000 1.0
C      1  0.4994350000000  0.4661160000000  0.6068820000000 1.0
C      1  0.5381620000000  0.5383650000000  0.5330970000000 1.0
C      1  0.4190370000000  0.5762200000000  0.5037910000000 1.0
C      1  0.4100770000000  0.5252020000000  0.5419400000000 1.0
C      1  0.5624040000000  0.5380930000000  0.5529050000000 1.0
C      1  0.4913750000000  0.5179710000000  0.4556760000000 1.0
C      1  0.5016780000000  0.5697950000000  0.4767300000000 1.0
C      1  0.4433310000000  0.4078860000000  0.4635420000000 1.0
C      1  0.5473290000000  0.5814180000000  0.5761460000000 1.0
C      1  0.4912040000000  0.4245790000000  0.5322920000000 1.0
C      1  0.4149400000000  0.5332690000000  0.5719210000000 1.0
C      1  0.5718570000000  0.4727980000000  0.4338670000000 1.0
C      1  0.4530390000000  0.5168290000000  0.5129160000000 1.0
C      1  0.5295000000000  0.5062220000000  0.4537090000000 1.0
C      1  0.5338860000000  0.4989720000000  0.4202420000000 1.0
C      1  0.5242220000000  0.6026500000000  0.4638880000000 1.0
C      1  0.4574780000000  0.4523430000000  0.4477100000000 1.0
C      1  0.4072490000000  0.4908050000000  0.4490440000000 1.0
C      1  0.5153910000000  0.4727870000000  0.5149120000000 1.0
C      1  0.5700080000000  0.4779290000000  0.5224950000000 1.0
C      1  0.4872610000000  0.4640350000000  0.5594810000000 1.0
C      1  0.4436450000000  0.5456600000000  0.5853880000000 1.0
C      1  0.4885620000000  0.4771580000000  0.5217430000000 1.0
C      1  0.4921020000000  0.5280040000000  0.5280490000000 1.0
C      1  0.4886940000000  0.5571750000000  0.5429680000000 1.0
C      1  0.4962410000000  0.5235200000000  0.5691010000000 1.0
C      1  0.5023590000000  0.5744170000000  0.4463100000000 1.0
C      1  0.5546110000000  0.4919690000000  0.5866490000000 1.0
C      1  0.4941170000000  0.5083680000000  0.4860990000000 1.0
C      1  0.4469540000000  0.5112150000000  0.5658280000000 1.0
C      1  0.4952230000000  0.4088320000000  0.4448160000000 1.0
C      1  0.5568760000000  0.4093640000000  0.4489160000000 1.0
C      1  0.5513770000000  0.5708440000000  0.4934730000000 1.0
C      1  0.5611850000000  0.4966910000000  0.4553490000000 1.0
C      1  0.5201060000000  0.5684510000000  0.5688430000000 1.0
C      1  0.4196350000000  0.4606450000000  0.4392620000000 1.0
C      1  0.5774320000000  0.4240600000000  0.4618080000000 1.0
C      1  0.5948610000000  0.4979640000000  0.4349610000000 1.0
C      1  0.4450440000000  0.4827930000000  0.5518330000000 1.0
C      1  0.5777880000000  0.4304710000000  0.4918650000000 1.0
C      1  0.5282580000000  0.5377200000000  0.4081970000000 1.0
C      1  0.4680780000000  0.5312230000000  0.5527060000000 1.0
C      1  0.4309050000000  0.5022840000000  0.5303930000000 1.0
C      1  0.3984850000000  0.4869900000000  0.5476510000000 1.0
C      1  0.6064530000000  0.5034170000000  0.4950170000000 1.0
C      1  0.4634020000000  0.5467990000000  0.4626420000000 1.0
C      1  0.5720350000000  0.4752700000000  0.5623890000000 1.0
C      1  0.5097820000000  0.5792100000000  0.5292740000000 1.0
C      1  0.5003130000000  0.4969900000000  0.4137940000000 1.0
C      1  0.4823600000000  0.4856640000000  0.4555540000000 1.0
C      1  0.5739360000000  0.4550540000000  0.4606610000000 1.0
C      1  0.5850490000000  0.5616480000000  0.5474850000000 1.0
C      1  0.5428270000000  0.4613580000000  0.4588510000000 1.0
C      1  0.4562840000000  0.5154960000000  0.5963390000000 1.0
C      1  0.5120770000000  0.5303290000000  0.4368070000000 1.0
C      1  0.4902350000000  0.6031620000000  0.4589340000000 1.0
C      1  0.5788760000000  0.5844980000000  0.5333660000000 1.0
C      1  0.5896210000000  0.5021590000000  0.5231770000000 1.0
C      1  0.6034880000000  0.4708770000000  0.4964790000000 1.0
C      1  0.4243750000000  0.5570460000000  0.4623260000000 1.0
C      1  0.5921640000000  0.5193280000000  0.5717850000000 1.0
C      1  0.5964870000000  0.4803280000000  0.4641630000000 1.0
C      1  0.4384070000000  0.5005000000000  0.4109500000000 1.0
C      1  0.4824980000000  0.5970330000000  0.5370700000000 1.0
C      1  0.4800150000000  0.5985920000000  0.5031160000000 1.0
C      1  0.4814670000000  0.4685020000000  0.3880060000000 1.0
C      1  0.4064900000000  0.4459830000000  0.5101660000000 1.0
C      1  0.4763700000000  0.4133620000000  0.5583410000000 1.0
C      1  0.5297650000000  0.6070220000000  0.5709130000000 1.0
C      1  0.5914250000000  0.4476390000000  0.5100730000000 1.0
C      1  0.5022300000000  0.4546670000000  0.4262190000000 1.0
C      1  0.4805370000000  0.4774510000000  0.4269610000000 1.0
C      1  0.5377430000000  0.5130010000000  0.5171700000000 1.0
C      1  0.4145400000000  0.4992690000000  0.5710820000000 1.0
C      1  0.4865190000000  0.4987130000000  0.5394770000000 1.0
C      1  0.4581470000000  0.4745100000000  0.4745090000000 1.0
C      1  0.4637500000000  0.4092510000000  0.4842630000000 1.0
C      1  0.4838650000000  0.4191100000000  0.4140590000000 1.0
C      1  0.5314680000000  0.4607110000000  0.3997390000000 1.0
C      1  0.4483690000000  0.5483910000000  0.5248600000000 1.0
C      1  0.4337980000000  0.5769180000000  0.4795730000000 1.0
C      1  0.3904680000000  0.4942670000000  0.4765370000000 1.0
C      1  0.4911890000000  0.3945660000000  0.4751150000000 1.0
C      1  0.5255320000000  0.4012640000000  0.5451890000000 1.0
C      1  0.4551490000000  0.5873730000000  0.4265950000000 1.0
C      1  0.5622370000000  0.5287210000000  0.4508010000000 1.0
C      1  0.4572650000000  0.5810040000000  0.5460600000000 1.0
C      1  0.4147710000000  0.4491670000000  0.4712350000000 1.0
C      1  0.4331390000000  0.5434740000000  0.4368190000000 1.0
C      1  0.4937950000000  0.5537410000000  0.4206060000000 1.0
C      1  0.6039570000000  0.5570620000000  0.5126300000000 1.0
C      1  0.4216190000000  0.4948980000000  0.5014750000000 1.0
C      1  0.4496010000000  0.4108390000000  0.5143620000000 1.0
C      1  0.4535910000000  0.4454400000000  0.5406420000000 1.0
C      1  0.5835220000000  0.5320110000000  0.5107870000000 1.0
C      1  0.5055890000000  0.4151920000000  0.5684060000000 1.0
C      1  0.4280990000000  0.4565810000000  0.5599910000000 1.0
C      1  0.5453400000000  0.5542220000000  0.4665660000000 1.0
C      1  0.5210210000000  0.5392980000000  0.5577770000000 1.0
C      1  0.3971680000000  0.5505210000000  0.5100220000000 1.0
C      1  0.5109320000000  0.5252430000000  0.5043070000000 1.0
C      1  0.5187810000000  0.5679810000000  0.4024380000000 1.0
C      1  0.4259460000000  0.4283740000000  0.5320720000000 1.0
C      1  0.5797980000000  0.5587050000000  0.4913090000000 1.0
C      1  0.5564380000000  0.4642200000000  0.4962930000000 1.0
C      1  0.5455270000000  0.4329070000000  0.4950370000000 1.0
C      1  0.4621140000000  0.4676770000000  0.5771800000000 1.0
C      1  0.4729850000000  0.3893900000000  0.5268510000000 1.0
C      1  0.5328690000000  0.4615520000000  0.4342330000000 1.0
C      1  0.4959320000000  0.3854120000000  0.5375010000000 1.0
C      1  0.5253000000000  0.4661900000000  0.4868690000000 1.0
C      1  0.3901300000000  0.5228390000000  0.4915140000000 1.0
C      1  0.4524320000000  0.5210190000000  0.4636400000000 1.0
C      1  0.3969370000000  0.4720540000000  0.4982100000000 1.0
C      1  0.5031560000000  0.6040390000000  0.5631980000000 1.0
C      1  0.4030670000000  0.4537560000000  0.5418790000000 1.0
C      1  0.6033890000000  0.5435810000000  0.5620290000000 1.0
C      1  0.5346330000000  0.4583640000000  0.5465010000000 1.0
C      1  0.5574920000000  0.5381560000000  0.4185790000000 1.0
C      1  0.5292600000000  0.4026660000000  0.4655440000000 1.0
C      1  0.4849220000000  0.4405980000000  0.4474470000000 1.0
C      1  0.5094480000000  0.4418920000000  0.5891030000000 1.0
C      1  0.5568030000000  0.4776140000000  0.4067190000000 1.0
C      1  0.5341990000000  0.5628040000000  0.5170380000000 1.0
C      1  0.5269530000000  0.4090800000000  0.4325220000000 1.0
C      1  0.5288800000000  0.4844030000000  0.6045750000000 1.0
C      1  0.4336990000000  0.4335700000000  0.4937630000000 1.0
C      1  0.5265010000000  0.3782920000000  0.4837690000000 1.0
C      1  0.5218260000000  0.4310300000000  0.4114680000000 1.0
C      1  0.5092130000000  0.5965740000000  0.4933750000000 1.0
C      1  0.5187850000000  0.5150630000000  0.3845140000000 1.0
C      1  0.4555650000000  0.4167970000000  0.5762790000000 1.0
C      1  0.5326090000000  0.5261600000000  0.5858220000000 1.0
C      1  0.5693860000000  0.5643340000000  0.4369090000000 1.0
C      1  0.5113070000000  0.4859750000000  0.4685400000000 1.0
C      1  0.5105130000000  0.5509720000000  0.5942290000000 1.0
C      1  0.4252070000000  0.5348960000000  0.5063020000000 1.0
C      1  0.4766280000000  0.5594160000000  0.4842750000000 1.0
C      1  0.5663170000000  0.5240530000000  0.5899570000000 1.0
C      1  0.5744230000000  0.4495220000000  0.5400710000000 1.0
C      1  0.4047010000000  0.5289140000000  0.4608830000000 1.0
C      1  0.4273100000000  0.4793090000000  0.4736300000000 1.0
C      1  0.4448710000000  0.4407360000000  0.5828060000000 1.0
C      1  0.4339320000000  0.4315060000000  0.4515660000000 1.0
C      1  0.5675490000000  0.5082270000000  0.4169810000000 1.0
C      1  0.4478290000000  0.4717650000000  0.4236850000000 1.0
C      1  0.4153930000000  0.5160480000000  0.4308240000000 1.0
C      1  0.3911920000000  0.5091110000000  0.5228170000000 1.0
C      1  0.4796300000000  0.4404390000000  0.3966050000000 1.0
C      1  0.4712440000000  0.4851160000000  0.6018870000000 1.0
C      1  0.5121940000000  0.4814690000000  0.3870700000000 1.0
C      1  0.4626720000000  0.4481550000000  0.4933730000000 1.0
C      1  0.4676820000000  0.4988350000000  0.4954130000000 1.0
C      1  0.4181820000000  0.5622500000000  0.5343960000000 1.0
C      1  0.5359180000000  0.4886350000000  0.5358190000000 1.0
C      1  0.4280700000000  0.5186790000000  0.4798420000000 1.0
C      1  0.4608480000000  0.5973790000000  0.4757660000000 1.0
C      1  0.5336860000000  0.5871650000000  0.4159470000000 1.0
C      1  0.5017670000000  0.3629440000000  0.4763670000000 1.0
C      1  0.4908910000000  0.5262850000000  0.4006960000000 1.0
C      1  0.5038710000000  0.4474570000000  0.5436210000000 1.0
END
