TITL C-2778426-5645-657 0.00763765686851876 125000 -1000.04903003094 0 0 174 (C1) n - 1
REM
REM in /home/nfs/bkarasulu/CARBON/AIRSS/Generating-Clusters/REBO/Only-C1/SD-CG/HFTN-CG
REM
REM
REM
REM
REM
REM ./C.cell (11c1c37f851c82e70ff6c80c92926a4b)
REM
REM compiler GCC version 9.2.1 20190827 (Red Hat 9.2.1-1)
REM options -cpp -mtune=generic -march=x86-64 -g -O0 -fpre-include=/usr/include/finclude/math-vector-fortran.h
REM seed 1231953165 -1640456239 1816801243 -659611397 1918973621 -2066135762 -255241831 -1519361382 1619483594 1658707677 585952653 580437121 -214057912 302289295 184945064 -1315218853 -853077032 -1472302397 1602731238 569455149 -1161373855 1988925611 392617049 1345022656 -445835767 -1715406403 75047341 223161354 1535575248 -587795601 -28492256 -1481159328 -1787043755
REM
CELL 1.54180   50.00000   50.00000   50.00000   90.00000   90.00000   90.00000
LATT -1
SFAC C  
C      1  0.4676900000000  0.4739930000000  0.6059580000000 1.0
C      1  0.5398080000000  0.5764540000000  0.5479780000000 1.0
C      1  0.5387660000000  0.4825890000000  0.4478710000000 1.0
C      1  0.5857350000000  0.6069110000000  0.4592980000000 1.0
C      1  0.4452080000000  0.4918880000000  0.4180590000000 1.0
C      1  0.4572990000000  0.5336380000000  0.5879830000000 1.0
C      1  0.5170890000000  0.5951380000000  0.4241450000000 1.0
C      1  0.4315150000000  0.4287270000000  0.4901200000000 1.0
C      1  0.4395760000000  0.5057660000000  0.5659290000000 1.0
C      1  0.4523680000000  0.4035500000000  0.4998130000000 1.0
C      1  0.5797950000000  0.5617070000000  0.4936990000000 1.0
C      1  0.5624550000000  0.5862400000000  0.5092060000000 1.0
C      1  0.5292180000000  0.4039940000000  0.5570290000000 1.0
C      1  0.5775330000000  0.5314820000000  0.5683850000000 1.0
C      1  0.4860440000000  0.4744610000000  0.5319570000000 1.0
C      1  0.4345530000000  0.5708300000000  0.4668550000000 1.0
C      1  0.5456860000000  0.4759620000000  0.4894280000000 1.0
C      1  0.4090750000000  0.5443180000000  0.5246120000000 1.0
C      1  0.4959880000000  0.4986600000000  0.4836660000000 1.0
C      1  0.4563560000000  0.4329770000000  0.4478290000000 1.0
C      1  0.5721720000000  0.4796610000000  0.5109960000000 1.0
C      1  0.5219940000000  0.5163130000000  0.5619650000000 1.0
C      1  0.5806180000000  0.4470390000000  0.5046260000000 1.0
C      1  0.5879710000000  0.4767090000000  0.4420340000000 1.0
C      1  0.5956670000000  0.4533980000000  0.5455680000000 1.0
C      1  0.4192360000000  0.5177070000000  0.4364850000000 1.0
C      1  0.5123960000000  0.4643220000000  0.5599430000000 1.0
C      1  0.4195370000000  0.4361780000000  0.5733680000000 1.0
C      1  0.4954270000000  0.5428450000000  0.4275980000000 1.0
C      1  0.5063390000000  0.5913270000000  0.4535320000000 1.0
C      1  0.5141820000000  0.5651600000000  0.4703100000000 1.0
C      1  0.3920460000000  0.4611200000000  0.5123130000000 1.0
C      1  0.4811720000000  0.4512590000000  0.5635220000000 1.0
C      1  0.5654930000000  0.4441040000000  0.5546620000000 1.0
C      1  0.4812800000000  0.4996890000000  0.5113560000000 1.0
C      1  0.5129510000000  0.4374260000000  0.5437500000000 1.0
C      1  0.4231080000000  0.4445610000000  0.5469810000000 1.0
C      1  0.4989830000000  0.5886720000000  0.4047500000000 1.0
C      1  0.5034230000000  0.4243230000000  0.5200240000000 1.0
C      1  0.5520490000000  0.5425200000000  0.5647610000000 1.0
C      1  0.5989870000000  0.4737370000000  0.5279800000000 1.0
C      1  0.5343420000000  0.5503350000000  0.5009650000000 1.0
C      1  0.4818130000000  0.5197550000000  0.4664410000000 1.0
C      1  0.4853600000000  0.4107410000000  0.5802480000000 1.0
C      1  0.5240800000000  0.4969130000000  0.4257270000000 1.0
C      1  0.5403050000000  0.6004240000000  0.5161220000000 1.0
C      1  0.4942950000000  0.4498880000000  0.4073690000000 1.0
C      1  0.4353180000000  0.5414910000000  0.4638730000000 1.0
C      1  0.4771610000000  0.5726420000000  0.4081960000000 1.0
C      1  0.4150500000000  0.4404660000000  0.4702060000000 1.0
C      1  0.4438210000000  0.4702290000000  0.5823320000000 1.0
C      1  0.5141360000000  0.4280660000000  0.5766030000000 1.0
C      1  0.4285600000000  0.5840590000000  0.4907230000000 1.0
C      1  0.4888070000000  0.4758420000000  0.4461540000000 1.0
C      1  0.5586020000000  0.5084230000000  0.4440380000000 1.0
C      1  0.5388100000000  0.5124590000000  0.3957430000000 1.0
C      1  0.4888760000000  0.4947030000000  0.5916270000000 1.0
C      1  0.5591700000000  0.4247920000000  0.4045060000000 1.0
C      1  0.5648340000000  0.5390190000000  0.4436110000000 1.0
C      1  0.4213550000000  0.5273380000000  0.4980570000000 1.0
C      1  0.4957320000000  0.5822940000000  0.4932010000000 1.0
C      1  0.5701930000000  0.4773620000000  0.4712600000000 1.0
C      1  0.5795360000000  0.5333410000000  0.5076640000000 1.0
C      1  0.4534700000000  0.5031610000000  0.5413300000000 1.0
C      1  0.4690240000000  0.4330190000000  0.5024100000000 1.0
C      1  0.4862260000000  0.5091210000000  0.4082620000000 1.0
C      1  0.4124550000000  0.4863970000000  0.4397660000000 1.0
C      1  0.5120150000000  0.5639600000000  0.5858420000000 1.0
C      1  0.4345240000000  0.5652630000000  0.5158200000000 1.0
C      1  0.5585210000000  0.4508160000000  0.4153890000000 1.0
C      1  0.4306830000000  0.5616850000000  0.5666850000000 1.0
C      1  0.5051800000000  0.5431790000000  0.5617790000000 1.0
C      1  0.3896030000000  0.5033210000000  0.4979290000000 1.0
C      1  0.4506670000000  0.5137540000000  0.4700960000000 1.0
C      1  0.4697340000000  0.3889470000000  0.4759710000000 1.0
C      1  0.5596830000000  0.5174880000000  0.4768920000000 1.0
C      1  0.5469800000000  0.4955920000000  0.5584080000000 1.0
C      1  0.4487160000000  0.4291580000000  0.5302230000000 1.0
C      1  0.5204850000000  0.4812860000000  0.4741470000000 1.0
C      1  0.5705460000000  0.5723510000000  0.5457350000000 1.0
C      1  0.5791910000000  0.4995660000000  0.5633020000000 1.0
C      1  0.4837790000000  0.5210050000000  0.6027940000000 1.0
C      1  0.4050620000000  0.4676610000000  0.5371460000000 1.0
C      1  0.5065190000000  0.4747120000000  0.4068900000000 1.0
C      1  0.4026610000000  0.4680000000000  0.4846570000000 1.0
C      1  0.4780130000000  0.5950220000000  0.4599710000000 1.0
C      1  0.5569710000000  0.5083170000000  0.5096160000000 1.0
C      1  0.5019590000000  0.4265050000000  0.4608370000000 1.0
C      1  0.4497400000000  0.5012970000000  0.5957040000000 1.0
C      1  0.4645660000000  0.4614770000000  0.4314040000000 1.0
C      1  0.4955020000000  0.4023550000000  0.5524830000000 1.0
C      1  0.5012880000000  0.3835400000000  0.4747360000000 1.0
C      1  0.5270610000000  0.5435350000000  0.4115630000000 1.0
C      1  0.4197350000000  0.4950040000000  0.4871290000000 1.0
C      1  0.5954400000000  0.5205320000000  0.5419760000000 1.0
C      1  0.4436740000000  0.4898380000000  0.4512570000000 1.0
C      1  0.4080050000000  0.5266780000000  0.4664280000000 1.0
C      1  0.4708930000000  0.4032970000000  0.5289370000000 1.0
C      1  0.4756770000000  0.5467460000000  0.4827400000000 1.0
C      1  0.4729610000000  0.4326770000000  0.4179200000000 1.0
C      1  0.5398950000000  0.4680930000000  0.5738080000000 1.0
C      1  0.5017330000000  0.5950150000000  0.5775190000000 1.0
C      1  0.4354260000000  0.4519110000000  0.5102870000000 1.0
C      1  0.5311410000000  0.5351480000000  0.4701690000000 1.0
C      1  0.5410260000000  0.4260500000000  0.4873840000000 1.0
C      1  0.5880800000000  0.4486350000000  0.4731880000000 1.0
C      1  0.3916210000000  0.5151200000000  0.5225780000000 1.0
C      1  0.5518390000000  0.4033020000000  0.4204790000000 1.0
C      1  0.5479020000000  0.4487230000000  0.5057210000000 1.0
C      1  0.5606180000000  0.4313940000000  0.4626400000000 1.0
C      1  0.4715840000000  0.5413820000000  0.5603270000000 1.0
C      1  0.5393020000000  0.5796720000000  0.4431970000000 1.0
C      1  0.5749190000000  0.4749760000000  0.4171810000000 1.0
C      1  0.4948410000000  0.4518140000000  0.5024830000000 1.0
C      1  0.4912770000000  0.5873830000000  0.5249230000000 1.0
C      1  0.4877630000000  0.5051890000000  0.4385520000000 1.0
C      1  0.5840910000000  0.5516920000000  0.5347280000000 1.0
C      1  0.4583830000000  0.5832470000000  0.5325390000000 1.0
C      1  0.5210450000000  0.4120510000000  0.4956370000000 1.0
C      1  0.4649220000000  0.5676710000000  0.4593530000000 1.0
C      1  0.5905670000000  0.5072400000000  0.4883530000000 1.0
C      1  0.4414690000000  0.5330370000000  0.4246150000000 1.0
C      1  0.5471190000000  0.5546860000000  0.4289620000000 1.0
C      1  0.5124060000000  0.4538140000000  0.4551340000000 1.0
C      1  0.4729220000000  0.6050230000000  0.4881420000000 1.0
C      1  0.4925430000000  0.4895320000000  0.5618550000000 1.0
C      1  0.4978010000000  0.5382870000000  0.3945960000000 1.0
C      1  0.5350690000000  0.5427810000000  0.5883400000000 1.0
C      1  0.4759840000000  0.5796980000000  0.5792120000000 1.0
C      1  0.5440070000000  0.4515030000000  0.4425750000000 1.0
C      1  0.5709030000000  0.4208220000000  0.5227140000000 1.0
C      1  0.4540380000000  0.5772870000000  0.5619240000000 1.0
C      1  0.4630550000000  0.5296500000000  0.5303670000000 1.0
C      1  0.5255180000000  0.4870780000000  0.6056890000000 1.0
C      1  0.5027130000000  0.5096060000000  0.5358200000000 1.0
C      1  0.5799940000000  0.5491820000000  0.4633650000000 1.0
C      1  0.6030880000000  0.5030830000000  0.5189920000000 1.0
C      1  0.5340510000000  0.4985700000000  0.5283110000000 1.0
C      1  0.4127900000000  0.5424970000000  0.5556580000000 1.0
C      1  0.5174720000000  0.4698000000000  0.5207310000000 1.0
C      1  0.4007310000000  0.4642090000000  0.4522840000000 1.0
C      1  0.5157270000000  0.5232710000000  0.4455700000000 1.0
C      1  0.5270630000000  0.5122530000000  0.5953570000000 1.0
C      1  0.4667780000000  0.5538550000000  0.4327760000000 1.0
C      1  0.4642060000000  0.5329660000000  0.3988990000000 1.0
C      1  0.5410200000000  0.4503760000000  0.5357870000000 1.0
C      1  0.5121510000000  0.5000500000000  0.3883810000000 1.0
C      1  0.5441620000000  0.4063390000000  0.4477820000000 1.0
C      1  0.4481000000000  0.5048830000000  0.3970780000000 1.0
C      1  0.4732690000000  0.4213890000000  0.4709390000000 1.0
C      1  0.4832120000000  0.4684510000000  0.4793900000000 1.0
C      1  0.5169480000000  0.4020600000000  0.4572970000000 1.0
C      1  0.5173610000000  0.5936410000000  0.5357090000000 1.0
C      1  0.4504610000000  0.5999170000000  0.5044520000000 1.0
C      1  0.4947440000000  0.3941650000000  0.5064630000000 1.0
C      1  0.4131640000000  0.5144440000000  0.5629610000000 1.0
C      1  0.5610520000000  0.5004700000000  0.4118410000000 1.0
C      1  0.5455850000000  0.5716560000000  0.4761640000000 1.0
C      1  0.4826060000000  0.5537960000000  0.5971470000000 1.0
C      1  0.5742780000000  0.5875640000000  0.4718590000000 1.0
C      1  0.5533900000000  0.4136220000000  0.5455130000000 1.0
C      1  0.5416630000000  0.5476380000000  0.5335180000000 1.0
C      1  0.4907630000000  0.5472910000000  0.5324330000000 1.0
C      1  0.5730280000000  0.4699860000000  0.5738130000000 1.0
C      1  0.6031970000000  0.4799750000000  0.4722670000000 1.0
C      1  0.4554990000000  0.4630970000000  0.4638690000000 1.0
C      1  0.4565050000000  0.4640260000000  0.5564500000000 1.0
C      1  0.4513300000000  0.5397650000000  0.5039040000000 1.0
C      1  0.5199150000000  0.4543900000000  0.5976790000000 1.0
C      1  0.5006690000000  0.5523170000000  0.5053600000000 1.0
C      1  0.4484590000000  0.4757380000000  0.5254010000000 1.0
C      1  0.3992540000000  0.4969020000000  0.5443230000000 1.0
C      1  0.4883750000000  0.4537140000000  0.5928520000000 1.0
C      1  0.4502680000000  0.4999350000000  0.5012530000000 1.0
END
