TITL C-2778432-5617-946 -0.00158087595073181 125000 -1063.37368308546 0 0 185 (C1) n - 1
REM
REM in /home/nfs/bkarasulu/CARBON/AIRSS/Generating-Clusters/REBO/Only-C1/SD-CG/HFTN-CG
REM
REM
REM
REM
REM
REM ./C.cell (11c1c37f851c82e70ff6c80c92926a4b)
REM
REM compiler GCC version 9.2.1 20190827 (Red Hat 9.2.1-1)
REM options -cpp -mtune=generic -march=x86-64 -g -O0 -fpre-include=/usr/include/finclude/math-vector-fortran.h
REM seed -134285621 1253938812 -406877790 -832719467 -617294229 -1662845139 -1530673659 1137147057 -937375815 -2007857657 -702025403 1481321547 1039326345 1798180521 -110033968 -382773608 -2083717461 -1160605069 1540205619 738593326 -633257574 -1480789962 -980367852 1271187599 -793389185 -864848260 -755214272 -1107865348 1380147032 -54098222 -1485678592 296866177 759161690
REM
CELL 1.54180   50.00000   50.00000   50.00000   90.00000   90.00000   90.00000
LATT -1
SFAC C  
C      1  0.5763400000000  0.5567950000000  0.4674760000000 1.0
C      1  0.5748440000000  0.4465480000000  0.4868300000000 1.0
C      1  0.4401190000000  0.5653070000000  0.5327870000000 1.0
C      1  0.5217500000000  0.5584160000000  0.6312550000000 1.0
C      1  0.4085480000000  0.4529750000000  0.5126710000000 1.0
C      1  0.5227550000000  0.4844600000000  0.4491870000000 1.0
C      1  0.5131440000000  0.4126830000000  0.5467080000000 1.0
C      1  0.4066870000000  0.4987070000000  0.5505620000000 1.0
C      1  0.4643600000000  0.4572540000000  0.5880340000000 1.0
C      1  0.4274390000000  0.5352910000000  0.5860560000000 1.0
C      1  0.5166410000000  0.5235550000000  0.4473570000000 1.0
C      1  0.5179560000000  0.5734370000000  0.5205520000000 1.0
C      1  0.5485370000000  0.5379020000000  0.5153950000000 1.0
C      1  0.5259110000000  0.3968930000000  0.4838920000000 1.0
C      1  0.5521120000000  0.4951930000000  0.6046270000000 1.0
C      1  0.4731840000000  0.5116180000000  0.5894630000000 1.0
C      1  0.4334630000000  0.4092590000000  0.5362250000000 1.0
C      1  0.4831460000000  0.4741610000000  0.5572430000000 1.0
C      1  0.4218740000000  0.5519480000000  0.5569120000000 1.0
C      1  0.5153100000000  0.5485430000000  0.4048990000000 1.0
C      1  0.5680010000000  0.5211260000000  0.4434650000000 1.0
C      1  0.5281200000000  0.5137210000000  0.4770000000000 1.0
C      1  0.5218900000000  0.4816780000000  0.4094330000000 1.0
C      1  0.5928320000000  0.4848100000000  0.5589670000000 1.0
C      1  0.5801570000000  0.5087400000000  0.5795510000000 1.0
C      1  0.5264680000000  0.4333220000000  0.5228890000000 1.0
C      1  0.4188060000000  0.5574910000000  0.5000330000000 1.0
C      1  0.4043390000000  0.4397320000000  0.4752520000000 1.0
C      1  0.4907400000000  0.6069770000000  0.4924840000000 1.0
C      1  0.4494640000000  0.4322190000000  0.4900730000000 1.0
C      1  0.4982440000000  0.5316230000000  0.5947720000000 1.0
C      1  0.4402040000000  0.5107070000000  0.5912790000000 1.0
C      1  0.5692210000000  0.4746980000000  0.4123090000000 1.0
C      1  0.4702590000000  0.5115340000000  0.4195600000000 1.0
C      1  0.6113640000000  0.5865830000000  0.4995020000000 1.0
C      1  0.5116610000000  0.4425800000000  0.4570120000000 1.0
C      1  0.4182870000000  0.5399100000000  0.5257700000000 1.0
C      1  0.4049310000000  0.5630920000000  0.4523200000000 1.0
C      1  0.5009450000000  0.5240130000000  0.4171380000000 1.0
C      1  0.4294790000000  0.5727450000000  0.4483530000000 1.0
C      1  0.4038900000000  0.4079030000000  0.4872310000000 1.0
C      1  0.6067250000000  0.4814020000000  0.4906020000000 1.0
C      1  0.5203960000000  0.4572870000000  0.5032470000000 1.0
C      1  0.4603100000000  0.4910010000000  0.5416060000000 1.0
C      1  0.5233580000000  0.5379190000000  0.6127370000000 1.0
C      1  0.4569710000000  0.5868680000000  0.4597220000000 1.0
C      1  0.5481060000000  0.5418180000000  0.4756280000000 1.0
C      1  0.4486510000000  0.5596430000000  0.4880520000000 1.0
C      1  0.5139830000000  0.4730890000000  0.5634630000000 1.0
C      1  0.3665820000000  0.5067840000000  0.5225860000000 1.0
C      1  0.5471090000000  0.4088170000000  0.5464770000000 1.0
C      1  0.5472160000000  0.4951470000000  0.4068960000000 1.0
C      1  0.4468090000000  0.4751810000000  0.4769380000000 1.0
C      1  0.5713420000000  0.4320660000000  0.5529230000000 1.0
C      1  0.4380100000000  0.4513990000000  0.4081260000000 1.0
C      1  0.3806950000000  0.4962990000000  0.5018860000000 1.0
C      1  0.4005660000000  0.5377810000000  0.4598780000000 1.0
C      1  0.5756070000000  0.5712230000000  0.5280970000000 1.0
C      1  0.4520420000000  0.4447950000000  0.4306170000000 1.0
C      1  0.4681060000000  0.4468940000000  0.5551930000000 1.0
C      1  0.5252150000000  0.5038740000000  0.5607520000000 1.0
C      1  0.6191370000000  0.4829800000000  0.5161730000000 1.0
C      1  0.4684490000000  0.4566310000000  0.4647720000000 1.0
C      1  0.5485700000000  0.4531690000000  0.4028660000000 1.0
C      1  0.5414180000000  0.4407560000000  0.4660100000000 1.0
C      1  0.4299770000000  0.4546460000000  0.5718710000000 1.0
C      1  0.4403370000000  0.5646440000000  0.5816420000000 1.0
C      1  0.4599820000000  0.4378340000000  0.5280820000000 1.0
C      1  0.4910700000000  0.4938430000000  0.4411560000000 1.0
C      1  0.5015630000000  0.4974260000000  0.3998720000000 1.0
C      1  0.4550820000000  0.4852580000000  0.5084990000000 1.0
C      1  0.4879880000000  0.3966210000000  0.5402960000000 1.0
C      1  0.4831620000000  0.5441950000000  0.5686740000000 1.0
C      1  0.4768560000000  0.4029520000000  0.4545720000000 1.0
C      1  0.5534450000000  0.4562620000000  0.5679380000000 1.0
C      1  0.4748570000000  0.4260260000000  0.5793540000000 1.0
C      1  0.5032760000000  0.6007790000000  0.5167970000000 1.0
C      1  0.5427930000000  0.5283860000000  0.4008430000000 1.0
C      1  0.5471680000000  0.5772780000000  0.5375530000000 1.0
C      1  0.5548770000000  0.5061980000000  0.5566680000000 1.0
C      1  0.5163640000000  0.5057780000000  0.5900350000000 1.0
C      1  0.5015770000000  0.4155630000000  0.4744770000000 1.0
C      1  0.5692130000000  0.4767300000000  0.5826390000000 1.0
C      1  0.5271430000000  0.5566040000000  0.4960090000000 1.0
C      1  0.4647380000000  0.5962540000000  0.4882180000000 1.0
C      1  0.5493210000000  0.5813460000000  0.4095930000000 1.0
C      1  0.5272320000000  0.3976840000000  0.4497180000000 1.0
C      1  0.4864970000000  0.5973360000000  0.5650620000000 1.0
C      1  0.5277460000000  0.5608160000000  0.4563000000000 1.0
C      1  0.3982280000000  0.4949500000000  0.4752260000000 1.0
C      1  0.5383190000000  0.4267520000000  0.5741130000000 1.0
C      1  0.5475940000000  0.4743120000000  0.4454990000000 1.0
C      1  0.4679690000000  0.4561330000000  0.5045500000000 1.0
C      1  0.5271710000000  0.5148470000000  0.5105630000000 1.0
C      1  0.6007450000000  0.5549700000000  0.4774190000000 1.0
C      1  0.3862400000000  0.4318000000000  0.5014050000000 1.0
C      1  0.4293550000000  0.5130880000000  0.5530170000000 1.0
C      1  0.5008650000000  0.5607580000000  0.4774990000000 1.0
C      1  0.4300870000000  0.4415490000000  0.5441850000000 1.0
C      1  0.4831200000000  0.4930120000000  0.3799290000000 1.0
C      1  0.5238830000000  0.4505730000000  0.3844940000000 1.0
C      1  0.5192030000000  0.4516310000000  0.5872910000000 1.0
C      1  0.4144400000000  0.4666690000000  0.4724390000000 1.0
C      1  0.4501330000000  0.4755820000000  0.3943030000000 1.0
C      1  0.5754340000000  0.5001240000000  0.4597330000000 1.0
C      1  0.5788870000000  0.4619700000000  0.5378900000000 1.0
C      1  0.5713830000000  0.4174290000000  0.5009730000000 1.0
C      1  0.5848640000000  0.5472150000000  0.5401850000000 1.0
C      1  0.5040210000000  0.4235130000000  0.4171290000000 1.0
C      1  0.4610770000000  0.5202940000000  0.5587830000000 1.0
C      1  0.4826730000000  0.5946710000000  0.5962000000000 1.0
C      1  0.4564290000000  0.5167640000000  0.4988450000000 1.0
C      1  0.5030030000000  0.4037970000000  0.4363900000000 1.0
C      1  0.5624500000000  0.5375140000000  0.5584130000000 1.0
C      1  0.4545100000000  0.5522810000000  0.4494630000000 1.0
C      1  0.4732960000000  0.5707270000000  0.5338390000000 1.0
C      1  0.5587020000000  0.5598460000000  0.4416920000000 1.0
C      1  0.4097620000000  0.4869270000000  0.5124790000000 1.0
C      1  0.4252450000000  0.5136670000000  0.5102840000000 1.0
C      1  0.5110630000000  0.4778750000000  0.6029440000000 1.0
C      1  0.4763800000000  0.4615310000000  0.4036470000000 1.0
C      1  0.5344780000000  0.5473600000000  0.5452890000000 1.0
C      1  0.3801440000000  0.5086710000000  0.5468500000000 1.0
C      1  0.4110100000000  0.4693890000000  0.5405380000000 1.0
C      1  0.5209240000000  0.6038580000000  0.4616410000000 1.0
C      1  0.4845610000000  0.5571560000000  0.4414190000000 1.0
C      1  0.5821060000000  0.4738670000000  0.4437910000000 1.0
C      1  0.5539900000000  0.4118180000000  0.4417040000000 1.0
C      1  0.4967920000000  0.5856180000000  0.4565070000000 1.0
C      1  0.5680010000000  0.5373430000000  0.5904070000000 1.0
C      1  0.4603840000000  0.4077810000000  0.5576180000000 1.0
C      1  0.4972290000000  0.4437730000000  0.3949860000000 1.0
C      1  0.6098210000000  0.5313110000000  0.4869390000000 1.0
C      1  0.5648490000000  0.4914160000000  0.5313560000000 1.0
C      1  0.5474230000000  0.4638150000000  0.4867250000000 1.0
C      1  0.5009990000000  0.4964450000000  0.4858260000000 1.0
C      1  0.5477610000000  0.5236530000000  0.6070700000000 1.0
C      1  0.5443320000000  0.6050210000000  0.4746620000000 1.0
C      1  0.4564050000000  0.3839430000000  0.5337920000000 1.0
C      1  0.4535630000000  0.5255480000000  0.4678080000000 1.0
C      1  0.4002740000000  0.5096100000000  0.4457920000000 1.0
C      1  0.4248400000000  0.5043320000000  0.4252490000000 1.0
C      1  0.6102070000000  0.4993860000000  0.5379410000000 1.0
C      1  0.4687990000000  0.4109090000000  0.5178430000000 1.0
C      1  0.5656400000000  0.5987490000000  0.4897920000000 1.0
C      1  0.4691830000000  0.5702470000000  0.5767000000000 1.0
C      1  0.5665160000000  0.5098340000000  0.5081680000000 1.0
C      1  0.4550630000000  0.4268130000000  0.4569590000000 1.0
C      1  0.5634390000000  0.5545240000000  0.4081170000000 1.0
C      1  0.4903570000000  0.5011270000000  0.5148000000000 1.0
C      1  0.5598770000000  0.4383920000000  0.5229050000000 1.0
C      1  0.5949910000000  0.4619120000000  0.4728970000000 1.0
C      1  0.5538180000000  0.4932940000000  0.4817710000000 1.0
C      1  0.4228060000000  0.5189800000000  0.4773740000000 1.0
C      1  0.4548570000000  0.5890110000000  0.5141140000000 1.0
C      1  0.4832530000000  0.4835220000000  0.5898890000000 1.0
C      1  0.4750860000000  0.5515000000000  0.4905870000000 1.0
C      1  0.5909910000000  0.5070130000000  0.4868470000000 1.0
C      1  0.4808900000000  0.5331710000000  0.5158380000000 1.0
C      1  0.5535010000000  0.4122700000000  0.4756710000000 1.0
C      1  0.5849320000000  0.5860570000000  0.5060500000000 1.0
C      1  0.5335400000000  0.6011650000000  0.5535750000000 1.0
C      1  0.4999860000000  0.5500440000000  0.5394870000000 1.0
C      1  0.5239610000000  0.5728290000000  0.4269040000000 1.0
C      1  0.5399120000000  0.4718150000000  0.5423430000000 1.0
C      1  0.4952020000000  0.4536390000000  0.4848150000000 1.0
C      1  0.4938780000000  0.5737040000000  0.4141180000000 1.0
C      1  0.6048520000000  0.5274650000000  0.5359080000000 1.0
C      1  0.5048180000000  0.4235210000000  0.5775980000000 1.0
C      1  0.4749530000000  0.5948000000000  0.4329410000000 1.0
C      1  0.4726070000000  0.4087740000000  0.4878060000000 1.0
C      1  0.5583310000000  0.4427290000000  0.4386680000000 1.0
C      1  0.5189930000000  0.4830840000000  0.5198730000000 1.0
C      1  0.5058300000000  0.6051810000000  0.5464190000000 1.0
C      1  0.4769530000000  0.4673450000000  0.4359400000000 1.0
C      1  0.5419090000000  0.4044000000000  0.5129600000000 1.0
C      1  0.4252000000000  0.4252580000000  0.5073180000000 1.0
C      1  0.4466220000000  0.5012700000000  0.4079720000000 1.0
C      1  0.4265990000000  0.5849040000000  0.4861360000000 1.0
C      1  0.4299550000000  0.4888080000000  0.4521860000000 1.0
C      1  0.5424540000000  0.5318080000000  0.4330460000000 1.0
C      1  0.5216410000000  0.4515450000000  0.4254610000000 1.0
C      1  0.5095090000000  0.5169700000000  0.5384250000000 1.0
C      1  0.4473600000000  0.4832530000000  0.5725230000000 1.0
C      1  0.4832530000000  0.5250460000000  0.4528810000000 1.0
END
