TITL C-2778430-5657-1374 -0.00414852861997502 125000 -915.707961788848 0 0 157 (C1) n - 1
REM
REM in /home/nfs/bkarasulu/CARBON/AIRSS/Generating-Clusters/REBO/Only-C1/SD-CG/HFTN-CG
REM
REM
REM
REM
REM
REM ./C.cell (11c1c37f851c82e70ff6c80c92926a4b)
REM
REM compiler GCC version 9.2.1 20190827 (Red Hat 9.2.1-1)
REM options -cpp -mtune=generic -march=x86-64 -g -O0 -fpre-include=/usr/include/finclude/math-vector-fortran.h
REM seed 908895593 -1887918917 -196553393 -246353996 -802087526 -1978409167 1699369174 1596533725 329225906 1749994719 830373223 -1630729663 763222906 381729429 1570229827 1645116226 821009185 106449800 1212232483 -890342536 -36357873 1251899162 -604485965 -114476801 1524502650 586722000 -1726277321 1134048241 -1365517717 -1934009930 1914781082 -1666691509 -715165216
REM
CELL 1.54180   50.00000   50.00000   50.00000   90.00000   90.00000   90.00000
LATT -1
SFAC C  
C      1  0.5311020000000  0.5753870000000  0.5171780000000 1.0
C      1  0.5880310000000  0.5548820000000  0.4717380000000 1.0
C      1  0.5660320000000  0.5381300000000  0.4275530000000 1.0
C      1  0.4833150000000  0.4692690000000  0.5839860000000 1.0
C      1  0.5441810000000  0.5268990000000  0.4688540000000 1.0
C      1  0.4446090000000  0.4124450000000  0.4768450000000 1.0
C      1  0.5283760000000  0.4210180000000  0.4666190000000 1.0
C      1  0.4496270000000  0.5401410000000  0.4842780000000 1.0
C      1  0.4041740000000  0.5284240000000  0.4982170000000 1.0
C      1  0.4855360000000  0.6050030000000  0.5120810000000 1.0
C      1  0.5063220000000  0.4748350000000  0.4599490000000 1.0
C      1  0.5260090000000  0.5673780000000  0.4264580000000 1.0
C      1  0.5001250000000  0.5115580000000  0.5655720000000 1.0
C      1  0.4172990000000  0.4554450000000  0.4492420000000 1.0
C      1  0.4985980000000  0.5324270000000  0.4700480000000 1.0
C      1  0.5525660000000  0.4271960000000  0.5621760000000 1.0
C      1  0.5394170000000  0.4317460000000  0.4361100000000 1.0
C      1  0.4840930000000  0.5318340000000  0.4079100000000 1.0
C      1  0.5971650000000  0.5202600000000  0.5200620000000 1.0
C      1  0.4692140000000  0.4134350000000  0.4552340000000 1.0
C      1  0.5705790000000  0.4743270000000  0.5151940000000 1.0
C      1  0.5335810000000  0.4942440000000  0.4718830000000 1.0
C      1  0.4058270000000  0.4632630000000  0.5051110000000 1.0
C      1  0.6036170000000  0.5025820000000  0.5444910000000 1.0
C      1  0.3863900000000  0.5160420000000  0.5467880000000 1.0
C      1  0.5106310000000  0.4735400000000  0.4063430000000 1.0
C      1  0.5074090000000  0.5450280000000  0.4174800000000 1.0
C      1  0.5534720000000  0.5123400000000  0.4198730000000 1.0
C      1  0.4652200000000  0.4739070000000  0.5006410000000 1.0
C      1  0.3971730000000  0.5086580000000  0.5226630000000 1.0
C      1  0.4531300000000  0.5199510000000  0.5089910000000 1.0
C      1  0.4274510000000  0.4833100000000  0.4645080000000 1.0
C      1  0.4387280000000  0.5929040000000  0.5201400000000 1.0
C      1  0.4652890000000  0.4603290000000  0.4092660000000 1.0
C      1  0.4690690000000  0.4847710000000  0.5319000000000 1.0
C      1  0.5818450000000  0.5743960000000  0.4918450000000 1.0
C      1  0.4913590000000  0.5476590000000  0.5192180000000 1.0
C      1  0.5163260000000  0.5798350000000  0.4536970000000 1.0
C      1  0.5320100000000  0.5396260000000  0.5878910000000 1.0
C      1  0.4675040000000  0.3927150000000  0.5325250000000 1.0
C      1  0.4916960000000  0.5556080000000  0.4905440000000 1.0
C      1  0.4945920000000  0.6006440000000  0.4658650000000 1.0
C      1  0.4954480000000  0.4445610000000  0.4073410000000 1.0
C      1  0.5873580000000  0.4359550000000  0.5294880000000 1.0
C      1  0.4780910000000  0.5352680000000  0.6034400000000 1.0
C      1  0.5662510000000  0.5318600000000  0.5112550000000 1.0
C      1  0.5487600000000  0.5521840000000  0.4900720000000 1.0
C      1  0.4741230000000  0.5103100000000  0.5501460000000 1.0
C      1  0.4986530000000  0.5193330000000  0.5963280000000 1.0
C      1  0.4771310000000  0.5746370000000  0.5704860000000 1.0
C      1  0.5553090000000  0.5021950000000  0.5085480000000 1.0
C      1  0.5258890000000  0.5112760000000  0.4272810000000 1.0
C      1  0.5664490000000  0.4271050000000  0.5126210000000 1.0
C      1  0.4418220000000  0.5074940000000  0.4247600000000 1.0
C      1  0.4025450000000  0.4380730000000  0.4955390000000 1.0
C      1  0.5295390000000  0.4467280000000  0.4100700000000 1.0
C      1  0.5610250000000  0.4504880000000  0.4916060000000 1.0
C      1  0.4709790000000  0.4920970000000  0.4771110000000 1.0
C      1  0.5195160000000  0.5691030000000  0.4857860000000 1.0
C      1  0.5559760000000  0.5570520000000  0.5316440000000 1.0
C      1  0.4308460000000  0.5627120000000  0.5256420000000 1.0
C      1  0.5879070000000  0.4774990000000  0.4154290000000 1.0
C      1  0.5041690000000  0.4814270000000  0.5644640000000 1.0
C      1  0.5039920000000  0.5706160000000  0.5331240000000 1.0
C      1  0.4973660000000  0.4662820000000  0.4917480000000 1.0
C      1  0.5345870000000  0.6056790000000  0.4914980000000 1.0
C      1  0.5567980000000  0.4951430000000  0.5812610000000 1.0
C      1  0.4808970000000  0.3867610000000  0.5026190000000 1.0
C      1  0.4908580000000  0.4469040000000  0.4562080000000 1.0
C      1  0.4911360000000  0.5597310000000  0.4508800000000 1.0
C      1  0.5196760000000  0.5606110000000  0.5568510000000 1.0
C      1  0.4615340000000  0.5315230000000  0.4251880000000 1.0
C      1  0.4785510000000  0.4324430000000  0.4828990000000 1.0
C      1  0.4671470000000  0.4366080000000  0.4337920000000 1.0
C      1  0.5227560000000  0.4331020000000  0.4972400000000 1.0
C      1  0.4685990000000  0.4145330000000  0.5571730000000 1.0
C      1  0.5163780000000  0.4454320000000  0.5284360000000 1.0
C      1  0.4435390000000  0.5711980000000  0.4467760000000 1.0
C      1  0.4321800000000  0.4775690000000  0.4952360000000 1.0
C      1  0.5182520000000  0.4038480000000  0.5237890000000 1.0
C      1  0.4203870000000  0.5127250000000  0.4507860000000 1.0
C      1  0.4378020000000  0.4501010000000  0.4256610000000 1.0
C      1  0.4521900000000  0.5324710000000  0.5623670000000 1.0
C      1  0.5103160000000  0.5235440000000  0.5236910000000 1.0
C      1  0.4402700000000  0.4308750000000  0.5489460000000 1.0
C      1  0.4538800000000  0.4864360000000  0.5831100000000 1.0
C      1  0.6050340000000  0.5499140000000  0.5250570000000 1.0
C      1  0.5206220000000  0.5338260000000  0.4472990000000 1.0
C      1  0.4191650000000  0.4318750000000  0.4709380000000 1.0
C      1  0.4620220000000  0.5935310000000  0.4651300000000 1.0
C      1  0.6023060000000  0.4620420000000  0.5177530000000 1.0
C      1  0.5040830000000  0.5588710000000  0.5844500000000 1.0
C      1  0.4536260000000  0.4713590000000  0.4478540000000 1.0
C      1  0.5508020000000  0.5142230000000  0.5546340000000 1.0
C      1  0.4248000000000  0.4917810000000  0.5464460000000 1.0
C      1  0.5217790000000  0.4757510000000  0.5369610000000 1.0
C      1  0.4936970000000  0.4675330000000  0.6103800000000 1.0
C      1  0.4225460000000  0.4597050000000  0.5531110000000 1.0
C      1  0.3974780000000  0.5156120000000  0.4733020000000 1.0
C      1  0.5470960000000  0.5953580000000  0.5379500000000 1.0
C      1  0.4532640000000  0.4047710000000  0.5038570000000 1.0
C      1  0.6077420000000  0.5053710000000  0.4943030000000 1.0
C      1  0.5056850000000  0.6081180000000  0.4918540000000 1.0
C      1  0.4588530000000  0.5962500000000  0.4985330000000 1.0
C      1  0.4711480000000  0.5689120000000  0.4351840000000 1.0
C      1  0.4833290000000  0.5917340000000  0.5414720000000 1.0
C      1  0.4998920000000  0.4064150000000  0.4613000000000 1.0
C      1  0.5763080000000  0.4663710000000  0.5625120000000 1.0
C      1  0.5844660000000  0.5666270000000  0.5191960000000 1.0
C      1  0.4977530000000  0.4036040000000  0.5433780000000 1.0
C      1  0.4662610000000  0.5365990000000  0.5322060000000 1.0
C      1  0.5326770000000  0.4735090000000  0.5766180000000 1.0
C      1  0.4839840000000  0.5072860000000  0.5116160000000 1.0
C      1  0.5550950000000  0.5864540000000  0.4873170000000 1.0
C      1  0.5057650000000  0.4267090000000  0.4343960000000 1.0
C      1  0.5682290000000  0.4895900000000  0.4296570000000 1.0
C      1  0.5585590000000  0.4329250000000  0.4636960000000 1.0
C      1  0.4581300000000  0.5238480000000  0.4572810000000 1.0
C      1  0.5622220000000  0.4841380000000  0.4565220000000 1.0
C      1  0.4797300000000  0.5070690000000  0.3926270000000 1.0
C      1  0.5453580000000  0.4113660000000  0.5226210000000 1.0
C      1  0.5552610000000  0.5455690000000  0.5636910000000 1.0
C      1  0.4388540000000  0.5049080000000  0.5679550000000 1.0
C      1  0.5308880000000  0.4442790000000  0.5592980000000 1.0
C      1  0.5779260000000  0.4391620000000  0.5562550000000 1.0
C      1  0.4641170000000  0.5491170000000  0.5842820000000 1.0
C      1  0.4589020000000  0.4909720000000  0.4058890000000 1.0
C      1  0.4525610000000  0.5786120000000  0.5470090000000 1.0
C      1  0.5218150000000  0.5282250000000  0.5510860000000 1.0
C      1  0.4693760000000  0.4402590000000  0.5745460000000 1.0
C      1  0.4648340000000  0.5663930000000  0.4840620000000 1.0
C      1  0.4298710000000  0.5017900000000  0.5157660000000 1.0
C      1  0.5019020000000  0.4917080000000  0.3835660000000 1.0
C      1  0.5058790000000  0.5083600000000  0.4870790000000 1.0
C      1  0.5307180000000  0.4654930000000  0.4903710000000 1.0
C      1  0.5796970000000  0.4711610000000  0.4744440000000 1.0
C      1  0.4505340000000  0.4458460000000  0.4689010000000 1.0
C      1  0.5048110000000  0.4897610000000  0.4317550000000 1.0
C      1  0.5851160000000  0.4962230000000  0.5640570000000 1.0
C      1  0.5535950000000  0.4829950000000  0.5433740000000 1.0
C      1  0.5289000000000  0.5062570000000  0.5926920000000 1.0
C      1  0.5718290000000  0.5377730000000  0.4561750000000 1.0
C      1  0.4324470000000  0.5446300000000  0.4487140000000 1.0
C      1  0.5053990000000  0.4035720000000  0.4938270000000 1.0
C      1  0.5530760000000  0.5624010000000  0.4192980000000 1.0
C      1  0.5254500000000  0.4978850000000  0.5130400000000 1.0
C      1  0.4594150000000  0.4302870000000  0.5215780000000 1.0
C      1  0.5429500000000  0.5824060000000  0.5606100000000 1.0
C      1  0.4243250000000  0.5468210000000  0.5031670000000 1.0
C      1  0.4516960000000  0.4602620000000  0.5356560000000 1.0
C      1  0.4870440000000  0.4418200000000  0.5122880000000 1.0
C      1  0.3796020000000  0.4939030000000  0.4795870000000 1.0
C      1  0.4455400000000  0.4586080000000  0.5770130000000 1.0
C      1  0.3858800000000  0.4836190000000  0.5061970000000 1.0
C      1  0.6013870000000  0.4788760000000  0.4902330000000 1.0
C      1  0.4749180000000  0.4959370000000  0.4467640000000 1.0
C      1  0.6184160000000  0.4801780000000  0.5370590000000 1.0
END
