TITL C-2778429-3646-52 0.00183241840995134 125000 -284.308547351824 0 0 49 (C1) n - 1
REM
REM in /home/nfs/bkarasulu/CARBON/AIRSS/Generating-Clusters/REBO/Only-C1/SD-CG/HFTN-CG
REM
REM
REM
REM
REM
REM ./C.cell (11c1c37f851c82e70ff6c80c92926a4b)
REM
REM compiler GCC version 9.2.1 20190827 (Red Hat 9.2.1-1)
REM options -cpp -mtune=generic -march=x86-64 -g -O0 -fpre-include=/usr/include/finclude/math-vector-fortran.h
REM seed -864912751 -443856532 1330474450 496024202 -294734419 -1310425075 173872202 -1122008836 1053175884 1311205172 -240104203 1202969326 -1581063310 -162964621 1565031482 -338847131 -1640593761 -1321197421 1276198911 -1351090298 -308259312 730719961 -1966347567 -1531064647 641890428 1392310667 931781708 2139519532 791044541 481395186 -60029101 -1841668714 1637882488
REM
CELL 1.54180   50.00000   50.00000   50.00000   90.00000   90.00000   90.00000
LATT -1
SFAC C  
C      1  0.5501890000000  0.4884330000000  0.4727140000000 1.0
C      1  0.4900650000000  0.4664570000000  0.5010220000000 1.0
C      1  0.4820870000000  0.5556040000000  0.4610790000000 1.0
C      1  0.4884720000000  0.5327280000000  0.4186720000000 1.0
C      1  0.4763250000000  0.4763040000000  0.5281240000000 1.0
C      1  0.5062530000000  0.5121730000000  0.5670900000000 1.0
C      1  0.5567310000000  0.4958080000000  0.4995660000000 1.0
C      1  0.4655830000000  0.5392650000000  0.4394940000000 1.0
C      1  0.5369690000000  0.4630930000000  0.4725460000000 1.0
C      1  0.4642710000000  0.5229700000000  0.5451530000000 1.0
C      1  0.5342560000000  0.4910890000000  0.5163440000000 1.0
C      1  0.4497960000000  0.5185700000000  0.4509490000000 1.0
C      1  0.5060120000000  0.4967660000000  0.5041130000000 1.0
C      1  0.5433470000000  0.5098550000000  0.4549680000000 1.0
C      1  0.5076290000000  0.5534560000000  0.5016050000000 1.0
C      1  0.5366080000000  0.5426540000000  0.5153090000000 1.0
C      1  0.5209550000000  0.4556930000000  0.4980840000000 1.0
C      1  0.5759630000000  0.5130520000000  0.5448490000000 1.0
C      1  0.4283500000000  0.5510530000000  0.5738010000000 1.0
C      1  0.5295120000000  0.5348230000000  0.4574270000000 1.0
C      1  0.4631200000000  0.5097190000000  0.4792680000000 1.0
C      1  0.5313690000000  0.4270230000000  0.5122850000000 1.0
C      1  0.5372600000000  0.4797600000000  0.5460730000000 1.0
C      1  0.4932910000000  0.4830330000000  0.4527350000000 1.0
C      1  0.5060090000000  0.4578450000000  0.4368070000000 1.0
C      1  0.4359730000000  0.4949490000000  0.4688830000000 1.0
C      1  0.5310770000000  0.4507230000000  0.4478370000000 1.0
C      1  0.5766010000000  0.5119480000000  0.5122780000000 1.0
C      1  0.4820910000000  0.5595270000000  0.4889790000000 1.0
C      1  0.5336330000000  0.5484000000000  0.4818620000000 1.0
C      1  0.4276810000000  0.4865270000000  0.5159460000000 1.0
C      1  0.4458320000000  0.5373850000000  0.5598580000000 1.0
C      1  0.5051670000000  0.5419490000000  0.4437280000000 1.0
C      1  0.5075240000000  0.5253070000000  0.5199870000000 1.0
C      1  0.5625510000000  0.5366210000000  0.5268510000000 1.0
C      1  0.4794260000000  0.4542670000000  0.4551100000000 1.0
C      1  0.4707950000000  0.4518960000000  0.4820120000000 1.0
C      1  0.4925670000000  0.5257500000000  0.5461680000000 1.0
C      1  0.4582160000000  0.5223140000000  0.5056580000000 1.0
C      1  0.5348000000000  0.4536560000000  0.5289650000000 1.0
C      1  0.5119480000000  0.4848430000000  0.5618090000000 1.0
C      1  0.4428860000000  0.4511960000000  0.4870520000000 1.0
C      1  0.4281510000000  0.4757950000000  0.4890420000000 1.0
C      1  0.4894890000000  0.4708740000000  0.5514570000000 1.0
C      1  0.4606020000000  0.5493710000000  0.5046100000000 1.0
C      1  0.4904790000000  0.4985730000000  0.4760170000000 1.0
C      1  0.4547810000000  0.4986990000000  0.5270880000000 1.0
C      1  0.5343400000000  0.4004040000000  0.5102880000000 1.0
C      1  0.5629710000000  0.4918000000000  0.5584350000000 1.0
END
