TITL C-2778428-5639-957 0.00378317158477144 125000 -603.521321038396 0 0 104 (C1) n - 1
REM
REM in /home/nfs/bkarasulu/CARBON/AIRSS/Generating-Clusters/REBO/Only-C1/SD-CG/HFTN-CG
REM
REM
REM
REM
REM
REM ./C.cell (11c1c37f851c82e70ff6c80c92926a4b)
REM
REM compiler GCC version 9.2.1 20190827 (Red Hat 9.2.1-1)
REM options -cpp -mtune=generic -march=x86-64 -g -O0 -fpre-include=/usr/include/finclude/math-vector-fortran.h
REM seed -815707485 2136691103 1010784225 363815021 -306966263 -1595068401 -673142129 1848201090 -865647447 -2023509116 -2092191395 -1014095448 1286387386 798953126 554808060 2029677308 -1731134206 -1065968320 -1118146358 1848574519 1314471690 -161351162 2003446055 -391356124 -1588082747 1792728129 -616908739 -1421218398 1003767826 954940912 -78220784 -1015153795 499509199
REM
CELL 1.54180   50.00000   50.00000   50.00000   90.00000   90.00000   90.00000
LATT -1
SFAC C  
C      1  0.4098120000000  0.4492500000000  0.5089420000000 1.0
C      1  0.5461330000000  0.5464240000000  0.5009620000000 1.0
C      1  0.5265260000000  0.4366020000000  0.5367330000000 1.0
C      1  0.4531690000000  0.5195770000000  0.5555690000000 1.0
C      1  0.5304870000000  0.5252830000000  0.5819010000000 1.0
C      1  0.5863390000000  0.5201880000000  0.5235240000000 1.0
C      1  0.4980410000000  0.4438070000000  0.4907650000000 1.0
C      1  0.5586960000000  0.5839450000000  0.4734630000000 1.0
C      1  0.5237090000000  0.5789320000000  0.5070440000000 1.0
C      1  0.5260730000000  0.5492980000000  0.5661700000000 1.0
C      1  0.4920850000000  0.4110370000000  0.4980970000000 1.0
C      1  0.4401390000000  0.4757580000000  0.5384720000000 1.0
C      1  0.5575040000000  0.4419290000000  0.4733610000000 1.0
C      1  0.4579950000000  0.5770510000000  0.5249390000000 1.0
C      1  0.4177830000000  0.4995230000000  0.5005950000000 1.0
C      1  0.4832250000000  0.4440730000000  0.4335210000000 1.0
C      1  0.4944790000000  0.5612280000000  0.4867920000000 1.0
C      1  0.4689730000000  0.5469900000000  0.4971950000000 1.0
C      1  0.5029900000000  0.4202840000000  0.5361250000000 1.0
C      1  0.5701930000000  0.5323790000000  0.5436760000000 1.0
C      1  0.4773460000000  0.5124790000000  0.5788250000000 1.0
C      1  0.4737940000000  0.5438500000000  0.5661340000000 1.0
C      1  0.5352220000000  0.4799670000000  0.5446580000000 1.0
C      1  0.5096660000000  0.5025940000000  0.5857020000000 1.0
C      1  0.5011250000000  0.4952510000000  0.4574550000000 1.0
C      1  0.5484410000000  0.4959790000000  0.4315570000000 1.0
C      1  0.4853430000000  0.4802830000000  0.5775130000000 1.0
C      1  0.5478850000000  0.5207340000000  0.5125950000000 1.0
C      1  0.4574630000000  0.4283330000000  0.4473780000000 1.0
C      1  0.4502290000000  0.5022060000000  0.4906910000000 1.0
C      1  0.5217610000000  0.4243970000000  0.4758450000000 1.0
C      1  0.4573190000000  0.4345390000000  0.5184300000000 1.0
C      1  0.5126280000000  0.5829850000000  0.4589040000000 1.0
C      1  0.5619300000000  0.4863150000000  0.5646700000000 1.0
C      1  0.5693270000000  0.4929850000000  0.4791510000000 1.0
C      1  0.4532000000000  0.4601400000000  0.4380310000000 1.0
C      1  0.4769100000000  0.5350080000000  0.5274840000000 1.0
C      1  0.4427530000000  0.5641170000000  0.5009740000000 1.0
C      1  0.4886650000000  0.5081820000000  0.4813850000000 1.0
C      1  0.5196890000000  0.5310670000000  0.4044700000000 1.0
C      1  0.4378330000000  0.5471870000000  0.4552390000000 1.0
C      1  0.5504130000000  0.5569000000000  0.5502290000000 1.0
C      1  0.5309860000000  0.4986070000000  0.4605550000000 1.0
C      1  0.4842870000000  0.4881200000000  0.5053690000000 1.0
C      1  0.4329010000000  0.4725170000000  0.4579190000000 1.0
C      1  0.4270630000000  0.4697480000000  0.4908110000000 1.0
C      1  0.5267340000000  0.4737240000000  0.5782180000000 1.0
C      1  0.4626380000000  0.5607750000000  0.4478540000000 1.0
C      1  0.5692580000000  0.5364410000000  0.4569400000000 1.0
C      1  0.5200240000000  0.3974750000000  0.4966360000000 1.0
C      1  0.5411700000000  0.4779170000000  0.4855960000000 1.0
C      1  0.4997040000000  0.5498090000000  0.5493390000000 1.0
C      1  0.5392730000000  0.4451780000000  0.5627970000000 1.0
C      1  0.4745960000000  0.4824330000000  0.4276060000000 1.0
C      1  0.5742720000000  0.5630900000000  0.4643890000000 1.0
C      1  0.5310840000000  0.5888150000000  0.4805550000000 1.0
C      1  0.4625900000000  0.4753430000000  0.4737890000000 1.0
C      1  0.4772900000000  0.4288800000000  0.5411780000000 1.0
C      1  0.5112360000000  0.5496370000000  0.5191860000000 1.0
C      1  0.4581520000000  0.4655560000000  0.5043420000000 1.0
C      1  0.5218570000000  0.5552750000000  0.4456110000000 1.0
C      1  0.4630020000000  0.4140740000000  0.4964980000000 1.0
C      1  0.4184730000000  0.5003690000000  0.4665620000000 1.0
C      1  0.5392560000000  0.5193050000000  0.5434960000000 1.0
C      1  0.4703520000000  0.4763610000000  0.5406860000000 1.0
C      1  0.4775230000000  0.4516660000000  0.5607670000000 1.0
C      1  0.4906510000000  0.4660210000000  0.4660040000000 1.0
C      1  0.5284400000000  0.4591720000000  0.5113610000000 1.0
C      1  0.5488310000000  0.4152810000000  0.4929970000000 1.0
C      1  0.5574940000000  0.5133070000000  0.5742830000000 1.0
C      1  0.5829900000000  0.5045750000000  0.5012380000000 1.0
C      1  0.5685600000000  0.4398110000000  0.5042430000000 1.0
C      1  0.4199310000000  0.5323990000000  0.4780330000000 1.0
C      1  0.5405550000000  0.4904370000000  0.5158720000000 1.0
C      1  0.5661510000000  0.4571230000000  0.5553040000000 1.0
C      1  0.4235180000000  0.5024980000000  0.5317890000000 1.0
C      1  0.5050830000000  0.5457650000000  0.4234750000000 1.0
C      1  0.4309760000000  0.4497470000000  0.5287670000000 1.0
C      1  0.4287670000000  0.5351310000000  0.5367410000000 1.0
C      1  0.4226250000000  0.5434840000000  0.5043250000000 1.0
C      1  0.5096210000000  0.4421300000000  0.4527030000000 1.0
C      1  0.4999750000000  0.5188990000000  0.5090540000000 1.0
C      1  0.4641680000000  0.5256270000000  0.4760810000000 1.0
C      1  0.4388200000000  0.5169350000000  0.4467130000000 1.0
C      1  0.4790130000000  0.5417010000000  0.4326150000000 1.0
C      1  0.4557670000000  0.5092200000000  0.5231620000000 1.0
C      1  0.4727820000000  0.5116790000000  0.4448670000000 1.0
C      1  0.4511370000000  0.5583820000000  0.5471050000000 1.0
C      1  0.5413180000000  0.4504520000000  0.4527580000000 1.0
C      1  0.5307770000000  0.4699280000000  0.4327750000000 1.0
C      1  0.4750240000000  0.5863530000000  0.4991380000000 1.0
C      1  0.4527390000000  0.4154550000000  0.4702670000000 1.0
C      1  0.5035240000000  0.4700170000000  0.4249390000000 1.0
C      1  0.5470900000000  0.5678460000000  0.5235060000000 1.0
C      1  0.5063680000000  0.4660820000000  0.5543990000000 1.0
C      1  0.5217000000000  0.5500040000000  0.4795430000000 1.0
C      1  0.5697260000000  0.5061390000000  0.4540590000000 1.0
C      1  0.4894190000000  0.5003150000000  0.5428470000000 1.0
C      1  0.5405140000000  0.5139990000000  0.4081060000000 1.0
C      1  0.5107800000000  0.5115090000000  0.5467690000000 1.0
C      1  0.4951690000000  0.4616570000000  0.5181550000000 1.0
C      1  0.5751490000000  0.4493610000000  0.5293000000000 1.0
C      1  0.5381210000000  0.5297620000000  0.4593970000000 1.0
C      1  0.4797150000000  0.5816240000000  0.4654450000000 1.0
END
