TITL C-2778427-5640-397 0.00205358837232507 125000 -888.977087030801 0 0 154 (C1) n - 1
REM
REM in /home/nfs/bkarasulu/CARBON/AIRSS/Generating-Clusters/REBO/Only-C1/SD-CG/HFTN-CG
REM
REM
REM
REM
REM
REM ./C.cell (11c1c37f851c82e70ff6c80c92926a4b)
REM
REM compiler GCC version 9.2.1 20190827 (Red Hat 9.2.1-1)
REM options -cpp -mtune=generic -march=x86-64 -g -O0 -fpre-include=/usr/include/finclude/math-vector-fortran.h
REM seed -1023837687 1067266687 1188873649 -911704136 -1203170197 1405151647 -1439182447 1917178915 -827197398 1603142350 880314395 2040099916 1057402635 923401521 -84921933 717878108 145088035 -1025078309 1816457901 1422705190 -1625908255 1699542175 -1475657148 -799860857 -1533735862 -419471003 1863074942 1388057226 974219479 1678252312 1220723717 618675374 -1226636401
REM
CELL 1.54180   50.00000   50.00000   50.00000   90.00000   90.00000   90.00000
LATT -1
SFAC C  
C      1  0.4890070000000  0.4896860000000  0.4319960000000 1.0
C      1  0.4112740000000  0.5125270000000  0.5063050000000 1.0
C      1  0.5798840000000  0.4476640000000  0.4908700000000 1.0
C      1  0.4981940000000  0.4499290000000  0.4738420000000 1.0
C      1  0.5847130000000  0.4777790000000  0.4904150000000 1.0
C      1  0.5252280000000  0.5274370000000  0.5135930000000 1.0
C      1  0.5428630000000  0.4980240000000  0.5896480000000 1.0
C      1  0.5165140000000  0.4964350000000  0.5597560000000 1.0
C      1  0.4558770000000  0.5664690000000  0.5522230000000 1.0
C      1  0.3995290000000  0.4736910000000  0.5112710000000 1.0
C      1  0.4434080000000  0.5182020000000  0.4102440000000 1.0
C      1  0.4960180000000  0.5694730000000  0.4482400000000 1.0
C      1  0.5446230000000  0.5617110000000  0.5102670000000 1.0
C      1  0.4984370000000  0.4584850000000  0.5977030000000 1.0
C      1  0.4971020000000  0.4605350000000  0.4444750000000 1.0
C      1  0.4739750000000  0.5661970000000  0.4959640000000 1.0
C      1  0.4480090000000  0.4869870000000  0.5332870000000 1.0
C      1  0.5780270000000  0.4673910000000  0.5456300000000 1.0
C      1  0.4402100000000  0.5396380000000  0.4873070000000 1.0
C      1  0.4013800000000  0.4971500000000  0.5295550000000 1.0
C      1  0.5446480000000  0.4705030000000  0.4906840000000 1.0
C      1  0.5225040000000  0.5196860000000  0.3918950000000 1.0
C      1  0.4209680000000  0.4517670000000  0.4857580000000 1.0
C      1  0.4278500000000  0.4466940000000  0.4563260000000 1.0
C      1  0.5959150000000  0.5639450000000  0.5053790000000 1.0
C      1  0.4735470000000  0.4278860000000  0.5373510000000 1.0
C      1  0.5077150000000  0.5310120000000  0.5903020000000 1.0
C      1  0.4256810000000  0.4907010000000  0.5718600000000 1.0
C      1  0.4585220000000  0.5113380000000  0.5814750000000 1.0
C      1  0.5198870000000  0.4920050000000  0.4964060000000 1.0
C      1  0.4966320000000  0.4234780000000  0.4298260000000 1.0
C      1  0.4192460000000  0.5642590000000  0.5218440000000 1.0
C      1  0.4805020000000  0.4463600000000  0.5094920000000 1.0
C      1  0.4923030000000  0.5686570000000  0.5363970000000 1.0
C      1  0.4369810000000  0.5008420000000  0.4956080000000 1.0
C      1  0.4469880000000  0.4411080000000  0.5056700000000 1.0
C      1  0.5640450000000  0.5019690000000  0.4521720000000 1.0
C      1  0.5157830000000  0.4631610000000  0.5281280000000 1.0
C      1  0.4200320000000  0.5171970000000  0.4444260000000 1.0
C      1  0.5364410000000  0.5258630000000  0.5870120000000 1.0
C      1  0.5520940000000  0.4227430000000  0.5641000000000 1.0
C      1  0.4913530000000  0.5928400000000  0.5595440000000 1.0
C      1  0.4445860000000  0.5341870000000  0.5161280000000 1.0
C      1  0.4602590000000  0.4614250000000  0.4741120000000 1.0
C      1  0.3989610000000  0.5322670000000  0.4865080000000 1.0
C      1  0.5841030000000  0.5009480000000  0.5496610000000 1.0
C      1  0.4480420000000  0.4702790000000  0.4467570000000 1.0
C      1  0.5749780000000  0.5212540000000  0.4726240000000 1.0
C      1  0.5461090000000  0.4110110000000  0.5343780000000 1.0
C      1  0.5206310000000  0.5970890000000  0.4812620000000 1.0
C      1  0.5314320000000  0.4480960000000  0.5693570000000 1.0
C      1  0.5034660000000  0.4588820000000  0.5580550000000 1.0
C      1  0.5452320000000  0.5883800000000  0.4908020000000 1.0
C      1  0.4665890000000  0.5388220000000  0.5416630000000 1.0
C      1  0.5567200000000  0.4506820000000  0.4449550000000 1.0
C      1  0.5678900000000  0.4377610000000  0.5393220000000 1.0
C      1  0.4921280000000  0.4747280000000  0.4947220000000 1.0
C      1  0.5171650000000  0.4795710000000  0.5893980000000 1.0
C      1  0.4418020000000  0.5774910000000  0.4751290000000 1.0
C      1  0.4999410000000  0.5385050000000  0.5422960000000 1.0
C      1  0.4556890000000  0.4704390000000  0.4174240000000 1.0
C      1  0.4658420000000  0.4030800000000  0.5166840000000 1.0
C      1  0.5665470000000  0.5350110000000  0.4226850000000 1.0
C      1  0.5657040000000  0.4745890000000  0.5171360000000 1.0
C      1  0.5967660000000  0.5055520000000  0.4923680000000 1.0
C      1  0.5816120000000  0.4759210000000  0.4131480000000 1.0
C      1  0.4993980000000  0.4917700000000  0.5358240000000 1.0
C      1  0.5319340000000  0.4494060000000  0.4682950000000 1.0
C      1  0.4525530000000  0.5139190000000  0.5537340000000 1.0
C      1  0.5028750000000  0.4763420000000  0.4038240000000 1.0
C      1  0.5264980000000  0.4286360000000  0.4195390000000 1.0
C      1  0.4999290000000  0.6069860000000  0.5296370000000 1.0
C      1  0.5989430000000  0.5589150000000  0.4781080000000 1.0
C      1  0.4723570000000  0.6131960000000  0.5103100000000 1.0
C      1  0.4713230000000  0.5035460000000  0.4510630000000 1.0
C      1  0.4432120000000  0.5500750000000  0.4550420000000 1.0
C      1  0.5554560000000  0.5534590000000  0.4441640000000 1.0
C      1  0.5381320000000  0.5420590000000  0.4654730000000 1.0
C      1  0.4712200000000  0.4292330000000  0.4748450000000 1.0
C      1  0.4814530000000  0.4808420000000  0.5700020000000 1.0
C      1  0.5831190000000  0.4990430000000  0.4268400000000 1.0
C      1  0.4866550000000  0.3903780000000  0.5327580000000 1.0
C      1  0.4129910000000  0.5080310000000  0.5536350000000 1.0
C      1  0.5065900000000  0.4955640000000  0.3841220000000 1.0
C      1  0.5374890000000  0.4879480000000  0.5255330000000 1.0
C      1  0.4675040000000  0.4678860000000  0.6002000000000 1.0
C      1  0.5901620000000  0.5482100000000  0.5262950000000 1.0
C      1  0.4271740000000  0.5443390000000  0.4252230000000 1.0
C      1  0.4529400000000  0.4308850000000  0.4494240000000 1.0
C      1  0.4094500000000  0.4458070000000  0.5175090000000 1.0
C      1  0.5218100000000  0.4218220000000  0.4526550000000 1.0
C      1  0.4986430000000  0.4185310000000  0.5583860000000 1.0
C      1  0.5638250000000  0.4736670000000  0.4650830000000 1.0
C      1  0.4523380000000  0.4727810000000  0.5606790000000 1.0
C      1  0.4815090000000  0.5034520000000  0.4808620000000 1.0
C      1  0.6076220000000  0.5274370000000  0.4685930000000 1.0
C      1  0.4291870000000  0.5610650000000  0.5603320000000 1.0
C      1  0.4929860000000  0.5168510000000  0.5166700000000 1.0
C      1  0.4705830000000  0.4032360000000  0.4890010000000 1.0
C      1  0.5147340000000  0.4071770000000  0.5319230000000 1.0
C      1  0.5186210000000  0.4051060000000  0.4779660000000 1.0
C      1  0.4890330000000  0.5107920000000  0.5845680000000 1.0
C      1  0.4628560000000  0.5087150000000  0.5156670000000 1.0
C      1  0.4512420000000  0.4420510000000  0.5578480000000 1.0
C      1  0.4853200000000  0.5360090000000  0.4890080000000 1.0
C      1  0.5143820000000  0.5092350000000  0.4230130000000 1.0
C      1  0.5505630000000  0.5200130000000  0.4063110000000 1.0
C      1  0.4589350000000  0.5559620000000  0.4190740000000 1.0
C      1  0.5106100000000  0.5584050000000  0.5093340000000 1.0
C      1  0.4874720000000  0.5807690000000  0.5871360000000 1.0
C      1  0.5339940000000  0.5033300000000  0.4483830000000 1.0
C      1  0.4723330000000  0.4441860000000  0.4286550000000 1.0
C      1  0.5234650000000  0.5946410000000  0.5514990000000 1.0
C      1  0.4652150000000  0.5871880000000  0.5288310000000 1.0
C      1  0.5908910000000  0.5151230000000  0.5207600000000 1.0
C      1  0.4810680000000  0.5706790000000  0.4240620000000 1.0
C      1  0.4503950000000  0.4732420000000  0.5022720000000 1.0
C      1  0.5233120000000  0.4169670000000  0.5796340000000 1.0
C      1  0.5850630000000  0.5553000000000  0.4514990000000 1.0
C      1  0.5582530000000  0.5250560000000  0.5207920000000 1.0
C      1  0.4976330000000  0.5569620000000  0.5951180000000 1.0
C      1  0.5198100000000  0.5146080000000  0.4744770000000 1.0
C      1  0.5969200000000  0.5272600000000  0.4361780000000 1.0
C      1  0.5301080000000  0.4565510000000  0.4087780000000 1.0
C      1  0.4426470000000  0.5120170000000  0.4672340000000 1.0
C      1  0.5685360000000  0.4528120000000  0.4208240000000 1.0
C      1  0.4209700000000  0.5360110000000  0.5409370000000 1.0
C      1  0.5537570000000  0.5449550000000  0.5729820000000 1.0
C      1  0.5609860000000  0.4361010000000  0.5075420000000 1.0
C      1  0.5326160000000  0.5485340000000  0.5399210000000 1.0
C      1  0.4475890000000  0.4926960000000  0.4026600000000 1.0
C      1  0.4324490000000  0.4340140000000  0.5341350000000 1.0
C      1  0.5401340000000  0.4891150000000  0.4106190000000 1.0
C      1  0.4998650000000  0.5876540000000  0.5026010000000 1.0
C      1  0.5668510000000  0.4853340000000  0.5723770000000 1.0
C      1  0.4030400000000  0.5068240000000  0.4677620000000 1.0
C      1  0.5408490000000  0.4104990000000  0.5007140000000 1.0
C      1  0.5405320000000  0.4750500000000  0.5572110000000 1.0
C      1  0.5249770000000  0.4734790000000  0.4370240000000 1.0
C      1  0.5382500000000  0.5712400000000  0.5611930000000 1.0
C      1  0.5029170000000  0.4214650000000  0.5036570000000 1.0
C      1  0.5054460000000  0.5445080000000  0.4646400000000 1.0
C      1  0.5562690000000  0.5384020000000  0.4910220000000 1.0
C      1  0.4958760000000  0.5934710000000  0.4635300000000 1.0
C      1  0.4047450000000  0.4816140000000  0.4817980000000 1.0
C      1  0.4430320000000  0.5733930000000  0.5086590000000 1.0
C      1  0.4800910000000  0.4411440000000  0.5743430000000 1.0
C      1  0.4136510000000  0.5585980000000  0.4803060000000 1.0
C      1  0.4459150000000  0.4881960000000  0.5968970000000 1.0
C      1  0.4920210000000  0.3878590000000  0.4807200000000 1.0
C      1  0.5722110000000  0.5329290000000  0.5509700000000 1.0
C      1  0.5277260000000  0.4402840000000  0.5138870000000 1.0
C      1  0.4684510000000  0.5975930000000  0.4803120000000 1.0
C      1  0.4614110000000  0.5281680000000  0.4362560000000 1.0
END
