TITL C-2778423-5760-520 -0.000584036401519491 125000 -106.150415171676 0 0 19 (C2) n - 1
REM
REM in /home/nfs/bkarasulu/CARBON/AIRSS/Generating-Clusters/REBO/Only-C1/SD-CG/HFTN-CG
REM
REM
REM
REM
REM
REM ./C.cell (11c1c37f851c82e70ff6c80c92926a4b)
REM
REM compiler GCC version 9.2.1 20190827 (Red Hat 9.2.1-1)
REM options -cpp -mtune=generic -march=x86-64 -g -O0 -fpre-include=/usr/include/finclude/math-vector-fortran.h
REM seed 539741244 -1837608255 1601597756 1581919845 -159912720 91340682 -1541833098 1411301675 1366369106 731311699 1847725045 -791714229 717044079 39953224 -758155193 1355858154 1549792893 -2145904024 -1644183831 -316041051 42573104 -737335575 -1841645205 -1366839327 1115625167 1209964291 326105843 -1381448950 1290397308 -2046391862 -56023997 1166602695 -1116432415
REM
CELL 1.54180   50.00000   50.00000   50.00000   90.00000   90.00000   90.00000
LATT -1
SFAC C  
C      1  0.4700330000000  0.5419480000000  0.4159500000000 1.0
C      1  0.4328740000000  0.5124910000000  0.4288660000000 1.0
C      1  0.4852610000000  0.4751170000000  0.5336750000000 1.0
C      1  0.5626080000000  0.5070110000000  0.5273520000000 1.0
C      1  0.5168260000000  0.5057180000000  0.5007310000000 1.0
C      1  0.4903230000000  0.4633110000000  0.5572480000000 1.0
C      1  0.5739340000000  0.4980120000000  0.5500270000000 1.0
C      1  0.5552280000000  0.4690340000000  0.5882720000000 1.0
C      1  0.5716880000000  0.4839390000000  0.5729110000000 1.0
C      1  0.5061950000000  0.4570610000000  0.5780430000000 1.0
C      1  0.4900380000000  0.5579430000000  0.4088000000000 1.0
C      1  0.5421550000000  0.5095120000000  0.5101440000000 1.0
C      1  0.5302660000000  0.4588970000000  0.5900430000000 1.0
C      1  0.4758890000000  0.5135190000000  0.4614630000000 1.0
C      1  0.4908190000000  0.4899960000000  0.5114870000000 1.0
C      1  0.4618510000000  0.5213890000000  0.4390270000000 1.0
C      1  0.4896640000000  0.5057950000000  0.4834800000000 1.0
C      1  0.4126670000000  0.4966090000000  0.4356920000000 1.0
C      1  0.4416810000000  0.5326990000000  0.4067880000000 1.0
END
