TITL C-2778426-5645-77 0.00178466411850626 125000 -988.801648452488 0 0 168 (C1) n - 1
REM
REM in /home/nfs/bkarasulu/CARBON/AIRSS/Generating-Clusters/REBO/Only-C1/SD-CG/HFTN-CG
REM
REM
REM
REM
REM
REM ./C.cell (11c1c37f851c82e70ff6c80c92926a4b)
REM
REM compiler GCC version 9.2.1 20190827 (Red Hat 9.2.1-1)
REM options -cpp -mtune=generic -march=x86-64 -g -O0 -fpre-include=/usr/include/finclude/math-vector-fortran.h
REM seed 681065574 -267621808 1343866782 -514632834 888223402 -495436339 37680333 1611307286 -1340482075 -1087248249 1348011902 951472123 1247736023 -999725958 2053158285 -580861178 -762118164 118873547 -102257845 114441296 -223486196 -551597357 1809950684 1596690205 -1271835532 378482736 -334647503 292439157 1927300725 803524073 -1572737739 79089258 182945523
REM
CELL 1.54180   50.00000   50.00000   50.00000   90.00000   90.00000   90.00000
LATT -1
SFAC C  
C      1  0.6116220000000  0.4879180000000  0.4973720000000 1.0
C      1  0.4581690000000  0.5350860000000  0.5270830000000 1.0
C      1  0.4611510000000  0.4745830000000  0.4188940000000 1.0
C      1  0.4940870000000  0.5012770000000  0.5737560000000 1.0
C      1  0.4813740000000  0.5552420000000  0.4082690000000 1.0
C      1  0.5609500000000  0.4790690000000  0.5604520000000 1.0
C      1  0.3994880000000  0.4891740000000  0.5556290000000 1.0
C      1  0.5365890000000  0.5341330000000  0.5925760000000 1.0
C      1  0.5643780000000  0.4867010000000  0.5106440000000 1.0
C      1  0.4252560000000  0.5017200000000  0.4403720000000 1.0
C      1  0.4231400000000  0.4749590000000  0.4528290000000 1.0
C      1  0.4324580000000  0.4743780000000  0.4857710000000 1.0
C      1  0.5422690000000  0.4940610000000  0.4652020000000 1.0
C      1  0.4871150000000  0.3796360000000  0.4943960000000 1.0
C      1  0.4935730000000  0.4316880000000  0.5417770000000 1.0
C      1  0.5225620000000  0.4704110000000  0.5192970000000 1.0
C      1  0.4662910000000  0.5114060000000  0.5073620000000 1.0
C      1  0.5502610000000  0.5581620000000  0.5232400000000 1.0
C      1  0.4164620000000  0.4213370000000  0.5211920000000 1.0
C      1  0.3973550000000  0.5061570000000  0.4808210000000 1.0
C      1  0.4530570000000  0.5862110000000  0.5335860000000 1.0
C      1  0.4484280000000  0.4990840000000  0.5527340000000 1.0
C      1  0.5018860000000  0.5492150000000  0.4817930000000 1.0
C      1  0.5534520000000  0.5175440000000  0.5527610000000 1.0
C      1  0.5192210000000  0.3988930000000  0.5427590000000 1.0
C      1  0.5760660000000  0.5698000000000  0.4658460000000 1.0
C      1  0.5941090000000  0.4980540000000  0.5210120000000 1.0
C      1  0.5508710000000  0.4587120000000  0.5222070000000 1.0
C      1  0.5067510000000  0.4994090000000  0.3929530000000 1.0
C      1  0.4844630000000  0.5095990000000  0.4032690000000 1.0
C      1  0.4657320000000  0.5346950000000  0.5567350000000 1.0
C      1  0.5310320000000  0.4038980000000  0.4688050000000 1.0
C      1  0.4994460000000  0.5349120000000  0.5778980000000 1.0
C      1  0.5046730000000  0.3897180000000  0.5203260000000 1.0
C      1  0.4771870000000  0.5974560000000  0.4957280000000 1.0
C      1  0.4755670000000  0.4744960000000  0.4587600000000 1.0
C      1  0.4246000000000  0.5362040000000  0.5520690000000 1.0
C      1  0.3989220000000  0.4604740000000  0.4691530000000 1.0
C      1  0.4743330000000  0.4444300000000  0.4285390000000 1.0
C      1  0.5463410000000  0.5540320000000  0.5759520000000 1.0
C      1  0.5408800000000  0.4496530000000  0.4845530000000 1.0
C      1  0.4805450000000  0.5068200000000  0.5443160000000 1.0
C      1  0.5815900000000  0.5462360000000  0.5165840000000 1.0
C      1  0.4977340000000  0.4198760000000  0.4258060000000 1.0
C      1  0.5322680000000  0.4331080000000  0.5093450000000 1.0
C      1  0.4407730000000  0.5223170000000  0.5762710000000 1.0
C      1  0.5100840000000  0.4845640000000  0.5984130000000 1.0
C      1  0.4952900000000  0.5040180000000  0.5143540000000 1.0
C      1  0.4590010000000  0.4382700000000  0.5744960000000 1.0
C      1  0.5557660000000  0.5654880000000  0.4904310000000 1.0
C      1  0.4244880000000  0.4922360000000  0.5340880000000 1.0
C      1  0.5488490000000  0.4553630000000  0.4339730000000 1.0
C      1  0.5257830000000  0.5638490000000  0.4365210000000 1.0
C      1  0.5836380000000  0.4751760000000  0.5433830000000 1.0
C      1  0.5242410000000  0.5946040000000  0.5591350000000 1.0
C      1  0.5665890000000  0.5893160000000  0.4492080000000 1.0
C      1  0.5265710000000  0.4598980000000  0.5899100000000 1.0
C      1  0.4540650000000  0.4513570000000  0.4618760000000 1.0
C      1  0.4140720000000  0.5254530000000  0.4976840000000 1.0
C      1  0.5053760000000  0.5983950000000  0.4766990000000 1.0
C      1  0.5932620000000  0.5265720000000  0.5333100000000 1.0
C      1  0.4437510000000  0.5003650000000  0.4187670000000 1.0
C      1  0.4276040000000  0.5615390000000  0.4410180000000 1.0
C      1  0.5061330000000  0.4056740000000  0.5686980000000 1.0
C      1  0.5210910000000  0.5505980000000  0.5036260000000 1.0
C      1  0.5374720000000  0.5371880000000  0.4440790000000 1.0
C      1  0.5181810000000  0.4636530000000  0.4261280000000 1.0
C      1  0.5110820000000  0.5562380000000  0.5307330000000 1.0
C      1  0.4461460000000  0.4592430000000  0.5536960000000 1.0
C      1  0.5804480000000  0.4461980000000  0.5328150000000 1.0
C      1  0.5701680000000  0.4631890000000  0.4876580000000 1.0
C      1  0.4730590000000  0.5974800000000  0.5507520000000 1.0
C      1  0.5089840000000  0.5839170000000  0.5332560000000 1.0
C      1  0.5581800000000  0.4319040000000  0.5510560000000 1.0
C      1  0.4332180000000  0.5671340000000  0.5475830000000 1.0
C      1  0.5985720000000  0.4876040000000  0.4369700000000 1.0
C      1  0.5359240000000  0.5909320000000  0.4859430000000 1.0
C      1  0.5034180000000  0.4884500000000  0.4894670000000 1.0
C      1  0.5398960000000  0.5181090000000  0.4202880000000 1.0
C      1  0.3930440000000  0.4797890000000  0.4897710000000 1.0
C      1  0.5590470000000  0.4972160000000  0.4053520000000 1.0
C      1  0.6138590000000  0.4601640000000  0.4984200000000 1.0
C      1  0.4751950000000  0.5756410000000  0.4451680000000 1.0
C      1  0.4188050000000  0.4471220000000  0.5007400000000 1.0
C      1  0.4281990000000  0.4509970000000  0.4318700000000 1.0
C      1  0.4490840000000  0.4262280000000  0.4402510000000 1.0
C      1  0.5792400000000  0.5257990000000  0.5575100000000 1.0
C      1  0.5729120000000  0.4752220000000  0.4204280000000 1.0
C      1  0.5022290000000  0.4370290000000  0.5108900000000 1.0
C      1  0.4681340000000  0.5066330000000  0.4679510000000 1.0
C      1  0.4782430000000  0.5075560000000  0.4367230000000 1.0
C      1  0.4178840000000  0.5585150000000  0.5196940000000 1.0
C      1  0.4922490000000  0.4799230000000  0.4288750000000 1.0
C      1  0.4680050000000  0.4793160000000  0.5703160000000 1.0
C      1  0.5645650000000  0.5472230000000  0.4044000000000 1.0
C      1  0.5193710000000  0.5078420000000  0.5349510000000 1.0
C      1  0.3963230000000  0.5188560000000  0.5476860000000 1.0
C      1  0.5781860000000  0.5244510000000  0.4126260000000 1.0
C      1  0.4983570000000  0.6027200000000  0.5157850000000 1.0
C      1  0.5429860000000  0.5682650000000  0.5530170000000 1.0
C      1  0.4929490000000  0.5870870000000  0.5694000000000 1.0
C      1  0.4462470000000  0.5258300000000  0.4858620000000 1.0
C      1  0.4143780000000  0.4609510000000  0.5561770000000 1.0
C      1  0.5396030000000  0.6095370000000  0.5108950000000 1.0
C      1  0.5848290000000  0.5380530000000  0.4882580000000 1.0
C      1  0.4753440000000  0.3990000000000  0.4732450000000 1.0
C      1  0.5151160000000  0.5340040000000  0.4112030000000 1.0
C      1  0.5414320000000  0.5218070000000  0.4676220000000 1.0
C      1  0.5626640000000  0.4785660000000  0.4515220000000 1.0
C      1  0.5117250000000  0.5179460000000  0.6048070000000 1.0
C      1  0.4875510000000  0.4287850000000  0.4831430000000 1.0
C      1  0.5093320000000  0.6109130000000  0.4467190000000 1.0
C      1  0.4513060000000  0.4010840000000  0.4564240000000 1.0
C      1  0.4599920000000  0.4624120000000  0.5237870000000 1.0
C      1  0.5354390000000  0.5910860000000  0.4517140000000 1.0
C      1  0.5571220000000  0.4118740000000  0.4761410000000 1.0
C      1  0.4500960000000  0.4852210000000  0.5044110000000 1.0
C      1  0.5076400000000  0.4602490000000  0.5547340000000 1.0
C      1  0.4621740000000  0.4341620000000  0.5053170000000 1.0
C      1  0.5273690000000  0.4842590000000  0.5562880000000 1.0
C      1  0.5101010000000  0.4352390000000  0.5778250000000 1.0
C      1  0.4534810000000  0.5597620000000  0.5737740000000 1.0
C      1  0.4552010000000  0.5830800000000  0.5053070000000 1.0
C      1  0.4049690000000  0.4720030000000  0.5189210000000 1.0
C      1  0.5393200000000  0.5059170000000  0.5793670000000 1.0
C      1  0.5400620000000  0.4171270000000  0.5352970000000 1.0
C      1  0.5357880000000  0.6135100000000  0.5350130000000 1.0
C      1  0.4545620000000  0.5580400000000  0.4282400000000 1.0
C      1  0.4016340000000  0.4426230000000  0.5362810000000 1.0
C      1  0.5311380000000  0.4417930000000  0.4565510000000 1.0
C      1  0.5753260000000  0.4295190000000  0.4872020000000 1.0
C      1  0.4307150000000  0.5198420000000  0.5235030000000 1.0
C      1  0.5034000000000  0.5715540000000  0.4173840000000 1.0
C      1  0.4906790000000  0.5716430000000  0.4689040000000 1.0
C      1  0.4125320000000  0.5203000000000  0.4581700000000 1.0
C      1  0.4587350000000  0.5295980000000  0.4099650000000 1.0
C      1  0.5478450000000  0.5123430000000  0.5194730000000 1.0
C      1  0.4653700000000  0.4490610000000  0.5987910000000 1.0
C      1  0.4989560000000  0.5316500000000  0.4350290000000 1.0
C      1  0.5258420000000  0.4775960000000  0.4800880000000 1.0
C      1  0.4461340000000  0.5155130000000  0.6050290000000 1.0
C      1  0.6082340000000  0.5020430000000  0.4666130000000 1.0
C      1  0.5275220000000  0.4846570000000  0.4026500000000 1.0
C      1  0.4362980000000  0.5579430000000  0.4923690000000 1.0
C      1  0.4959040000000  0.5264050000000  0.4663690000000 1.0
C      1  0.5912930000000  0.5449690000000  0.4605550000000 1.0
C      1  0.4983460000000  0.4491620000000  0.4528260000000 1.0
C      1  0.5107280000000  0.4040990000000  0.4902020000000 1.0
C      1  0.4782940000000  0.4780000000000  0.6020330000000 1.0
C      1  0.5956920000000  0.4397630000000  0.5074380000000 1.0
C      1  0.4908110000000  0.5977540000000  0.4287530000000 1.0
C      1  0.4253820000000  0.4390470000000  0.4697720000000 1.0
C      1  0.4613440000000  0.4993730000000  0.6164770000000 1.0
C      1  0.5644310000000  0.4856550000000  0.5901660000000 1.0
C      1  0.5526520000000  0.5315290000000  0.4936040000000 1.0
C      1  0.5374230000000  0.5523730000000  0.4000170000000 1.0
C      1  0.5962340000000  0.5213890000000  0.4406180000000 1.0
C      1  0.4411150000000  0.4143750000000  0.5053420000000 1.0
C      1  0.5116490000000  0.5345180000000  0.5485900000000 1.0
C      1  0.4765290000000  0.4191970000000  0.5632840000000 1.0
C      1  0.4363770000000  0.3983150000000  0.4820610000000 1.0
C      1  0.4213670000000  0.5475040000000  0.4635410000000 1.0
C      1  0.5180830000000  0.4148740000000  0.4433160000000 1.0
C      1  0.5488780000000  0.4440940000000  0.5753290000000 1.0
C      1  0.4915820000000  0.4660150000000  0.5249790000000 1.0
C      1  0.5897970000000  0.4741640000000  0.4670590000000 1.0
C      1  0.4837610000000  0.5619510000000  0.5797880000000 1.0
C      1  0.3953830000000  0.5378640000000  0.5233370000000 1.0
END
