TITL C-2778422-5617-844 0.00103982068403193 125000 -492.47716283299 0 0 85 (C1) n - 1
REM
REM in /home/nfs/bkarasulu/CARBON/AIRSS/Generating-Clusters/REBO/Only-C1/SD-CG/HFTN-CG
REM
REM
REM
REM
REM
REM ./C.cell (11c1c37f851c82e70ff6c80c92926a4b)
REM
REM compiler GCC version 9.2.1 20190827 (Red Hat 9.2.1-1)
REM options -cpp -mtune=generic -march=x86-64 -g -O0 -fpre-include=/usr/include/finclude/math-vector-fortran.h
REM seed -786577276 -235919393 -1556461640 -971491751 2112588718 -545035174 -1977985125 -80299051 325689866 -309880461 -118516467 -512960608 -591373855 619042401 2095123713 -27421109 -371545084 716979181 -676316768 -75014969 463594271 -2000950694 -135543969 533534281 -1570098465 -2005968377 -1083810856 -838961472 458822416 -1197962321 -1738782864 1391047066 1712647576
REM
CELL 1.54180   50.00000   50.00000   50.00000   90.00000   90.00000   90.00000
LATT -1
SFAC C  
C      1  0.4729520000000  0.4644750000000  0.4413090000000 1.0
C      1  0.5387100000000  0.5336760000000  0.5636870000000 1.0
C      1  0.5147750000000  0.5211020000000  0.5293810000000 1.0
C      1  0.5305930000000  0.5083350000000  0.4405680000000 1.0
C      1  0.4271950000000  0.5031040000000  0.5386980000000 1.0
C      1  0.5600420000000  0.5191870000000  0.5509100000000 1.0
C      1  0.4051980000000  0.5214320000000  0.4704600000000 1.0
C      1  0.5186110000000  0.4751880000000  0.4845680000000 1.0
C      1  0.5812170000000  0.4744110000000  0.5071100000000 1.0
C      1  0.4857050000000  0.5479660000000  0.4945710000000 1.0
C      1  0.4914810000000  0.4859140000000  0.5162970000000 1.0
C      1  0.5333060000000  0.4493060000000  0.5566590000000 1.0
C      1  0.5402760000000  0.4516220000000  0.5272380000000 1.0
C      1  0.5194170000000  0.5663460000000  0.5056360000000 1.0
C      1  0.5313400000000  0.5415070000000  0.5108210000000 1.0
C      1  0.4812550000000  0.5357090000000  0.4298110000000 1.0
C      1  0.4184220000000  0.4920000000000  0.4767160000000 1.0
C      1  0.5399560000000  0.5608830000000  0.5656240000000 1.0
C      1  0.5270610000000  0.5753980000000  0.4773140000000 1.0
C      1  0.4389280000000  0.5156620000000  0.4907580000000 1.0
C      1  0.5054370000000  0.4593510000000  0.5655360000000 1.0
C      1  0.4293550000000  0.4820600000000  0.4486280000000 1.0
C      1  0.4519440000000  0.4218190000000  0.5068690000000 1.0
C      1  0.4671760000000  0.5044420000000  0.5010560000000 1.0
C      1  0.5580460000000  0.4767870000000  0.5264410000000 1.0
C      1  0.4313250000000  0.5372900000000  0.4670560000000 1.0
C      1  0.4933450000000  0.5173990000000  0.4834070000000 1.0
C      1  0.4547360000000  0.4729720000000  0.5090270000000 1.0
C      1  0.5136540000000  0.5382990000000  0.4392580000000 1.0
C      1  0.5033180000000  0.5003600000000  0.4576440000000 1.0
C      1  0.5761060000000  0.4617590000000  0.4520770000000 1.0
C      1  0.5143670000000  0.4904690000000  0.5772170000000 1.0
C      1  0.4468780000000  0.4546310000000  0.4542340000000 1.0
C      1  0.5548910000000  0.5742910000000  0.4890340000000 1.0
C      1  0.4606750000000  0.5413450000000  0.5407310000000 1.0
C      1  0.5863220000000  0.5040600000000  0.4982120000000 1.0
C      1  0.4833010000000  0.4407850000000  0.4717770000000 1.0
C      1  0.5411480000000  0.4760160000000  0.5708380000000 1.0
C      1  0.4834940000000  0.4552710000000  0.5140950000000 1.0
C      1  0.4441070000000  0.5012290000000  0.4323760000000 1.0
C      1  0.4531820000000  0.5602870000000  0.4587960000000 1.0
C      1  0.4496550000000  0.5326080000000  0.4391150000000 1.0
C      1  0.4525330000000  0.4369920000000  0.4827590000000 1.0
C      1  0.4649090000000  0.5163900000000  0.5712980000000 1.0
C      1  0.4508540000000  0.5578270000000  0.5160550000000 1.0
C      1  0.4693410000000  0.4885030000000  0.4257420000000 1.0
C      1  0.5432180000000  0.5273580000000  0.4857800000000 1.0
C      1  0.4181960000000  0.4544680000000  0.5385020000000 1.0
C      1  0.5342480000000  0.4304420000000  0.4676840000000 1.0
C      1  0.4905130000000  0.5070900000000  0.4300390000000 1.0
C      1  0.5205940000000  0.5047020000000  0.4933700000000 1.0
C      1  0.5424780000000  0.5043460000000  0.5184740000000 1.0
C      1  0.4813620000000  0.4483310000000  0.5533860000000 1.0
C      1  0.5740750000000  0.4913500000000  0.4690120000000 1.0
C      1  0.4931490000000  0.5631440000000  0.5478890000000 1.0
C      1  0.5137940000000  0.5199460000000  0.5708720000000 1.0
C      1  0.4907050000000  0.4197430000000  0.4978370000000 1.0
C      1  0.5689520000000  0.5541430000000  0.5002680000000 1.0
C      1  0.5084610000000  0.5657880000000  0.4576390000000 1.0
C      1  0.5454490000000  0.4736860000000  0.4740290000000 1.0
C      1  0.4771330000000  0.4269220000000  0.5282260000000 1.0
C      1  0.5145730000000  0.4547020000000  0.5070960000000 1.0
C      1  0.5468000000000  0.4452700000000  0.4461780000000 1.0
C      1  0.4938560000000  0.5676570000000  0.5211610000000 1.0
C      1  0.4360260000000  0.4661530000000  0.4844830000000 1.0
C      1  0.4774090000000  0.4925810000000  0.5615950000000 1.0
C      1  0.5482450000000  0.4792690000000  0.4409670000000 1.0
C      1  0.5588690000000  0.4911190000000  0.5540930000000 1.0
C      1  0.4974060000000  0.4976620000000  0.5420100000000 1.0
C      1  0.4487420000000  0.5630410000000  0.4921790000000 1.0
C      1  0.5763110000000  0.5294280000000  0.4798790000000 1.0
C      1  0.4622890000000  0.4691380000000  0.5553050000000 1.0
C      1  0.5715940000000  0.4550130000000  0.4853050000000 1.0
C      1  0.5616650000000  0.5160390000000  0.4522060000000 1.0
C      1  0.4878560000000  0.5369690000000  0.5647960000000 1.0
C      1  0.4824500000000  0.5284140000000  0.5215020000000 1.0
C      1  0.4401380000000  0.5216670000000  0.5554250000000 1.0
C      1  0.5409780000000  0.5426720000000  0.4567740000000 1.0
C      1  0.4180450000000  0.5133400000000  0.5149030000000 1.0
C      1  0.5085070000000  0.4194190000000  0.4703240000000 1.0
C      1  0.4383770000000  0.4740770000000  0.5364620000000 1.0
C      1  0.5438080000000  0.4401620000000  0.4956200000000 1.0
C      1  0.4820960000000  0.5638240000000  0.4693910000000 1.0
C      1  0.4959570000000  0.4689030000000  0.4631770000000 1.0
C      1  0.5691340000000  0.5255620000000  0.5187480000000 1.0
END
