TITL C-2778434-4341-1329 0.0033597051242285 125000 -406.240574255787 0 0 69 (C1) n - 1
REM
REM in /home/nfs/bkarasulu/CARBON/AIRSS/Generating-Clusters/REBO/Only-C1/SD-CG/HFTN-CG
REM
REM
REM
REM
REM
REM ./C.cell (11c1c37f851c82e70ff6c80c92926a4b)
REM
REM compiler GCC version 9.2.1 20190827 (Red Hat 9.2.1-1)
REM options -cpp -mtune=generic -march=x86-64 -g -O0 -fpre-include=/usr/include/finclude/math-vector-fortran.h
REM seed 1840847517 -446574909 96905559 2131365339 481785323 -281836908 749044167 -419615891 712309504 -2045671437 -1138087673 -1601114093 1180630822 -1928891282 -2144326562 -535600930 1673614426 553604882 1124985738 298209997 1402557307 -1238474110 873828968 1210396974 88192584 -1670553547 1868623016 1845365388 1820053183 2132171751 181084635 -2018691664 -483265161
REM
CELL 1.54180   50.00000   50.00000   50.00000   90.00000   90.00000   90.00000
LATT -1
SFAC C  
C      1  0.5022740000000  0.4345000000000  0.4794990000000 1.0
C      1  0.4804970000000  0.5284140000000  0.5586260000000 1.0
C      1  0.5331230000000  0.4789240000000  0.5836550000000 1.0
C      1  0.4538090000000  0.5643010000000  0.5138660000000 1.0
C      1  0.4680030000000  0.5434190000000  0.4728350000000 1.0
C      1  0.4244500000000  0.4950420000000  0.5218250000000 1.0
C      1  0.5063580000000  0.4818710000000  0.5697340000000 1.0
C      1  0.5320260000000  0.4609960000000  0.5295380000000 1.0
C      1  0.4940360000000  0.5457560000000  0.5385150000000 1.0
C      1  0.5226390000000  0.5183110000000  0.5249060000000 1.0
C      1  0.4721470000000  0.5453830000000  0.4327180000000 1.0
C      1  0.5471490000000  0.5410580000000  0.4669820000000 1.0
C      1  0.4990460000000  0.5770620000000  0.4973740000000 1.0
C      1  0.5079560000000  0.4996050000000  0.4240630000000 1.0
C      1  0.5572240000000  0.5170620000000  0.5511010000000 1.0
C      1  0.4717210000000  0.4348400000000  0.4803340000000 1.0
C      1  0.4644870000000  0.4399750000000  0.5095170000000 1.0
C      1  0.5229310000000  0.5749980000000  0.5126760000000 1.0
C      1  0.5325890000000  0.4639310000000  0.4506770000000 1.0
C      1  0.5468390000000  0.5119900000000  0.4535470000000 1.0
C      1  0.4895840000000  0.5363000000000  0.5119430000000 1.0
C      1  0.4542210000000  0.5229220000000  0.4492030000000 1.0
C      1  0.4467720000000  0.5226600000000  0.4882950000000 1.0
C      1  0.5206210000000  0.4640470000000  0.4914390000000 1.0
C      1  0.5507690000000  0.5599970000000  0.5148410000000 1.0
C      1  0.4644670000000  0.4708060000000  0.5000590000000 1.0
C      1  0.4588230000000  0.4375740000000  0.5416560000000 1.0
C      1  0.5112590000000  0.4867530000000  0.5228760000000 1.0
C      1  0.5201420000000  0.5586920000000  0.5399690000000 1.0
C      1  0.5369800000000  0.4906900000000  0.5001720000000 1.0
C      1  0.5583610000000  0.4964510000000  0.4789430000000 1.0
C      1  0.4729280000000  0.5668330000000  0.4923000000000 1.0
C      1  0.4806300000000  0.4871810000000  0.5218370000000 1.0
C      1  0.5276560000000  0.4431080000000  0.5552180000000 1.0
C      1  0.5056350000000  0.4853560000000  0.4762570000000 1.0
C      1  0.5655100000000  0.4602980000000  0.4944490000000 1.0
C      1  0.5529880000000  0.5185600000000  0.5115090000000 1.0
C      1  0.5076580000000  0.5119470000000  0.5548140000000 1.0
C      1  0.5589900000000  0.5422510000000  0.4927330000000 1.0
C      1  0.4886750000000  0.4282960000000  0.5304990000000 1.0
C      1  0.5377750000000  0.5060200000000  0.5686820000000 1.0
C      1  0.5124520000000  0.4394530000000  0.5114930000000 1.0
C      1  0.5085850000000  0.4264780000000  0.5547320000000 1.0
C      1  0.5014070000000  0.5281010000000  0.4293460000000 1.0
C      1  0.4399540000000  0.4721120000000  0.4685750000000 1.0
C      1  0.5187920000000  0.5536770000000  0.4666070000000 1.0
C      1  0.5496230000000  0.5439590000000  0.5422160000000 1.0
C      1  0.5018000000000  0.5613910000000  0.4380360000000 1.0
C      1  0.4776810000000  0.4838920000000  0.4746840000000 1.0
C      1  0.5183920000000  0.5118500000000  0.4713330000000 1.0
C      1  0.4570380000000  0.5123070000000  0.5542820000000 1.0
C      1  0.4598290000000  0.4516040000000  0.4595570000000 1.0
C      1  0.4557350000000  0.4600910000000  0.5562970000000 1.0
C      1  0.4356300000000  0.5184200000000  0.5351260000000 1.0
C      1  0.4658500000000  0.4851470000000  0.5490060000000 1.0
C      1  0.5677300000000  0.4954610000000  0.5301080000000 1.0
C      1  0.4336760000000  0.5025510000000  0.4673940000000 1.0
C      1  0.4842210000000  0.4838690000000  0.4267130000000 1.0
C      1  0.5535620000000  0.4579500000000  0.4696410000000 1.0
C      1  0.4715490000000  0.5144380000000  0.5076550000000 1.0
C      1  0.4409380000000  0.5388130000000  0.5157120000000 1.0
C      1  0.5612070000000  0.4681720000000  0.5221360000000 1.0
C      1  0.4678620000000  0.4936340000000  0.4496830000000 1.0
C      1  0.4336000000000  0.4796360000000  0.5001010000000 1.0
C      1  0.4942800000000  0.5315480000000  0.4626300000000 1.0
C      1  0.5166190000000  0.5347650000000  0.4954770000000 1.0
C      1  0.5309830000000  0.4898400000000  0.4375770000000 1.0
C      1  0.5082680000000  0.4490560000000  0.4530190000000 1.0
C      1  0.4829890000000  0.4576040000000  0.4411810000000 1.0
END
