TITL C-2778428-5639-1410 -0.0207293586777744 125000 -452.614517645816 0 0 79 (C1) n - 1
REM
REM in /home/nfs/bkarasulu/CARBON/AIRSS/Generating-Clusters/REBO/Only-C1/SD-CG/HFTN-CG
REM
REM
REM
REM
REM
REM ./C.cell (11c1c37f851c82e70ff6c80c92926a4b)
REM
REM compiler GCC version 9.2.1 20190827 (Red Hat 9.2.1-1)
REM options -cpp -mtune=generic -march=x86-64 -g -O0 -fpre-include=/usr/include/finclude/math-vector-fortran.h
REM seed 624256346 861271965 -1659060847 623162249 -646447441 131717555 -286601933 171621373 428444595 -698218118 843005597 -1133728964 442999078 1219047875 868632743 1427630762 -777605209 1389291817 201717776 1311972232 1654668765 1004809825 -1454015437 -137221058 1914852 2142181830 -427852041 -1640874707 1437906125 -402553686 -1995028688 1930421720 533859766
REM
CELL 1.54180   50.00000   50.00000   50.00000   90.00000   90.00000   90.00000
LATT -1
SFAC C  
C      1  0.5380280000000  0.5572900000000  0.5511870000000 1.0
C      1  0.4916900000000  0.4695630000000  0.4638610000000 1.0
C      1  0.5507910000000  0.5386200000000  0.5322330000000 1.0
C      1  0.4741270000000  0.5406130000000  0.5094500000000 1.0
C      1  0.5066350000000  0.4623870000000  0.5037210000000 1.0
C      1  0.5194450000000  0.4895090000000  0.4943080000000 1.0
C      1  0.5528840000000  0.5013140000000  0.4432200000000 1.0
C      1  0.5500190000000  0.5100920000000  0.5388780000000 1.0
C      1  0.5489580000000  0.5299140000000  0.4583530000000 1.0
C      1  0.4606910000000  0.5331180000000  0.4276130000000 1.0
C      1  0.5550360000000  0.4787620000000  0.4595500000000 1.0
C      1  0.5022370000000  0.4407650000000  0.4589780000000 1.0
C      1  0.4264520000000  0.5422480000000  0.5141870000000 1.0
C      1  0.5673760000000  0.4561320000000  0.5331230000000 1.0
C      1  0.4594810000000  0.5417150000000  0.5403520000000 1.0
C      1  0.5291210000000  0.4381990000000  0.4535670000000 1.0
C      1  0.5532420000000  0.4869220000000  0.4914000000000 1.0
C      1  0.5476690000000  0.4351240000000  0.4908800000000 1.0
C      1  0.5758250000000  0.4390460000000  0.4406250000000 1.0
C      1  0.4661030000000  0.4333860000000  0.5225030000000 1.0
C      1  0.5085540000000  0.5477920000000  0.5571740000000 1.0
C      1  0.5606340000000  0.4246880000000  0.5272510000000 1.0
C      1  0.4900170000000  0.4833140000000  0.5600270000000 1.0
C      1  0.5177680000000  0.4377930000000  0.4957120000000 1.0
C      1  0.4409250000000  0.4282630000000  0.5321680000000 1.0
C      1  0.5488930000000  0.5526920000000  0.5054980000000 1.0
C      1  0.4329390000000  0.5635270000000  0.4920410000000 1.0
C      1  0.4938750000000  0.4218490000000  0.5341150000000 1.0
C      1  0.5384220000000  0.5371020000000  0.4835030000000 1.0
C      1  0.5328900000000  0.5852890000000  0.5380010000000 1.0
C      1  0.5496750000000  0.4679810000000  0.5570080000000 1.0
C      1  0.4402930000000  0.4975210000000  0.5003190000000 1.0
C      1  0.5710700000000  0.5144370000000  0.4878520000000 1.0
C      1  0.4713230000000  0.4726940000000  0.4886840000000 1.0
C      1  0.4760190000000  0.4626600000000  0.5174910000000 1.0
C      1  0.4381920000000  0.5225850000000  0.5495760000000 1.0
C      1  0.4539490000000  0.4564960000000  0.4652840000000 1.0
C      1  0.4696560000000  0.4792570000000  0.5416990000000 1.0
C      1  0.5341720000000  0.5240630000000  0.4301810000000 1.0
C      1  0.4450430000000  0.4912900000000  0.5456050000000 1.0
C      1  0.5081830000000  0.4382190000000  0.5510040000000 1.0
C      1  0.5107370000000  0.5317920000000  0.4882440000000 1.0
C      1  0.4853390000000  0.5185020000000  0.4246220000000 1.0
C      1  0.5090990000000  0.4083480000000  0.5089710000000 1.0
C      1  0.5179890000000  0.5106490000000  0.5881300000000 1.0
C      1  0.5172920000000  0.4671630000000  0.5569360000000 1.0
C      1  0.4837830000000  0.5621060000000  0.4566300000000 1.0
C      1  0.5610930000000  0.4882820000000  0.5244960000000 1.0
C      1  0.4196380000000  0.4932120000000  0.4555160000000 1.0
C      1  0.5037820000000  0.5607180000000  0.4365100000000 1.0
C      1  0.4466190000000  0.5049390000000  0.4519690000000 1.0
C      1  0.4623260000000  0.4705500000000  0.4370870000000 1.0
C      1  0.5062840000000  0.5183010000000  0.5400700000000 1.0
C      1  0.4580890000000  0.5532110000000  0.4480350000000 1.0
C      1  0.5261360000000  0.5001080000000  0.5568860000000 1.0
C      1  0.4661590000000  0.5009120000000  0.4702500000000 1.0
C      1  0.4818610000000  0.5724950000000  0.5201140000000 1.0
C      1  0.5020430000000  0.5114380000000  0.5108890000000 1.0
C      1  0.4369510000000  0.5604150000000  0.4650490000000 1.0
C      1  0.5848690000000  0.5357280000000  0.4851070000000 1.0
C      1  0.5540290000000  0.4512860000000  0.4514070000000 1.0
C      1  0.4797350000000  0.4196420000000  0.4969790000000 1.0
C      1  0.4812250000000  0.5318610000000  0.5588420000000 1.0
C      1  0.4707000000000  0.5104380000000  0.5013860000000 1.0
C      1  0.5632050000000  0.4562970000000  0.5005900000000 1.0
C      1  0.5087970000000  0.5350860000000  0.4247170000000 1.0
C      1  0.4912960000000  0.5066880000000  0.5752480000000 1.0
C      1  0.4765840000000  0.4336130000000  0.4724890000000 1.0
C      1  0.4917400000000  0.5564990000000  0.4850040000000 1.0
C      1  0.4214750000000  0.5144540000000  0.5142780000000 1.0
C      1  0.4481890000000  0.5679110000000  0.5217940000000 1.0
C      1  0.4885670000000  0.4921400000000  0.4384420000000 1.0
C      1  0.5071160000000  0.5807370000000  0.4987440000000 1.0
C      1  0.5344380000000  0.5791940000000  0.5087070000000 1.0
C      1  0.5420450000000  0.4098960000000  0.5101180000000 1.0
C      1  0.4134170000000  0.5020050000000  0.5420570000000 1.0
C      1  0.5124290000000  0.4944070000000  0.4627550000000 1.0
C      1  0.5034840000000  0.5757170000000  0.5435110000000 1.0
C      1  0.4331360000000  0.4790310000000  0.4792430000000 1.0
END
