TITL C-2778422-5617-400 1.37478726438522e-05 125000 -660.653640543536 0 0 114 (C1) n - 1
REM
REM in /home/nfs/bkarasulu/CARBON/AIRSS/Generating-Clusters/REBO/Only-C1/SD-CG/HFTN-CG
REM
REM
REM
REM
REM
REM ./C.cell (11c1c37f851c82e70ff6c80c92926a4b)
REM
REM compiler GCC version 9.2.1 20190827 (Red Hat 9.2.1-1)
REM options -cpp -mtune=generic -march=x86-64 -g -O0 -fpre-include=/usr/include/finclude/math-vector-fortran.h
REM seed -2139660364 1320386233 -564269412 -748853430 -649782048 641337562 2123855001 596991146 48136501 1685410686 2024046176 947534585 1465237319 1227848413 -441028560 101320505 -103102044 -427327330 1031658910 -1401866003 1035819830 348582729 -1471557276 281134447 1466175920 -603653015 722636921 855018251 867446552 2017914906 981562237 796842346 1772156992
REM
CELL 1.54180   50.00000   50.00000   50.00000   90.00000   90.00000   90.00000
LATT -1
SFAC C  
C      1  0.4734170000000  0.5663190000000  0.6004270000000 1.0
C      1  0.4508950000000  0.4809160000000  0.4522010000000 1.0
C      1  0.4091830000000  0.4821970000000  0.4772050000000 1.0
C      1  0.4955960000000  0.4237320000000  0.5681470000000 1.0
C      1  0.4613620000000  0.4528240000000  0.5211040000000 1.0
C      1  0.5291410000000  0.4755020000000  0.4040620000000 1.0
C      1  0.4732050000000  0.4669240000000  0.4223320000000 1.0
C      1  0.4697370000000  0.4705920000000  0.4980030000000 1.0
C      1  0.5078280000000  0.5652280000000  0.5241330000000 1.0
C      1  0.5212330000000  0.5304480000000  0.4077760000000 1.0
C      1  0.5857530000000  0.4849200000000  0.5125470000000 1.0
C      1  0.5379360000000  0.4780910000000  0.4932080000000 1.0
C      1  0.5391640000000  0.4050400000000  0.5140260000000 1.0
C      1  0.4930600000000  0.5825300000000  0.4770310000000 1.0
C      1  0.5348880000000  0.4160750000000  0.4821260000000 1.0
C      1  0.5634300000000  0.4619530000000  0.5590490000000 1.0
C      1  0.4195450000000  0.5490180000000  0.5377060000000 1.0
C      1  0.5068640000000  0.4873410000000  0.4824560000000 1.0
C      1  0.4643830000000  0.5098940000000  0.5275880000000 1.0
C      1  0.4648970000000  0.5354670000000  0.4674220000000 1.0
C      1  0.4785710000000  0.4632140000000  0.5433800000000 1.0
C      1  0.4917920000000  0.4177950000000  0.5103020000000 1.0
C      1  0.4843580000000  0.5000900000000  0.5035000000000 1.0
C      1  0.4539890000000  0.5594640000000  0.5401270000000 1.0
C      1  0.5119690000000  0.4415410000000  0.4853360000000 1.0
C      1  0.5212260000000  0.4603720000000  0.5793860000000 1.0
C      1  0.5209100000000  0.4348610000000  0.5642180000000 1.0
C      1  0.5109220000000  0.3996320000000  0.4996760000000 1.0
C      1  0.5650850000000  0.5572230000000  0.4783130000000 1.0
C      1  0.5012870000000  0.5302740000000  0.5809920000000 1.0
C      1  0.4302340000000  0.4530720000000  0.5243780000000 1.0
C      1  0.5311250000000  0.5060150000000  0.5073460000000 1.0
C      1  0.5418060000000  0.5857120000000  0.5191750000000 1.0
C      1  0.4645780000000  0.4962410000000  0.5895830000000 1.0
C      1  0.4692520000000  0.4923960000000  0.5503900000000 1.0
C      1  0.5271730000000  0.5444090000000  0.5699350000000 1.0
C      1  0.4927050000000  0.4401080000000  0.4230670000000 1.0
C      1  0.5121790000000  0.4423050000000  0.5193020000000 1.0
C      1  0.5643190000000  0.4632760000000  0.5071280000000 1.0
C      1  0.5161340000000  0.5949060000000  0.4987330000000 1.0
C      1  0.4773210000000  0.5417210000000  0.5900040000000 1.0
C      1  0.4913440000000  0.4756520000000  0.5817480000000 1.0
C      1  0.4874340000000  0.5846170000000  0.5117400000000 1.0
C      1  0.4856220000000  0.5498530000000  0.4363930000000 1.0
C      1  0.5088290000000  0.4694710000000  0.5348090000000 1.0
C      1  0.5076130000000  0.5012850000000  0.3966990000000 1.0
C      1  0.5636880000000  0.4531920000000  0.4755930000000 1.0
C      1  0.4529670000000  0.4719700000000  0.5724520000000 1.0
C      1  0.4404590000000  0.5210370000000  0.4812800000000 1.0
C      1  0.5409960000000  0.5791260000000  0.4855760000000 1.0
C      1  0.4988580000000  0.5191020000000  0.4312990000000 1.0
C      1  0.4252640000000  0.5107740000000  0.5354630000000 1.0
C      1  0.5389970000000  0.4827090000000  0.4593810000000 1.0
C      1  0.5514190000000  0.5255730000000  0.5720300000000 1.0
C      1  0.5201910000000  0.5437440000000  0.5033340000000 1.0
C      1  0.5369930000000  0.4283550000000  0.5349750000000 1.0
C      1  0.4655170000000  0.4239350000000  0.5112180000000 1.0
C      1  0.5680610000000  0.5652280000000  0.5109620000000 1.0
C      1  0.4194170000000  0.4779800000000  0.5312420000000 1.0
C      1  0.4405900000000  0.4157780000000  0.4992720000000 1.0
C      1  0.4476820000000  0.4888320000000  0.4849160000000 1.0
C      1  0.5400050000000  0.4776530000000  0.5434490000000 1.0
C      1  0.5321690000000  0.4516330000000  0.4640610000000 1.0
C      1  0.4755570000000  0.4468460000000  0.5712320000000 1.0
C      1  0.4704170000000  0.4462410000000  0.4483720000000 1.0
C      1  0.4900160000000  0.5326060000000  0.5074050000000 1.0
C      1  0.4568370000000  0.5229380000000  0.5821070000000 1.0
C      1  0.5339770000000  0.5519890000000  0.4667160000000 1.0
C      1  0.5701610000000  0.4862660000000  0.4710340000000 1.0
C      1  0.5466820000000  0.4737780000000  0.5824810000000 1.0
C      1  0.4759290000000  0.5386720000000  0.5372170000000 1.0
C      1  0.4804180000000  0.4846200000000  0.4623320000000 1.0
C      1  0.4417680000000  0.5316200000000  0.5567140000000 1.0
C      1  0.4862000000000  0.4537730000000  0.4758690000000 1.0
C      1  0.5574170000000  0.5334170000000  0.4228610000000 1.0
C      1  0.5006230000000  0.4791350000000  0.4217700000000 1.0
C      1  0.4593150000000  0.5284600000000  0.4277650000000 1.0
C      1  0.4408950000000  0.5295960000000  0.5127200000000 1.0
C      1  0.5503660000000  0.5001270000000  0.5303310000000 1.0
C      1  0.4647770000000  0.5729840000000  0.4811760000000 1.0
C      1  0.5241800000000  0.4961400000000  0.4378710000000 1.0
C      1  0.5312200000000  0.5692520000000  0.5472740000000 1.0
C      1  0.5838370000000  0.5384610000000  0.5238580000000 1.0
C      1  0.5448410000000  0.5467640000000  0.5258010000000 1.0
C      1  0.4886820000000  0.5163520000000  0.4622890000000 1.0
C      1  0.4310230000000  0.5109030000000  0.4349150000000 1.0
C      1  0.5615170000000  0.4459970000000  0.5329000000000 1.0
C      1  0.5208740000000  0.4450280000000  0.4168720000000 1.0
C      1  0.4633640000000  0.5485650000000  0.4983460000000 1.0
C      1  0.3961610000000  0.5580600000000  0.5316290000000 1.0
C      1  0.5581410000000  0.4227300000000  0.4611020000000 1.0
C      1  0.4385710000000  0.4513050000000  0.4563580000000 1.0
C      1  0.4206220000000  0.5059070000000  0.4611890000000 1.0
C      1  0.5379560000000  0.4351710000000  0.4368930000000 1.0
C      1  0.4543740000000  0.5574410000000  0.4445610000000 1.0
C      1  0.5505490000000  0.5020140000000  0.5860240000000 1.0
C      1  0.4210190000000  0.4378680000000  0.5001260000000 1.0
C      1  0.4173700000000  0.4538520000000  0.4754540000000 1.0
C      1  0.5824050000000  0.5411300000000  0.4227020000000 1.0
C      1  0.4206240000000  0.4960340000000  0.5048060000000 1.0
C      1  0.5440650000000  0.5051160000000  0.4123720000000 1.0
C      1  0.4762270000000  0.5075550000000  0.4083790000000 1.0
C      1  0.4962300000000  0.5045900000000  0.5653850000000 1.0
C      1  0.5807790000000  0.5087590000000  0.4798670000000 1.0
C      1  0.5064020000000  0.5656550000000  0.4537400000000 1.0
C      1  0.5929400000000  0.5073660000000  0.5189110000000 1.0
C      1  0.5808200000000  0.5332120000000  0.4909550000000 1.0
C      1  0.5609330000000  0.5247430000000  0.5430700000000 1.0
C      1  0.5302200000000  0.5498730000000  0.4342580000000 1.0
C      1  0.4624540000000  0.5830090000000  0.5253230000000 1.0
C      1  0.4514390000000  0.4899540000000  0.4205060000000 1.0
C      1  0.5109720000000  0.5036210000000  0.5346390000000 1.0
C      1  0.5166780000000  0.5207300000000  0.4802970000000 1.0
C      1  0.5085920000000  0.5366410000000  0.5425170000000 1.0
END
