TITL C-2778423-5760-133 -9.56191867197269e-08 125000 -80.1621467974015 0 0 15 (Cs) n - 1
REM
REM in /home/nfs/bkarasulu/CARBON/AIRSS/Generating-Clusters/REBO/Only-C1/SD-CG/HFTN-CG
REM
REM
REM
REM
REM
REM ./C.cell (11c1c37f851c82e70ff6c80c92926a4b)
REM
REM compiler GCC version 9.2.1 20190827 (Red Hat 9.2.1-1)
REM options -cpp -mtune=generic -march=x86-64 -g -O0 -fpre-include=/usr/include/finclude/math-vector-fortran.h
REM seed -1351860543 1903157430 342215077 1110327539 139334158 -1651513149 2084351417 72191696 -763149736 335850373 -1559391299 -742386721 -540134322 -1669034862 -985817948 1637838278 726462884 -1696793821 -487333216 742120028 -1139615506 1783169969 -1061801531 2106297804 -327692032 55250293 -1046650440 253728157 -773590298 -382455108 -306701600 1264326050 1763158848
REM
CELL 1.54180   50.00000   50.00000   50.00000   90.00000   90.00000   90.00000
LATT -1
SFAC C  
C      1  0.4906250000000  0.4684100000000  0.4780530000000 1.0
C      1  0.5145310000000  0.4693380000000  0.4918550000000 1.0
C      1  0.4611130000000  0.5133760000000  0.4854310000000 1.0
C      1  0.5418610000000  0.5069030000000  0.5269630000000 1.0
C      1  0.4730160000000  0.4901260000000  0.4797470000000 1.0
C      1  0.4580930000000  0.5380190000000  0.4967970000000 1.0
C      1  0.5352250000000  0.4849050000000  0.5116200000000 1.0
C      1  0.5426580000000  0.4554700000000  0.5001730000000 1.0
C      1  0.5029700000000  0.5447840000000  0.5253670000000 1.0
C      1  0.4505570000000  0.5674830000000  0.5082020000000 1.0
C      1  0.4838910000000  0.4461730000000  0.4625290000000 1.0
C      1  0.4775750000000  0.4253170000000  0.4479700000000 1.0
C      1  0.5238040000000  0.5282870000000  0.5282320000000 1.0
C      1  0.5654120000000  0.5079680000000  0.5406400000000 1.0
C      1  0.4786700000000  0.5534410000000  0.5164210000000 1.0
END
