TITL C-2778423-5760-166 3.05295031184782e-06 125000 -728.292804302256 0 0 126 (C1) n - 1
REM
REM in /home/nfs/bkarasulu/CARBON/AIRSS/Generating-Clusters/REBO/Only-C1/SD-CG/HFTN-CG
REM
REM
REM
REM
REM
REM ./C.cell (11c1c37f851c82e70ff6c80c92926a4b)
REM
REM compiler GCC version 9.2.1 20190827 (Red Hat 9.2.1-1)
REM options -cpp -mtune=generic -march=x86-64 -g -O0 -fpre-include=/usr/include/finclude/math-vector-fortran.h
REM seed 1060655456 -637189590 -1430204360 -1936267196 -222223592 189036298 -1226138667 -1433651465 1498506526 -1736587429 1055916040 -973498938 -1065032955 -216128492 -1817486851 -1079755295 -752645227 519677395 -1466968029 -1826308720 -1891927398 981178623 -610464200 -581660328 1283866848 -1641126366 -514955844 1375991693 562819094 -1897460787 -760495080 -993138635 -91987626
REM
CELL 1.54180   50.00000   50.00000   50.00000   90.00000   90.00000   90.00000
LATT -1
SFAC C  
C      1  0.5646190000000  0.4833800000000  0.5397510000000 1.0
C      1  0.4375660000000  0.4995910000000  0.4313860000000 1.0
C      1  0.5993980000000  0.5413220000000  0.4836480000000 1.0
C      1  0.4777930000000  0.4440950000000  0.4627190000000 1.0
C      1  0.4791450000000  0.5105170000000  0.5251360000000 1.0
C      1  0.4368420000000  0.4585500000000  0.4209410000000 1.0
C      1  0.5572880000000  0.4939810000000  0.4243640000000 1.0
C      1  0.4465020000000  0.5279670000000  0.4171800000000 1.0
C      1  0.5341080000000  0.5728440000000  0.4610850000000 1.0
C      1  0.5826950000000  0.5830240000000  0.5108480000000 1.0
C      1  0.4650700000000  0.5156010000000  0.4433910000000 1.0
C      1  0.4101960000000  0.4847720000000  0.5131380000000 1.0
C      1  0.4408100000000  0.4942150000000  0.5702870000000 1.0
C      1  0.5783710000000  0.4331320000000  0.4691550000000 1.0
C      1  0.4195450000000  0.5060140000000  0.4597810000000 1.0
C      1  0.5033000000000  0.5181720000000  0.5068850000000 1.0
C      1  0.5620500000000  0.5230340000000  0.5124910000000 1.0
C      1  0.4926440000000  0.5582870000000  0.4508830000000 1.0
C      1  0.5060800000000  0.5058100000000  0.5659840000000 1.0
C      1  0.5185400000000  0.4371020000000  0.5121030000000 1.0
C      1  0.4584340000000  0.5300810000000  0.5229490000000 1.0
C      1  0.5622550000000  0.5453730000000  0.4305010000000 1.0
C      1  0.5148170000000  0.4900190000000  0.5392560000000 1.0
C      1  0.5152620000000  0.5375840000000  0.4622860000000 1.0
C      1  0.5368040000000  0.4579100000000  0.4736150000000 1.0
C      1  0.4724420000000  0.4748180000000  0.4506020000000 1.0
C      1  0.5489480000000  0.4974070000000  0.4769200000000 1.0
C      1  0.4598800000000  0.4673150000000  0.5796880000000 1.0
C      1  0.5716580000000  0.5390660000000  0.4844400000000 1.0
C      1  0.5902960000000  0.4992110000000  0.5347160000000 1.0
C      1  0.4833340000000  0.5193650000000  0.5638740000000 1.0
C      1  0.5701070000000  0.4472740000000  0.4458070000000 1.0
C      1  0.5102930000000  0.4345810000000  0.5419880000000 1.0
C      1  0.5116040000000  0.5372740000000  0.4197790000000 1.0
C      1  0.4595620000000  0.4965420000000  0.5971880000000 1.0
C      1  0.4827350000000  0.5934740000000  0.4896090000000 1.0
C      1  0.4296020000000  0.4383070000000  0.5046720000000 1.0
C      1  0.5398020000000  0.4648130000000  0.5648260000000 1.0
C      1  0.4799360000000  0.4792540000000  0.4213630000000 1.0
C      1  0.5582830000000  0.5545790000000  0.4598030000000 1.0
C      1  0.4307040000000  0.5355430000000  0.4465710000000 1.0
C      1  0.4208900000000  0.5064610000000  0.4910460000000 1.0
C      1  0.4795050000000  0.5458260000000  0.5979820000000 1.0
C      1  0.5644750000000  0.4860090000000  0.4983890000000 1.0
C      1  0.4462280000000  0.4667870000000  0.4708410000000 1.0
C      1  0.5316120000000  0.5594710000000  0.4307030000000 1.0
C      1  0.4592640000000  0.5582010000000  0.5779590000000 1.0
C      1  0.5153440000000  0.4505330000000  0.5647050000000 1.0
C      1  0.4797550000000  0.5493090000000  0.4226300000000 1.0
C      1  0.4994190000000  0.4044750000000  0.5491000000000 1.0
C      1  0.5082580000000  0.4586920000000  0.4573110000000 1.0
C      1  0.4906620000000  0.5888620000000  0.5419000000000 1.0
C      1  0.5217660000000  0.4561620000000  0.4198720000000 1.0
C      1  0.5674420000000  0.5623850000000  0.5166230000000 1.0
C      1  0.5746950000000  0.5406780000000  0.5387860000000 1.0
C      1  0.4549430000000  0.4381440000000  0.4831700000000 1.0
C      1  0.4712710000000  0.4235610000000  0.5523320000000 1.0
C      1  0.4455940000000  0.5718480000000  0.5562190000000 1.0
C      1  0.5511210000000  0.5134490000000  0.5781110000000 1.0
C      1  0.4265360000000  0.4925450000000  0.5405560000000 1.0
C      1  0.5415550000000  0.5023300000000  0.5308590000000 1.0
C      1  0.4729910000000  0.4596770000000  0.5265640000000 1.0
C      1  0.5085090000000  0.4809360000000  0.4154010000000 1.0
C      1  0.5078670000000  0.4925160000000  0.4536560000000 1.0
C      1  0.5386820000000  0.5284880000000  0.4828070000000 1.0
C      1  0.5034880000000  0.4322970000000  0.4352660000000 1.0
C      1  0.4573040000000  0.5833800000000  0.4988650000000 1.0
C      1  0.5032770000000  0.4657830000000  0.5182030000000 1.0
C      1  0.4927860000000  0.4658690000000  0.5821170000000 1.0
C      1  0.4779180000000  0.5208330000000  0.4061450000000 1.0
C      1  0.4275810000000  0.5509500000000  0.5360430000000 1.0
C      1  0.4639320000000  0.5248810000000  0.4723710000000 1.0
C      1  0.4805990000000  0.5499700000000  0.5148940000000 1.0
C      1  0.5879050000000  0.5048230000000  0.4720190000000 1.0
C      1  0.5385430000000  0.4878430000000  0.5809000000000 1.0
C      1  0.4474800000000  0.5762590000000  0.5241310000000 1.0
C      1  0.5433700000000  0.5330230000000  0.5444410000000 1.0
C      1  0.4949450000000  0.4007760000000  0.4962340000000 1.0
C      1  0.4617720000000  0.4338700000000  0.5149650000000 1.0
C      1  0.5241170000000  0.4223750000000  0.4606630000000 1.0
C      1  0.4361870000000  0.4537680000000  0.5407900000000 1.0
C      1  0.4486360000000  0.4781200000000  0.5209320000000 1.0
C      1  0.5752410000000  0.5155530000000  0.5606280000000 1.0
C      1  0.4843800000000  0.5122800000000  0.6032090000000 1.0
C      1  0.4955580000000  0.5624870000000  0.5360170000000 1.0
C      1  0.4581090000000  0.5560760000000  0.4480840000000 1.0
C      1  0.5502910000000  0.4207420000000  0.5454940000000 1.0
C      1  0.4536820000000  0.4442270000000  0.5600800000000 1.0
C      1  0.5082920000000  0.5936540000000  0.5016820000000 1.0
C      1  0.4469450000000  0.4317950000000  0.4247200000000 1.0
C      1  0.5227090000000  0.5357890000000  0.5197550000000 1.0
C      1  0.5534140000000  0.4594080000000  0.5098920000000 1.0
C      1  0.4586200000000  0.5299300000000  0.5679450000000 1.0
C      1  0.5568550000000  0.4515850000000  0.5407740000000 1.0
C      1  0.4560790000000  0.4745390000000  0.4063020000000 1.0
C      1  0.4325270000000  0.5225570000000  0.5524630000000 1.0
C      1  0.5281690000000  0.5784950000000  0.4885460000000 1.0
C      1  0.4380800000000  0.5403860000000  0.4788340000000 1.0
C      1  0.5541580000000  0.4767750000000  0.4510980000000 1.0
C      1  0.4896240000000  0.5375490000000  0.4846890000000 1.0
C      1  0.5585740000000  0.4367350000000  0.4880860000000 1.0
C      1  0.4714900000000  0.4267060000000  0.4355510000000 1.0
C      1  0.4297060000000  0.5327640000000  0.5077430000000 1.0
C      1  0.5723130000000  0.5122740000000  0.4485740000000 1.0
C      1  0.5398560000000  0.5229570000000  0.4436730000000 1.0
C      1  0.5332060000000  0.4029040000000  0.5496810000000 1.0
C      1  0.5292400000000  0.5352480000000  0.5813210000000 1.0
C      1  0.5092430000000  0.4905940000000  0.5949170000000 1.0
C      1  0.5094720000000  0.5348470000000  0.6011590000000 1.0
C      1  0.5919260000000  0.4985470000000  0.5036550000000 1.0
C      1  0.4112870000000  0.4578750000000  0.5073910000000 1.0
C      1  0.5163690000000  0.5477160000000  0.5536880000000 1.0
C      1  0.5250640000000  0.4739050000000  0.4981170000000 1.0
C      1  0.5067200000000  0.4954650000000  0.4864130000000 1.0
C      1  0.4862410000000  0.5877380000000  0.4615610000000 1.0
C      1  0.4747240000000  0.4942350000000  0.4759590000000 1.0
C      1  0.4942670000000  0.5131610000000  0.4364510000000 1.0
C      1  0.5408580000000  0.5557340000000  0.5035300000000 1.0
C      1  0.4789400000000  0.4085880000000  0.5222290000000 1.0
C      1  0.5420120000000  0.4403440000000  0.4381150000000 1.0
C      1  0.4867300000000  0.4746310000000  0.5515000000000 1.0
C      1  0.4454430000000  0.5708060000000  0.4761320000000 1.0
C      1  0.5157280000000  0.4198520000000  0.4885320000000 1.0
C      1  0.5276040000000  0.5069440000000  0.4160850000000 1.0
C      1  0.4465170000000  0.4879040000000  0.4938670000000 1.0
C      1  0.4261970000000  0.4743330000000  0.4477480000000 1.0
END
