TITL C-2778428-5639-154 -0.000646778901132959 125000 -470.4131563754 0 0 82 (C1) n - 1
REM
REM in /home/nfs/bkarasulu/CARBON/AIRSS/Generating-Clusters/REBO/Only-C1/SD-CG/HFTN-CG
REM
REM
REM
REM
REM
REM ./C.cell (11c1c37f851c82e70ff6c80c92926a4b)
REM
REM compiler GCC version 9.2.1 20190827 (Red Hat 9.2.1-1)
REM options -cpp -mtune=generic -march=x86-64 -g -O0 -fpre-include=/usr/include/finclude/math-vector-fortran.h
REM seed 1128404640 87410612 1525391615 1710208562 -907963558 15894475 -1094657903 -1142674933 2106155751 351876722 -399018210 722042955 -784870110 -64212650 1313092305 1516861918 -1924826210 662168907 -381993581 -1300295570 2012348698 -2041756180 215178262 -698949947 83408714 -8210794 -1795132305 1748614802 -1767527143 -1060528265 1658130128 -865797504 -1744969382
REM
CELL 1.54180   50.00000   50.00000   50.00000   90.00000   90.00000   90.00000
LATT -1
SFAC C  
C      1  0.4277920000000  0.4713930000000  0.5000090000000 1.0
C      1  0.5328580000000  0.5323890000000  0.4385070000000 1.0
C      1  0.4576850000000  0.4688750000000  0.5132540000000 1.0
C      1  0.5267150000000  0.5771950000000  0.4776310000000 1.0
C      1  0.5479900000000  0.4609050000000  0.5514150000000 1.0
C      1  0.4639850000000  0.5178790000000  0.4917030000000 1.0
C      1  0.4426850000000  0.4787720000000  0.4501290000000 1.0
C      1  0.4291990000000  0.5388530000000  0.5350040000000 1.0
C      1  0.5163500000000  0.4142270000000  0.5013140000000 1.0
C      1  0.4924920000000  0.4993870000000  0.4963770000000 1.0
C      1  0.5292980000000  0.4906570000000  0.5093520000000 1.0
C      1  0.4217440000000  0.5146970000000  0.5122590000000 1.0
C      1  0.4935260000000  0.4419020000000  0.4837960000000 1.0
C      1  0.4798570000000  0.5147110000000  0.4620110000000 1.0
C      1  0.5356670000000  0.5438060000000  0.5185280000000 1.0
C      1  0.5656600000000  0.4449430000000  0.5016670000000 1.0
C      1  0.4974790000000  0.4830980000000  0.5716300000000 1.0
C      1  0.5945180000000  0.5148380000000  0.5088200000000 1.0
C      1  0.4517510000000  0.5446360000000  0.5565350000000 1.0
C      1  0.5945040000000  0.4943500000000  0.4901930000000 1.0
C      1  0.4741210000000  0.4646590000000  0.4701250000000 1.0
C      1  0.5792820000000  0.4672110000000  0.4927710000000 1.0
C      1  0.5508280000000  0.5317860000000  0.4798490000000 1.0
C      1  0.5549200000000  0.4288640000000  0.4807330000000 1.0
C      1  0.5626780000000  0.5535450000000  0.5110390000000 1.0
C      1  0.5395580000000  0.4995480000000  0.4317600000000 1.0
C      1  0.5094600000000  0.5105210000000  0.5737080000000 1.0
C      1  0.5166600000000  0.4656630000000  0.5578060000000 1.0
C      1  0.5270190000000  0.5496780000000  0.5457330000000 1.0
C      1  0.4974010000000  0.4678030000000  0.5021920000000 1.0
C      1  0.4428310000000  0.4824850000000  0.5538660000000 1.0
C      1  0.4446500000000  0.4965430000000  0.5261300000000 1.0
C      1  0.5191420000000  0.4891180000000  0.4767330000000 1.0
C      1  0.4286770000000  0.4867360000000  0.4746610000000 1.0
C      1  0.5179550000000  0.4628160000000  0.5253430000000 1.0
C      1  0.5280390000000  0.4217530000000  0.4769010000000 1.0
C      1  0.4908740000000  0.5301560000000  0.5828860000000 1.0
C      1  0.5494950000000  0.5070010000000  0.5315230000000 1.0
C      1  0.5407440000000  0.5590380000000  0.4524230000000 1.0
C      1  0.4626290000000  0.4392430000000  0.5089660000000 1.0
C      1  0.4855640000000  0.5569380000000  0.4492070000000 1.0
C      1  0.5559240000000  0.4442730000000  0.5288960000000 1.0
C      1  0.4712190000000  0.4522920000000  0.5469410000000 1.0
C      1  0.5023810000000  0.5819650000000  0.5007410000000 1.0
C      1  0.4802150000000  0.4810890000000  0.5356390000000 1.0
C      1  0.4248770000000  0.5140450000000  0.4835860000000 1.0
C      1  0.5715080000000  0.5263350000000  0.5201160000000 1.0
C      1  0.4653790000000  0.4942340000000  0.5703150000000 1.0
C      1  0.5085350000000  0.4374100000000  0.4546690000000 1.0
C      1  0.4588700000000  0.5250800000000  0.5225060000000 1.0
C      1  0.4903570000000  0.4808960000000  0.4267720000000 1.0
C      1  0.4224390000000  0.4642330000000  0.5311240000000 1.0
C      1  0.5085000000000  0.4319910000000  0.5214590000000 1.0
C      1  0.4430170000000  0.5388490000000  0.4741530000000 1.0
C      1  0.5269530000000  0.5220440000000  0.4981710000000 1.0
C      1  0.5706340000000  0.4877710000000  0.4676990000000 1.0
C      1  0.4986910000000  0.5595650000000  0.4764990000000 1.0
C      1  0.5098240000000  0.5916060000000  0.5321270000000 1.0
C      1  0.5578320000000  0.5152110000000  0.4551660000000 1.0
C      1  0.5243070000000  0.5185160000000  0.5472010000000 1.0
C      1  0.5410200000000  0.4792490000000  0.4572740000000 1.0
C      1  0.4861580000000  0.4494150000000  0.4353360000000 1.0
C      1  0.4415430000000  0.4497670000000  0.5525770000000 1.0
C      1  0.5369670000000  0.4517080000000  0.4507410000000 1.0
C      1  0.4548210000000  0.5490990000000  0.4496780000000 1.0
C      1  0.4682700000000  0.5254950000000  0.4324700000000 1.0
C      1  0.4606570000000  0.4946140000000  0.4333650000000 1.0
C      1  0.4903750000000  0.4863710000000  0.4588380000000 1.0
C      1  0.5006900000000  0.5303240000000  0.4836810000000 1.0
C      1  0.5618300000000  0.4860110000000  0.5511730000000 1.0
C      1  0.4416520000000  0.5483700000000  0.5046620000000 1.0
C      1  0.5010190000000  0.5343260000000  0.4295660000000 1.0
C      1  0.5574450000000  0.5640240000000  0.4816780000000 1.0
C      1  0.4644020000000  0.5243140000000  0.5725580000000 1.0
C      1  0.5107580000000  0.5040850000000  0.4209430000000 1.0
C      1  0.4546280000000  0.4479340000000  0.4481840000000 1.0
C      1  0.4668130000000  0.5668770000000  0.5467510000000 1.0
C      1  0.4611000000000  0.4331200000000  0.4780100000000 1.0
C      1  0.4815160000000  0.4298630000000  0.5295960000000 1.0
C      1  0.4973950000000  0.5016450000000  0.5362990000000 1.0
C      1  0.4809050000000  0.5805410000000  0.5271660000000 1.0
C      1  0.5242940000000  0.5768280000000  0.5511850000000 1.0
END
