TITL C-2778436-5916-1259 -0.0032922054742246 125000 -545.149060027712 0 0 95 (C1) n - 1
REM
REM in /home/nfs/bkarasulu/CARBON/AIRSS/Generating-Clusters/REBO/Only-C1/SD-CG/HFTN-CG
REM
REM
REM
REM
REM
REM ./C.cell (11c1c37f851c82e70ff6c80c92926a4b)
REM
REM compiler GCC version 9.2.1 20190827 (Red Hat 9.2.1-1)
REM options -cpp -mtune=generic -march=x86-64 -g -O0 -fpre-include=/usr/include/finclude/math-vector-fortran.h
REM seed -222756392 -2122174469 -25208896 766325145 -346574906 2087218182 1156514683 -301966858 593606419 -1870465352 186332422 27030496 -934276261 315540421 748096456 2113867964 340463924 -1907365368 -787772215 -1339365616 428392604 -1064519763 -280743748 -1710979662 696977355 220037347 1897600077 -506972416 194466868 712817606 -1860086035 464880537 1340630136
REM
CELL 1.54180   50.00000   50.00000   50.00000   90.00000   90.00000   90.00000
LATT -1
SFAC C  
C      1  0.4762290000000  0.5574440000000  0.5559080000000 1.0
C      1  0.4663960000000  0.5068820000000  0.4156690000000 1.0
C      1  0.4727690000000  0.4747690000000  0.4142930000000 1.0
C      1  0.5183300000000  0.5102440000000  0.5294600000000 1.0
C      1  0.5185530000000  0.4469890000000  0.5173390000000 1.0
C      1  0.4278120000000  0.5072700000000  0.5443120000000 1.0
C      1  0.4909250000000  0.5262710000000  0.4333410000000 1.0
C      1  0.4952410000000  0.4125970000000  0.4895470000000 1.0
C      1  0.5207250000000  0.4788180000000  0.5165530000000 1.0
C      1  0.5845750000000  0.5154900000000  0.4899500000000 1.0
C      1  0.5160050000000  0.4180180000000  0.5355900000000 1.0
C      1  0.5005420000000  0.5421090000000  0.4550510000000 1.0
C      1  0.5228860000000  0.5561500000000  0.5180870000000 1.0
C      1  0.5374600000000  0.5006420000000  0.4322490000000 1.0
C      1  0.4534190000000  0.5133270000000  0.4449700000000 1.0
C      1  0.5090510000000  0.4632070000000  0.5721640000000 1.0
C      1  0.4416880000000  0.5604480000000  0.4814240000000 1.0
C      1  0.4924470000000  0.5403900000000  0.5180630000000 1.0
C      1  0.5196430000000  0.5293660000000  0.4734100000000 1.0
C      1  0.4314460000000  0.4745340000000  0.4436900000000 1.0
C      1  0.4621240000000  0.4907010000000  0.4635830000000 1.0
C      1  0.5441520000000  0.4578550000000  0.4623000000000 1.0
C      1  0.5694320000000  0.5329790000000  0.4671220000000 1.0
C      1  0.4778240000000  0.4661550000000  0.4909470000000 1.0
C      1  0.4443670000000  0.5360330000000  0.4579120000000 1.0
C      1  0.4628280000000  0.5555440000000  0.5262570000000 1.0
C      1  0.6016540000000  0.4947070000000  0.5100750000000 1.0
C      1  0.5097120000000  0.5231730000000  0.5595290000000 1.0
C      1  0.5478460000000  0.5013750000000  0.5517320000000 1.0
C      1  0.5195510000000  0.4095470000000  0.5050920000000 1.0
C      1  0.5017420000000  0.5792050000000  0.5174100000000 1.0
C      1  0.5559810000000  0.5528510000000  0.5267570000000 1.0
C      1  0.4558320000000  0.4424290000000  0.4798260000000 1.0
C      1  0.5056230000000  0.4923370000000  0.4286740000000 1.0
C      1  0.4827780000000  0.4757370000000  0.4464530000000 1.0
C      1  0.5646290000000  0.5625970000000  0.4776530000000 1.0
C      1  0.4051030000000  0.4982710000000  0.5000920000000 1.0
C      1  0.5363060000000  0.5678070000000  0.5813540000000 1.0
C      1  0.5297140000000  0.4468580000000  0.4336410000000 1.0
C      1  0.5018550000000  0.4267090000000  0.4657980000000 1.0
C      1  0.4408740000000  0.5299650000000  0.4886450000000 1.0
C      1  0.4662190000000  0.5210510000000  0.5069850000000 1.0
C      1  0.4661660000000  0.4270410000000  0.5278850000000 1.0
C      1  0.4966890000000  0.6003690000000  0.4655570000000 1.0
C      1  0.4580900000000  0.5733310000000  0.5010150000000 1.0
C      1  0.4576950000000  0.4369430000000  0.4474420000000 1.0
C      1  0.5320240000000  0.4279660000000  0.4619390000000 1.0
C      1  0.4828000000000  0.5325610000000  0.5675180000000 1.0
C      1  0.5710620000000  0.5558330000000  0.5540840000000 1.0
C      1  0.4863960000000  0.5694760000000  0.4588180000000 1.0
C      1  0.4204550000000  0.4547380000000  0.5172420000000 1.0
C      1  0.4506130000000  0.4580330000000  0.4306360000000 1.0
C      1  0.5626670000000  0.4741160000000  0.5423020000000 1.0
C      1  0.4787290000000  0.4979020000000  0.4896930000000 1.0
C      1  0.4793720000000  0.4592610000000  0.5697340000000 1.0
C      1  0.5046520000000  0.5155790000000  0.4982120000000 1.0
C      1  0.5616150000000  0.5762750000000  0.5722550000000 1.0
C      1  0.4875300000000  0.4600330000000  0.5186720000000 1.0
C      1  0.4177550000000  0.4734130000000  0.4960830000000 1.0
C      1  0.4618930000000  0.4858190000000  0.5738940000000 1.0
C      1  0.5308660000000  0.5418730000000  0.5707420000000 1.0
C      1  0.4899610000000  0.4341300000000  0.5490350000000 1.0
C      1  0.4414980000000  0.5318930000000  0.5278500000000 1.0
C      1  0.5238910000000  0.4418350000000  0.5566060000000 1.0
C      1  0.4652820000000  0.5653330000000  0.4338100000000 1.0
C      1  0.5824920000000  0.4683970000000  0.5195170000000 1.0
C      1  0.5027310000000  0.4588230000000  0.4163680000000 1.0
C      1  0.4707200000000  0.4221040000000  0.5004230000000 1.0
C      1  0.5406730000000  0.4342580000000  0.4943860000000 1.0
C      1  0.4855960000000  0.5818570000000  0.4906800000000 1.0
C      1  0.5447090000000  0.5198330000000  0.4577500000000 1.0
C      1  0.4380990000000  0.4703480000000  0.4745520000000 1.0
C      1  0.5669870000000  0.4505490000000  0.4951710000000 1.0
C      1  0.5386410000000  0.5461470000000  0.4914600000000 1.0
C      1  0.5063170000000  0.6225900000000  0.4572360000000 1.0
C      1  0.5512540000000  0.4928910000000  0.5149910000000 1.0
C      1  0.5506080000000  0.4505610000000  0.5532350000000 1.0
C      1  0.5554140000000  0.5292370000000  0.5589860000000 1.0
C      1  0.5390490000000  0.4777560000000  0.4884390000000 1.0
C      1  0.5493110000000  0.4887860000000  0.4600750000000 1.0
C      1  0.5767250000000  0.5458640000000  0.5029870000000 1.0
C      1  0.4659780000000  0.4648240000000  0.5402490000000 1.0
C      1  0.4415850000000  0.4443910000000  0.5323170000000 1.0
C      1  0.4689230000000  0.5121820000000  0.5814890000000 1.0
C      1  0.4671780000000  0.5410610000000  0.4198730000000 1.0
C      1  0.4888970000000  0.5814330000000  0.5419050000000 1.0
C      1  0.5460410000000  0.5238030000000  0.5158340000000 1.0
C      1  0.5326450000000  0.4742640000000  0.4137520000000 1.0
C      1  0.5211940000000  0.4811910000000  0.5960210000000 1.0
C      1  0.5787860000000  0.4818390000000  0.4881980000000 1.0
C      1  0.4907510000000  0.4523590000000  0.4636900000000 1.0
C      1  0.4135320000000  0.4928630000000  0.4339750000000 1.0
C      1  0.5206320000000  0.4937990000000  0.5658380000000 1.0
C      1  0.4123380000000  0.5175560000000  0.5188960000000 1.0
C      1  0.4422070000000  0.4858360000000  0.5517750000000 1.0
END
