TITL C-2778436-5916-610 0.089265122279836 125000 -727.25113535821 0 0 126 (C1) n - 1
REM
REM in /home/nfs/bkarasulu/CARBON/AIRSS/Generating-Clusters/REBO/Only-C1/SD-CG/HFTN-CG
REM
REM
REM
REM
REM
REM ./C.cell (11c1c37f851c82e70ff6c80c92926a4b)
REM
REM compiler GCC version 9.2.1 20190827 (Red Hat 9.2.1-1)
REM options -cpp -mtune=generic -march=x86-64 -g -O0 -fpre-include=/usr/include/finclude/math-vector-fortran.h
REM seed 330612112 -221305009 -356046326 889448802 647803603 -1178174672 -314908915 -295052457 -209537549 922430918 -970041570 1303811549 -2080847750 180846553 919144723 -597325054 -355531659 1115633207 -81617479 1685761097 1659550600 807706723 -1497711195 1454154210 260929927 -626622889 4247970 1412549823 2091091211 1466983879 1966782982 -817264296 2008120531
REM
CELL 1.54180   50.00000   50.00000   50.00000   90.00000   90.00000   90.00000
LATT -1
SFAC C  
C      1  0.4793210000000  0.5391830000000  0.4735430000000 1.0
C      1  0.4215640000000  0.5312820000000  0.4702060000000 1.0
C      1  0.4656050000000  0.5069880000000  0.5851030000000 1.0
C      1  0.5462840000000  0.4698490000000  0.4173810000000 1.0
C      1  0.4974320000000  0.5329670000000  0.5017740000000 1.0
C      1  0.5115540000000  0.4693720000000  0.5599580000000 1.0
C      1  0.5137970000000  0.5603640000000  0.5407630000000 1.0
C      1  0.4961250000000  0.5359240000000  0.5500030000000 1.0
C      1  0.5387090000000  0.5533530000000  0.4336220000000 1.0
C      1  0.5035130000000  0.5284630000000  0.4579110000000 1.0
C      1  0.4897620000000  0.5766280000000  0.5529660000000 1.0
C      1  0.4625110000000  0.5445560000000  0.4374020000000 1.0
C      1  0.4806460000000  0.5900740000000  0.5285820000000 1.0
C      1  0.5580340000000  0.4550420000000  0.4536650000000 1.0
C      1  0.4640200000000  0.4563550000000  0.4333800000000 1.0
C      1  0.4500530000000  0.4830620000000  0.4174690000000 1.0
C      1  0.4756950000000  0.5375580000000  0.5840170000000 1.0
C      1  0.4751300000000  0.4328680000000  0.4557710000000 1.0
C      1  0.5488340000000  0.5157120000000  0.5145630000000 1.0
C      1  0.4452190000000  0.5620910000000  0.5502940000000 1.0
C      1  0.4586710000000  0.4958190000000  0.4708930000000 1.0
C      1  0.5422080000000  0.4844940000000  0.5842790000000 1.0
C      1  0.5450680000000  0.4160770000000  0.5495010000000 1.0
C      1  0.4665620000000  0.5446630000000  0.5108490000000 1.0
C      1  0.4430860000000  0.4607810000000  0.5766720000000 1.0
C      1  0.4846090000000  0.4148050000000  0.4810860000000 1.0
C      1  0.5742550000000  0.5291330000000  0.4514410000000 1.0
C      1  0.5383350000000  0.5531130000000  0.4938480000000 1.0
C      1  0.4692880000000  0.5609930000000  0.5673510000000 1.0
C      1  0.4868970000000  0.4245140000000  0.5720030000000 1.0
C      1  0.4110450000000  0.4827470000000  0.4860790000000 1.0
C      1  0.5211330000000  0.4493770000000  0.4133060000000 1.0
C      1  0.4288800000000  0.5401160000000  0.4398190000000 1.0
C      1  0.4543710000000  0.4342410000000  0.4983750000000 1.0
C      1  0.5304660000000  0.5412610000000  0.4707550000000 1.0
C      1  0.5371470000000  0.4394940000000  0.4413480000000 1.0
C      1  0.5149430000000  0.4049150000000  0.4790580000000 1.0
C      1  0.4680600000000  0.4844640000000  0.4978140000000 1.0
C      1  0.4783210000000  0.4551840000000  0.4946980000000 1.0
C      1  0.5216940000000  0.5985210000000  0.4933500000000 1.0
C      1  0.4884910000000  0.4623210000000  0.5239660000000 1.0
C      1  0.4339990000000  0.5052730000000  0.5612620000000 1.0
C      1  0.4857950000000  0.5628630000000  0.4307690000000 1.0
C      1  0.4411930000000  0.5239930000000  0.5062420000000 1.0
C      1  0.5291240000000  0.5752680000000  0.4498500000000 1.0
C      1  0.5378350000000  0.5912090000000  0.4721340000000 1.0
C      1  0.5372600000000  0.4782460000000  0.5071760000000 1.0
C      1  0.5042350000000  0.4764670000000  0.4578770000000 1.0
C      1  0.5083890000000  0.4783730000000  0.4088150000000 1.0
C      1  0.5004740000000  0.5987710000000  0.5103810000000 1.0
C      1  0.5833880000000  0.5228590000000  0.5384270000000 1.0
C      1  0.4768180000000  0.4159980000000  0.5424860000000 1.0
C      1  0.5348010000000  0.4148230000000  0.5000050000000 1.0
C      1  0.5133650000000  0.5609130000000  0.5102100000000 1.0
C      1  0.4206040000000  0.4686210000000  0.5219460000000 1.0
C      1  0.5530790000000  0.5236670000000  0.4245920000000 1.0
C      1  0.4546660000000  0.5744900000000  0.5210990000000 1.0
C      1  0.4645470000000  0.5297330000000  0.5382020000000 1.0
C      1  0.5605040000000  0.5061410000000  0.5872020000000 1.0
C      1  0.4120250000000  0.5269290000000  0.5217320000000 1.0
C      1  0.5706060000000  0.4757090000000  0.4355090000000 1.0
C      1  0.5116610000000  0.4949270000000  0.5842950000000 1.0
C      1  0.5579420000000  0.4294680000000  0.4972750000000 1.0
C      1  0.5437890000000  0.5197520000000  0.5431110000000 1.0
C      1  0.4419130000000  0.4934190000000  0.5141170000000 1.0
C      1  0.5072240000000  0.5251100000000  0.5803570000000 1.0
C      1  0.5715640000000  0.5030270000000  0.5017250000000 1.0
C      1  0.5462810000000  0.5000370000000  0.4597110000000 1.0
C      1  0.4962570000000  0.5218160000000  0.4047110000000 1.0
C      1  0.5569290000000  0.5277730000000  0.5695020000000 1.0
C      1  0.4454100000000  0.5615710000000  0.4604420000000 1.0
C      1  0.5758790000000  0.4493520000000  0.5286750000000 1.0
C      1  0.4531930000000  0.5255310000000  0.4758390000000 1.0
C      1  0.4292470000000  0.4543490000000  0.4921130000000 1.0
C      1  0.4912200000000  0.5688390000000  0.4855140000000 1.0
C      1  0.5314460000000  0.4820140000000  0.4411130000000 1.0
C      1  0.5279780000000  0.4929090000000  0.5478770000000 1.0
C      1  0.5990290000000  0.4639370000000  0.5209330000000 1.0
C      1  0.5766300000000  0.4970660000000  0.5452810000000 1.0
C      1  0.5492400000000  0.4618760000000  0.5707730000000 1.0
C      1  0.5654520000000  0.5490040000000  0.4999820000000 1.0
C      1  0.4477870000000  0.4518110000000  0.4632040000000 1.0
C      1  0.4347200000000  0.5886240000000  0.5073890000000 1.0
C      1  0.5708570000000  0.5464050000000  0.5283000000000 1.0
C      1  0.4796570000000  0.4942130000000  0.4493280000000 1.0
C      1  0.5957460000000  0.4906330000000  0.5109170000000 1.0
C      1  0.4014620000000  0.4950430000000  0.5164560000000 1.0
C      1  0.4252570000000  0.4541630000000  0.5510220000000 1.0
C      1  0.4990800000000  0.4328330000000  0.4313800000000 1.0
C      1  0.5147380000000  0.4289210000000  0.4595300000000 1.0
C      1  0.5773670000000  0.5027110000000  0.4347730000000 1.0
C      1  0.4812730000000  0.4203460000000  0.5138650000000 1.0
C      1  0.5149100000000  0.5320850000000  0.4304990000000 1.0
C      1  0.5265900000000  0.5070950000000  0.4104460000000 1.0
C      1  0.5297730000000  0.5474360000000  0.5679140000000 1.0
C      1  0.4902860000000  0.4713420000000  0.5934510000000 1.0
C      1  0.5630650000000  0.4889440000000  0.4785500000000 1.0
C      1  0.5004200000000  0.5721050000000  0.4529420000000 1.0
C      1  0.5197870000000  0.5071720000000  0.5010530000000 1.0
C      1  0.4639300000000  0.4576820000000  0.5428420000000 1.0
C      1  0.4395900000000  0.5151900000000  0.4231310000000 1.0
C      1  0.4055780000000  0.5161350000000  0.4899410000000 1.0
C      1  0.5530940000000  0.5598730000000  0.5463760000000 1.0
C      1  0.6238710000000  0.4529040000000  0.5229360000000 1.0
C      1  0.4559710000000  0.4322610000000  0.5641170000000 1.0
C      1  0.4618030000000  0.4784760000000  0.5903420000000 1.0
C      1  0.4947790000000  0.5552980000000  0.4052440000000 1.0
C      1  0.4795570000000  0.5084970000000  0.5568780000000 1.0
C      1  0.5106060000000  0.4346170000000  0.5054440000000 1.0
C      1  0.4482600000000  0.4863320000000  0.5457220000000 1.0
C      1  0.4315520000000  0.5331640000000  0.5460820000000 1.0
C      1  0.5012440000000  0.4462530000000  0.5805320000000 1.0
C      1  0.5487340000000  0.4436320000000  0.5441700000000 1.0
C      1  0.4591760000000  0.5728950000000  0.4810100000000 1.0
C      1  0.5554540000000  0.4586960000000  0.4857790000000 1.0
C      1  0.4814770000000  0.4778070000000  0.4130240000000 1.0
C      1  0.5545440000000  0.4822150000000  0.5356170000000 1.0
C      1  0.4321440000000  0.4809600000000  0.4628570000000 1.0
C      1  0.5214790000000  0.4572470000000  0.5289310000000 1.0
C      1  0.5032440000000  0.4521630000000  0.4766310000000 1.0
C      1  0.4235230000000  0.4888610000000  0.4352310000000 1.0
C      1  0.4730590000000  0.5144300000000  0.4266600000000 1.0
C      1  0.4421910000000  0.4358900000000  0.5284380000000 1.0
C      1  0.4784100000000  0.4922870000000  0.5295220000000 1.0
C      1  0.5164310000000  0.5039200000000  0.4707300000000 1.0
C      1  0.5791930000000  0.5395870000000  0.4766610000000 1.0
END
