TITL C-2778425-5191-1234 -0.00428918131368937 125000 -923.828167617405 0 0 160 (C1) n - 1
REM
REM in /home/nfs/bkarasulu/CARBON/AIRSS/Generating-Clusters/REBO/Only-C1/SD-CG/HFTN-CG
REM
REM
REM
REM
REM
REM ./C.cell (11c1c37f851c82e70ff6c80c92926a4b)
REM
REM compiler GCC version 9.2.1 20190827 (Red Hat 9.2.1-1)
REM options -cpp -mtune=generic -march=x86-64 -g -O0 -fpre-include=/usr/include/finclude/math-vector-fortran.h
REM seed -647718018 -1927243104 1029536387 -2106116212 -513395103 169788329 -1838968571 -1978798909 683527889 -1114544544 1850710806 -1140151157 880244323 -189427903 -1868520799 936811455 792890447 -2000957978 154383048 -883545738 390206858 1463776985 823278985 -454367972 194173025 98133654 -319666309 -1045017897 -1398510814 1270360577 206166887 -405558358 526412874
REM
CELL 1.54180   50.00000   50.00000   50.00000   90.00000   90.00000   90.00000
LATT -1
SFAC C  
C      1  0.4487890000000  0.4686220000000  0.4139310000000 1.0
C      1  0.5141340000000  0.4835410000000  0.5353410000000 1.0
C      1  0.4552920000000  0.5646770000000  0.5632310000000 1.0
C      1  0.5149140000000  0.4794500000000  0.5022070000000 1.0
C      1  0.5088360000000  0.5589250000000  0.4150450000000 1.0
C      1  0.5582710000000  0.5382130000000  0.4165340000000 1.0
C      1  0.4621430000000  0.5216330000000  0.5452410000000 1.0
C      1  0.5099250000000  0.4227350000000  0.5759610000000 1.0
C      1  0.5723490000000  0.5610200000000  0.4351630000000 1.0
C      1  0.4178340000000  0.5928690000000  0.4563670000000 1.0
C      1  0.5269390000000  0.5558860000000  0.5239380000000 1.0
C      1  0.5666420000000  0.5809870000000  0.5124430000000 1.0
C      1  0.4887090000000  0.6067400000000  0.5161440000000 1.0
C      1  0.4512400000000  0.4824390000000  0.5414340000000 1.0
C      1  0.4687080000000  0.5055890000000  0.4557340000000 1.0
C      1  0.5362780000000  0.5910210000000  0.5072940000000 1.0
C      1  0.5577190000000  0.5749380000000  0.4582510000000 1.0
C      1  0.4595040000000  0.5516620000000  0.4454890000000 1.0
C      1  0.5350660000000  0.4632780000000  0.5961420000000 1.0
C      1  0.5049230000000  0.4588330000000  0.5645970000000 1.0
C      1  0.4708710000000  0.5997050000000  0.4924230000000 1.0
C      1  0.4831040000000  0.4798980000000  0.4706250000000 1.0
C      1  0.5944730000000  0.4584780000000  0.4789630000000 1.0
C      1  0.4188180000000  0.4719150000000  0.5384280000000 1.0
C      1  0.5629420000000  0.4626120000000  0.4334990000000 1.0
C      1  0.5585130000000  0.4738800000000  0.4717680000000 1.0
C      1  0.5263540000000  0.5847610000000  0.5379990000000 1.0
C      1  0.5175940000000  0.4281720000000  0.4242700000000 1.0
C      1  0.4013720000000  0.4900850000000  0.4622980000000 1.0
C      1  0.5051360000000  0.5392890000000  0.5337960000000 1.0
C      1  0.4498100000000  0.4283160000000  0.5447740000000 1.0
C      1  0.4199890000000  0.4441480000000  0.5533070000000 1.0
C      1  0.4195730000000  0.4175170000000  0.5314440000000 1.0
C      1  0.4864930000000  0.4228820000000  0.5521210000000 1.0
C      1  0.4299960000000  0.4648820000000  0.5785380000000 1.0
C      1  0.4090970000000  0.5384680000000  0.4968470000000 1.0
C      1  0.5101030000000  0.5130280000000  0.5222890000000 1.0
C      1  0.5321930000000  0.5527680000000  0.5632830000000 1.0
C      1  0.4691090000000  0.5687750000000  0.4942960000000 1.0
C      1  0.5771250000000  0.4589810000000  0.5235240000000 1.0
C      1  0.5407060000000  0.5090120000000  0.4702310000000 1.0
C      1  0.5083720000000  0.4968120000000  0.5663000000000 1.0
C      1  0.4717250000000  0.4662140000000  0.6021080000000 1.0
C      1  0.4298420000000  0.4941870000000  0.4795980000000 1.0
C      1  0.4648920000000  0.4126800000000  0.5075830000000 1.0
C      1  0.5326100000000  0.4024380000000  0.5225530000000 1.0
C      1  0.4280030000000  0.5232940000000  0.4414760000000 1.0
C      1  0.4635590000000  0.4922140000000  0.5151430000000 1.0
C      1  0.5152030000000  0.5446750000000  0.4850330000000 1.0
C      1  0.4650410000000  0.4424180000000  0.4288680000000 1.0
C      1  0.4643080000000  0.5178970000000  0.5027320000000 1.0
C      1  0.5307530000000  0.4217150000000  0.5488610000000 1.0
C      1  0.5219400000000  0.4443220000000  0.5249260000000 1.0
C      1  0.4836970000000  0.3936030000000  0.5120310000000 1.0
C      1  0.6062530000000  0.4849010000000  0.4684590000000 1.0
C      1  0.5839040000000  0.4820130000000  0.5014080000000 1.0
C      1  0.5291210000000  0.5443940000000  0.5943180000000 1.0
C      1  0.4091750000000  0.4973290000000  0.4360320000000 1.0
C      1  0.5331010000000  0.4672780000000  0.5564100000000 1.0
C      1  0.5788410000000  0.4554390000000  0.5521450000000 1.0
C      1  0.4849150000000  0.4266450000000  0.4761270000000 1.0
C      1  0.4791890000000  0.4703550000000  0.3987070000000 1.0
C      1  0.5103740000000  0.4567260000000  0.3974020000000 1.0
C      1  0.5821720000000  0.5067340000000  0.4771210000000 1.0
C      1  0.5103230000000  0.6043940000000  0.4950620000000 1.0
C      1  0.5108160000000  0.3975160000000  0.5048600000000 1.0
C      1  0.4618110000000  0.5639530000000  0.5238170000000 1.0
C      1  0.4349510000000  0.4686230000000  0.4626110000000 1.0
C      1  0.5642610000000  0.5005720000000  0.5771190000000 1.0
C      1  0.4904320000000  0.4357120000000  0.4149440000000 1.0
C      1  0.4526190000000  0.5312800000000  0.4198180000000 1.0
C      1  0.5549140000000  0.4137360000000  0.5079660000000 1.0
C      1  0.4917720000000  0.4441680000000  0.5303040000000 1.0
C      1  0.4358390000000  0.4432240000000  0.5165940000000 1.0
C      1  0.4332170000000  0.5169580000000  0.5324400000000 1.0
C      1  0.4245500000000  0.4988630000000  0.5096010000000 1.0
C      1  0.5287850000000  0.4828480000000  0.3956380000000 1.0
C      1  0.4836080000000  0.4791700000000  0.4301830000000 1.0
C      1  0.4771680000000  0.4423820000000  0.5038710000000 1.0
C      1  0.6002120000000  0.5296060000000  0.5254530000000 1.0
C      1  0.5877980000000  0.5321520000000  0.4442040000000 1.0
C      1  0.5274640000000  0.5893960000000  0.4517200000000 1.0
C      1  0.4422960000000  0.5174520000000  0.5874910000000 1.0
C      1  0.4800930000000  0.5511630000000  0.4672660000000 1.0
C      1  0.4176330000000  0.4658770000000  0.5062260000000 1.0
C      1  0.6111270000000  0.5077580000000  0.4498780000000 1.0
C      1  0.4547690000000  0.4444160000000  0.5728830000000 1.0
C      1  0.4750420000000  0.5551030000000  0.4153740000000 1.0
C      1  0.5237750000000  0.4489140000000  0.4915830000000 1.0
C      1  0.4723900000000  0.4717380000000  0.4979330000000 1.0
C      1  0.5442470000000  0.4273100000000  0.4811910000000 1.0
C      1  0.4490940000000  0.4989730000000  0.4286960000000 1.0
C      1  0.4174350000000  0.4938450000000  0.5897400000000 1.0
C      1  0.5732370000000  0.4923800000000  0.4473080000000 1.0
C      1  0.4621920000000  0.4664330000000  0.4513150000000 1.0
C      1  0.4850190000000  0.4436950000000  0.5861720000000 1.0
C      1  0.5589520000000  0.4733400000000  0.5656770000000 1.0
C      1  0.5715430000000  0.5226720000000  0.5617060000000 1.0
C      1  0.5918160000000  0.5583430000000  0.5125550000000 1.0
C      1  0.5097120000000  0.5537760000000  0.4541090000000 1.0
C      1  0.4878200000000  0.5031850000000  0.3989120000000 1.0
C      1  0.4759640000000  0.5440480000000  0.5359800000000 1.0
C      1  0.5557670000000  0.5700470000000  0.5474000000000 1.0
C      1  0.5134020000000  0.4132640000000  0.4767850000000 1.0
C      1  0.5592590000000  0.4334930000000  0.5631480000000 1.0
C      1  0.4938000000000  0.5211270000000  0.6098300000000 1.0
C      1  0.4289200000000  0.5425840000000  0.4694840000000 1.0
C      1  0.5171510000000  0.5119050000000  0.4910750000000 1.0
C      1  0.4359950000000  0.4224410000000  0.4701320000000 1.0
C      1  0.5034150000000  0.5618200000000  0.5794530000000 1.0
C      1  0.6072720000000  0.5051970000000  0.5204700000000 1.0
C      1  0.4201650000000  0.5440560000000  0.5253470000000 1.0
C      1  0.4490640000000  0.5175270000000  0.4753980000000 1.0
C      1  0.5548370000000  0.4434220000000  0.5159970000000 1.0
C      1  0.5418020000000  0.5098160000000  0.5229200000000 1.0
C      1  0.4750620000000  0.5042810000000  0.5687270000000 1.0
C      1  0.5125570000000  0.4716700000000  0.4690280000000 1.0
C      1  0.4867170000000  0.5116940000000  0.4284270000000 1.0
C      1  0.4963870000000  0.5930700000000  0.5409350000000 1.0
C      1  0.4342990000000  0.4138410000000  0.5005180000000 1.0
C      1  0.3932580000000  0.4831990000000  0.4906990000000 1.0
C      1  0.5671790000000  0.5098570000000  0.4184130000000 1.0
C      1  0.4205810000000  0.4455290000000  0.4642450000000 1.0
C      1  0.4732380000000  0.4619590000000  0.5526140000000 1.0
C      1  0.4170770000000  0.4780850000000  0.4177030000000 1.0
C      1  0.4352940000000  0.5656130000000  0.5371210000000 1.0
C      1  0.5327620000000  0.4937230000000  0.5879440000000 1.0
C      1  0.4846360000000  0.5392830000000  0.4973750000000 1.0
C      1  0.4707610000000  0.5892750000000  0.4600580000000 1.0
C      1  0.5028550000000  0.5980880000000  0.4684780000000 1.0
C      1  0.4819450000000  0.5429600000000  0.5956100000000 1.0
C      1  0.5757520000000  0.5658340000000  0.4833770000000 1.0
C      1  0.5317650000000  0.5733630000000  0.4807890000000 1.0
C      1  0.5218590000000  0.5183300000000  0.6044300000000 1.0
C      1  0.5396580000000  0.4484620000000  0.4128940000000 1.0
C      1  0.5341520000000  0.4844580000000  0.4502260000000 1.0
C      1  0.4405200000000  0.5732530000000  0.4600840000000 1.0
C      1  0.3930480000000  0.5111960000000  0.5097040000000 1.0
C      1  0.4899270000000  0.5761860000000  0.4378090000000 1.0
C      1  0.5803870000000  0.5504410000000  0.5437170000000 1.0
C      1  0.4560610000000  0.4857470000000  0.5868720000000 1.0
C      1  0.5331720000000  0.5460750000000  0.4348350000000 1.0
C      1  0.4995310000000  0.5274940000000  0.5632780000000 1.0
C      1  0.5994930000000  0.5101440000000  0.4205600000000 1.0
C      1  0.4826980000000  0.5772020000000  0.5602200000000 1.0
C      1  0.4621780000000  0.4251030000000  0.4578350000000 1.0
C      1  0.5492220000000  0.5517520000000  0.5093100000000 1.0
C      1  0.5137760000000  0.5043960000000  0.3870070000000 1.0
C      1  0.5375360000000  0.4388200000000  0.5841390000000 1.0
C      1  0.4311300000000  0.5023260000000  0.5605270000000 1.0
C      1  0.5519410000000  0.4938970000000  0.4989440000000 1.0
C      1  0.5471820000000  0.5287010000000  0.5450040000000 1.0
C      1  0.5270760000000  0.4139670000000  0.4480240000000 1.0
C      1  0.5675330000000  0.5330470000000  0.4875950000000 1.0
C      1  0.5530920000000  0.4312780000000  0.4424300000000 1.0
C      1  0.5675460000000  0.4439030000000  0.4685080000000 1.0
C      1  0.3978640000000  0.4938900000000  0.5387390000000 1.0
C      1  0.5449330000000  0.4874300000000  0.4198730000000 1.0
C      1  0.5556910000000  0.5313580000000  0.4556720000000 1.0
C      1  0.4565520000000  0.5432400000000  0.5835160000000 1.0
END
