TITL C-2778430-5657-1329 0.000187207786231928 125000 -90.3305850899892 0 0 18 (C1) n - 1
REM
REM in /home/nfs/bkarasulu/CARBON/AIRSS/Generating-Clusters/REBO/Only-C1/SD-CG/HFTN-CG
REM
REM
REM
REM
REM
REM ./C.cell (11c1c37f851c82e70ff6c80c92926a4b)
REM
REM compiler GCC version 9.2.1 20190827 (Red Hat 9.2.1-1)
REM options -cpp -mtune=generic -march=x86-64 -g -O0 -fpre-include=/usr/include/finclude/math-vector-fortran.h
REM seed 1970148757 1224607333 -476317924 1848668601 887796727 969718521 -1257898849 2031446181 -264774801 1110077620 -1376049206 -2080515974 -1335872829 965954598 -1464291490 -310686981 -1944182539 -1973429002 26840493 -173798248 -1939530256 -914599094 -327243068 1335217706 -309443676 1860639967 2019575665 -184041524 1173731632 1121708447 -279991301 -1960390394 1027978126
REM
CELL 1.54180   50.00000   50.00000   50.00000   90.00000   90.00000   90.00000
LATT -1
SFAC C  
C      1  0.4825910000000  0.4807120000000  0.5142760000000 1.0
C      1  0.5242530000000  0.4668260000000  0.4657980000000 1.0
C      1  0.5147920000000  0.5292770000000  0.5247680000000 1.0
C      1  0.4915450000000  0.5434110000000  0.5223220000000 1.0
C      1  0.4462820000000  0.5490790000000  0.5070500000000 1.0
C      1  0.4489850000000  0.4913460000000  0.4816910000000 1.0
C      1  0.4671940000000  0.5321990000000  0.5121420000000 1.0
C      1  0.4911370000000  0.5696810000000  0.5299780000000 1.0
C      1  0.5442820000000  0.4588260000000  0.4920930000000 1.0
C      1  0.4911040000000  0.4608980000000  0.4678820000000 1.0
C      1  0.5333950000000  0.4995190000000  0.4683410000000 1.0
C      1  0.5288960000000  0.4989030000000  0.5198550000000 1.0
C      1  0.4733440000000  0.4716610000000  0.4857100000000 1.0
C      1  0.5061850000000  0.4801290000000  0.5290390000000 1.0
C      1  0.5411780000000  0.4883760000000  0.4948050000000 1.0
C      1  0.4642410000000  0.5046710000000  0.5060670000000 1.0
C      1  0.5064330000000  0.4495260000000  0.4426800000000 1.0
C      1  0.5441630000000  0.5249620000000  0.5355020000000 1.0
END
