TITL C-2778422-5617-491 -0.000948899436089308 125000 -223.144214695501 0 0 40 (C1) n - 1
REM
REM in /home/nfs/bkarasulu/CARBON/AIRSS/Generating-Clusters/REBO/Only-C1/SD-CG/HFTN-CG
REM
REM
REM
REM
REM
REM ./C.cell (11c1c37f851c82e70ff6c80c92926a4b)
REM
REM compiler GCC version 9.2.1 20190827 (Red Hat 9.2.1-1)
REM options -cpp -mtune=generic -march=x86-64 -g -O0 -fpre-include=/usr/include/finclude/math-vector-fortran.h
REM seed 1982495291 904038352 -1764010578 -575506008 -164142571 1341261763 1573334300 -867863138 237524848 968830234 1821836180 711191510 44774003 -1692128696 1494129351 135069829 2049931730 -1546263598 -1740466910 1975565137 -1766466014 -821877629 1543094812 1451518949 1609209880 -444689871 1844131191 1536040119 754819908 2006495607 220545765 792729141 -1067899190
REM
CELL 1.54180   50.00000   50.00000   50.00000   90.00000   90.00000   90.00000
LATT -1
SFAC C  
C      1  0.4989710000000  0.5370680000000  0.5531510000000 1.0
C      1  0.5086340000000  0.4556350000000  0.4477870000000 1.0
C      1  0.5321850000000  0.4940410000000  0.5456220000000 1.0
C      1  0.5120440000000  0.5309750000000  0.4774030000000 1.0
C      1  0.5049280000000  0.4550030000000  0.4973480000000 1.0
C      1  0.5338520000000  0.5194960000000  0.5262960000000 1.0
C      1  0.4965430000000  0.5339770000000  0.5229020000000 1.0
C      1  0.4553030000000  0.4767670000000  0.4802080000000 1.0
C      1  0.5319790000000  0.5502520000000  0.5318040000000 1.0
C      1  0.4792390000000  0.4898680000000  0.4701180000000 1.0
C      1  0.4807170000000  0.5237670000000  0.4655060000000 1.0
C      1  0.5344650000000  0.5508920000000  0.4843730000000 1.0
C      1  0.4252310000000  0.5224300000000  0.4867830000000 1.0
C      1  0.4961100000000  0.5064650000000  0.4381670000000 1.0
C      1  0.5421480000000  0.4723260000000  0.5254260000000 1.0
C      1  0.5123250000000  0.5149370000000  0.5643860000000 1.0
C      1  0.4815750000000  0.4828830000000  0.5322260000000 1.0
C      1  0.5302140000000  0.5656110000000  0.5086780000000 1.0
C      1  0.4604160000000  0.4578920000000  0.5373230000000 1.0
C      1  0.4488750000000  0.4868340000000  0.5274730000000 1.0
C      1  0.5008630000000  0.4870230000000  0.5544000000000 1.0
C      1  0.5098290000000  0.5134640000000  0.5035090000000 1.0
C      1  0.5251070000000  0.4510570000000  0.5212480000000 1.0
C      1  0.5204450000000  0.5150680000000  0.4519640000000 1.0
C      1  0.4683680000000  0.4340870000000  0.5244780000000 1.0
C      1  0.5420610000000  0.4968950000000  0.4553060000000 1.0
C      1  0.5559110000000  0.5128560000000  0.5042470000000 1.0
C      1  0.4907050000000  0.4769480000000  0.4433990000000 1.0
C      1  0.4580680000000  0.4492660000000  0.4810930000000 1.0
C      1  0.4707840000000  0.5463280000000  0.4485960000000 1.0
C      1  0.5227260000000  0.4562350000000  0.4724430000000 1.0
C      1  0.5531390000000  0.4842570000000  0.5011950000000 1.0
C      1  0.4685700000000  0.5417580000000  0.5150090000000 1.0
C      1  0.5585720000000  0.5346330000000  0.4859410000000 1.0
C      1  0.4433450000000  0.4967170000000  0.4997180000000 1.0
C      1  0.5437630000000  0.4758620000000  0.4748620000000 1.0
C      1  0.4693020000000  0.5500290000000  0.5465750000000 1.0
C      1  0.4784940000000  0.4383630000000  0.4980700000000 1.0
C      1  0.4587510000000  0.5262220000000  0.4915160000000 1.0
C      1  0.4954460000000  0.4858120000000  0.5034490000000 1.0
END
