TITL C-2778426-5645-1389 0.00151281282626936 125000 -532.102847658682 0 0 93 (C1) n - 1
REM
REM in /home/nfs/bkarasulu/CARBON/AIRSS/Generating-Clusters/REBO/Only-C1/SD-CG/HFTN-CG
REM
REM
REM
REM
REM
REM ./C.cell (11c1c37f851c82e70ff6c80c92926a4b)
REM
REM compiler GCC version 9.2.1 20190827 (Red Hat 9.2.1-1)
REM options -cpp -mtune=generic -march=x86-64 -g -O0 -fpre-include=/usr/include/finclude/math-vector-fortran.h
REM seed -709936456 918349517 728079773 487610791 -512148789 -1073956730 579255711 -1401446376 93977077 1826941550 -719222101 -511606410 608216697 -808477839 -1511880836 -278634848 -59280130 -1211220642 -259081558 1074352287 -826493066 558063588 -1561992707 1451392450 -793620625 1144762921 -940099541 1728864995 148351718 89308413 1608261931 -2011759527 -1619982146
REM
CELL 1.54180   50.00000   50.00000   50.00000   90.00000   90.00000   90.00000
LATT -1
SFAC C  
C      1  0.5460300000000  0.5132160000000  0.4284250000000 1.0
C      1  0.4676100000000  0.6080400000000  0.4877050000000 1.0
C      1  0.5495320000000  0.4828020000000  0.5695190000000 1.0
C      1  0.5131120000000  0.4259120000000  0.4616080000000 1.0
C      1  0.5189230000000  0.4376480000000  0.5259470000000 1.0
C      1  0.4817620000000  0.4570600000000  0.4195480000000 1.0
C      1  0.5287070000000  0.5679370000000  0.5411530000000 1.0
C      1  0.4554320000000  0.6304640000000  0.4873800000000 1.0
C      1  0.4731270000000  0.5245660000000  0.5194950000000 1.0
C      1  0.4281530000000  0.5361860000000  0.5264810000000 1.0
C      1  0.5206810000000  0.4747370000000  0.4637640000000 1.0
C      1  0.4703010000000  0.5675140000000  0.5452950000000 1.0
C      1  0.4819960000000  0.5815500000000  0.4880890000000 1.0
C      1  0.5624120000000  0.4547080000000  0.5104580000000 1.0
C      1  0.4684290000000  0.4959760000000  0.5367510000000 1.0
C      1  0.5677760000000  0.5303500000000  0.5796770000000 1.0
C      1  0.4719480000000  0.4831030000000  0.4136820000000 1.0
C      1  0.5259890000000  0.5103580000000  0.4144050000000 1.0
C      1  0.4727780000000  0.4372060000000  0.4360710000000 1.0
C      1  0.5041140000000  0.5681580000000  0.5507620000000 1.0
C      1  0.4116400000000  0.4830160000000  0.4717820000000 1.0
C      1  0.4538210000000  0.5447540000000  0.5302330000000 1.0
C      1  0.5050890000000  0.5481700000000  0.5157060000000 1.0
C      1  0.5927790000000  0.5229170000000  0.5213090000000 1.0
C      1  0.5695870000000  0.5390280000000  0.4731820000000 1.0
C      1  0.5651860000000  0.5055160000000  0.5603490000000 1.0
C      1  0.5070050000000  0.4202590000000  0.4062670000000 1.0
C      1  0.4904510000000  0.4766060000000  0.5222810000000 1.0
C      1  0.5660720000000  0.4830760000000  0.5110740000000 1.0
C      1  0.5419420000000  0.5471790000000  0.5740060000000 1.0
C      1  0.4236130000000  0.4823660000000  0.5037170000000 1.0
C      1  0.4579640000000  0.5398100000000  0.4651600000000 1.0
C      1  0.4867610000000  0.4762800000000  0.4641140000000 1.0
C      1  0.5472580000000  0.4550330000000  0.5622800000000 1.0
C      1  0.4826150000000  0.5544750000000  0.5735450000000 1.0
C      1  0.5717180000000  0.4211960000000  0.4764990000000 1.0
C      1  0.5334370000000  0.4496060000000  0.4686660000000 1.0
C      1  0.4250930000000  0.4520380000000  0.4931870000000 1.0
C      1  0.5842090000000  0.5106590000000  0.4759590000000 1.0
C      1  0.5138270000000  0.5446310000000  0.5815300000000 1.0
C      1  0.4780130000000  0.5631660000000  0.4631540000000 1.0
C      1  0.4976950000000  0.4523740000000  0.5431480000000 1.0
C      1  0.5179780000000  0.5164390000000  0.5435860000000 1.0
C      1  0.5512820000000  0.5621150000000  0.5266170000000 1.0
C      1  0.4772370000000  0.5203810000000  0.4361130000000 1.0
C      1  0.5166300000000  0.4016820000000  0.4752700000000 1.0
C      1  0.5557530000000  0.5122930000000  0.4573380000000 1.0
C      1  0.4181840000000  0.4315580000000  0.5104780000000 1.0
C      1  0.4679220000000  0.5185300000000  0.4886850000000 1.0
C      1  0.4376560000000  0.5121140000000  0.4637040000000 1.0
C      1  0.4115360000000  0.4118540000000  0.5271140000000 1.0
C      1  0.5295530000000  0.4226120000000  0.5970490000000 1.0
C      1  0.5011510000000  0.4552420000000  0.5707470000000 1.0
C      1  0.5232070000000  0.5466690000000  0.4892510000000 1.0
C      1  0.5023820000000  0.5204260000000  0.5668660000000 1.0
C      1  0.4991830000000  0.4825390000000  0.5792460000000 1.0
C      1  0.5257360000000  0.5625000000000  0.4592260000000 1.0
C      1  0.4443430000000  0.4860100000000  0.4207190000000 1.0
C      1  0.5256660000000  0.4923370000000  0.5840160000000 1.0
C      1  0.5628770000000  0.5602080000000  0.4944480000000 1.0
C      1  0.5097840000000  0.4228390000000  0.4315030000000 1.0
C      1  0.4939520000000  0.5082020000000  0.4111470000000 1.0
C      1  0.5001500000000  0.5393390000000  0.4250870000000 1.0
C      1  0.4542120000000  0.4924410000000  0.5060020000000 1.0
C      1  0.5784780000000  0.5469120000000  0.5213700000000 1.0
C      1  0.5422890000000  0.4959490000000  0.5049500000000 1.0
C      1  0.5013200000000  0.4511990000000  0.5039380000000 1.0
C      1  0.5879020000000  0.5010790000000  0.5030420000000 1.0
C      1  0.5436270000000  0.5793650000000  0.4800200000000 1.0
C      1  0.5190860000000  0.5169820000000  0.4950180000000 1.0
C      1  0.4366610000000  0.4489590000000  0.4677940000000 1.0
C      1  0.5611800000000  0.4143100000000  0.5380600000000 1.0
C      1  0.4548560000000  0.4841500000000  0.4731410000000 1.0
C      1  0.4842070000000  0.5664890000000  0.5161570000000 1.0
C      1  0.4760250000000  0.5012500000000  0.5661070000000 1.0
C      1  0.5137030000000  0.5796370000000  0.4927080000000 1.0
C      1  0.5566650000000  0.4426700000000  0.4843240000000 1.0
C      1  0.4832600000000  0.5086970000000  0.4626250000000 1.0
C      1  0.4167320000000  0.5149390000000  0.5120600000000 1.0
C      1  0.4049940000000  0.3924630000000  0.5434850000000 1.0
C      1  0.5020640000000  0.5084680000000  0.5194000000000 1.0
C      1  0.5344620000000  0.4986190000000  0.4734300000000 1.0
C      1  0.4656570000000  0.5288160000000  0.5801030000000 1.0
C      1  0.5262930000000  0.4423310000000  0.5788990000000 1.0
C      1  0.5012890000000  0.5600140000000  0.4452330000000 1.0
C      1  0.4117670000000  0.5136190000000  0.4822360000000 1.0
C      1  0.4305160000000  0.5104250000000  0.4311560000000 1.0
C      1  0.4945550000000  0.4479290000000  0.4770970000000 1.0
C      1  0.5491640000000  0.4398790000000  0.5344080000000 1.0
C      1  0.4491690000000  0.5340580000000  0.4329090000000 1.0
C      1  0.5446420000000  0.5268950000000  0.5476870000000 1.0
C      1  0.4552680000000  0.4311270000000  0.4562270000000 1.0
C      1  0.4332130000000  0.4747940000000  0.4488460000000 1.0
END
