TITL C-2778436-5916-310 0.00541744852340171 125000 -791.562949975438 0 0 134 (C1) n - 1
REM
REM in /home/nfs/bkarasulu/CARBON/AIRSS/Generating-Clusters/REBO/Only-C1/SD-CG/HFTN-CG
REM
REM
REM
REM
REM
REM ./C.cell (11c1c37f851c82e70ff6c80c92926a4b)
REM
REM compiler GCC version 9.2.1 20190827 (Red Hat 9.2.1-1)
REM options -cpp -mtune=generic -march=x86-64 -g -O0 -fpre-include=/usr/include/finclude/math-vector-fortran.h
REM seed -952261821 1449369847 1974460025 980665387 -976476967 -1115356678 -648028611 1348350935 -294953211 186051950 -35414654 -2119606538 1637733150 -887473747 228293592 -104822038 813308540 -830578169 -1932612903 1802837246 1481643386 -1494579401 -973445669 -338869283 -1260767063 743922347 1185496616 -1339999658 -176268310 -641860289 63388970 1899518504 2120606314
REM
CELL 1.54180   50.00000   50.00000   50.00000   90.00000   90.00000   90.00000
LATT -1
SFAC C  
C      1  0.4977880000000  0.5015540000000  0.4042380000000 1.0
C      1  0.4829240000000  0.4205120000000  0.4363880000000 1.0
C      1  0.5632050000000  0.4758660000000  0.4692060000000 1.0
C      1  0.4774930000000  0.4632630000000  0.5141150000000 1.0
C      1  0.5037000000000  0.5047040000000  0.5302000000000 1.0
C      1  0.4975690000000  0.5739840000000  0.4525650000000 1.0
C      1  0.5189330000000  0.5232840000000  0.5951250000000 1.0
C      1  0.5033580000000  0.4014250000000  0.4784910000000 1.0
C      1  0.4781930000000  0.4017580000000  0.4930400000000 1.0
C      1  0.5122560000000  0.5701510000000  0.5709560000000 1.0
C      1  0.4742360000000  0.5461970000000  0.4127040000000 1.0
C      1  0.5503990000000  0.4636050000000  0.5588940000000 1.0
C      1  0.4549480000000  0.4651810000000  0.5809120000000 1.0
C      1  0.4959930000000  0.4087630000000  0.5475070000000 1.0
C      1  0.4922020000000  0.4583970000000  0.4680430000000 1.0
C      1  0.4689680000000  0.5123980000000  0.5879940000000 1.0
C      1  0.5816230000000  0.5628140000000  0.5222730000000 1.0
C      1  0.5898760000000  0.4617240000000  0.5246740000000 1.0
C      1  0.4555480000000  0.5404940000000  0.5309840000000 1.0
C      1  0.5399150000000  0.5161870000000  0.4558710000000 1.0
C      1  0.5075700000000  0.5320380000000  0.4440520000000 1.0
C      1  0.4564790000000  0.5281570000000  0.4338930000000 1.0
C      1  0.5601530000000  0.5807540000000  0.5124670000000 1.0
C      1  0.4604660000000  0.5497760000000  0.4921730000000 1.0
C      1  0.4404280000000  0.4778120000000  0.5046290000000 1.0
C      1  0.4425650000000  0.5250880000000  0.4891530000000 1.0
C      1  0.5050320000000  0.4174600000000  0.4550620000000 1.0
C      1  0.4526230000000  0.5734140000000  0.4696300000000 1.0
C      1  0.4243950000000  0.4886070000000  0.5235030000000 1.0
C      1  0.6033570000000  0.5145190000000  0.4924650000000 1.0
C      1  0.4093230000000  0.5044140000000  0.4622080000000 1.0
C      1  0.4387530000000  0.5491780000000  0.4511610000000 1.0
C      1  0.5442650000000  0.4514510000000  0.4549930000000 1.0
C      1  0.4942220000000  0.5888480000000  0.5192230000000 1.0
C      1  0.4424320000000  0.4230260000000  0.5218590000000 1.0
C      1  0.5252460000000  0.5131290000000  0.4963060000000 1.0
C      1  0.5714780000000  0.5322490000000  0.5286120000000 1.0
C      1  0.4617930000000  0.4608920000000  0.4136460000000 1.0
C      1  0.5309580000000  0.5461960000000  0.5646790000000 1.0
C      1  0.4369300000000  0.4474240000000  0.5017830000000 1.0
C      1  0.5087450000000  0.4725680000000  0.5886080000000 1.0
C      1  0.5414540000000  0.4603940000000  0.4259830000000 1.0
C      1  0.5146640000000  0.4569010000000  0.4164510000000 1.0
C      1  0.4864650000000  0.6014700000000  0.4919920000000 1.0
C      1  0.5261910000000  0.4387150000000  0.5190350000000 1.0
C      1  0.4559580000000  0.4877150000000  0.4043890000000 1.0
C      1  0.4923910000000  0.4703220000000  0.5495510000000 1.0
C      1  0.5197820000000  0.5187990000000  0.4085100000000 1.0
C      1  0.4792150000000  0.5196680000000  0.4551580000000 1.0
C      1  0.5150450000000  0.4438100000000  0.4617290000000 1.0
C      1  0.4526530000000  0.4862580000000  0.4597490000000 1.0
C      1  0.5307970000000  0.4968090000000  0.5482670000000 1.0
C      1  0.4562740000000  0.4396410000000  0.4394860000000 1.0
C      1  0.5594270000000  0.4254930000000  0.4610770000000 1.0
C      1  0.5708620000000  0.4479240000000  0.5373230000000 1.0
C      1  0.4629370000000  0.4820020000000  0.5371440000000 1.0
C      1  0.4211950000000  0.5023200000000  0.5703630000000 1.0
C      1  0.5707280000000  0.5202010000000  0.5801540000000 1.0
C      1  0.5990310000000  0.4849160000000  0.5018390000000 1.0
C      1  0.5248280000000  0.5662840000000  0.4335680000000 1.0
C      1  0.5548020000000  0.5501470000000  0.4331730000000 1.0
C      1  0.4609140000000  0.5999430000000  0.4822320000000 1.0
C      1  0.4025730000000  0.4842920000000  0.4831110000000 1.0
C      1  0.4721230000000  0.5148230000000  0.3996480000000 1.0
C      1  0.5251800000000  0.5280760000000  0.5416880000000 1.0
C      1  0.5000130000000  0.5476960000000  0.5896540000000 1.0
C      1  0.5554080000000  0.4847810000000  0.4228270000000 1.0
C      1  0.4650470000000  0.5578300000000  0.5577960000000 1.0
C      1  0.4881250000000  0.4965060000000  0.4785160000000 1.0
C      1  0.5171610000000  0.5938880000000  0.5493470000000 1.0
C      1  0.4403400000000  0.5056260000000  0.4220570000000 1.0
C      1  0.5987070000000  0.5355550000000  0.5112060000000 1.0
C      1  0.5270250000000  0.4004280000000  0.4968080000000 1.0
C      1  0.4331830000000  0.5583150000000  0.5479460000000 1.0
C      1  0.4735860000000  0.5399940000000  0.5813250000000 1.0
C      1  0.4827720000000  0.5048820000000  0.5110510000000 1.0
C      1  0.5286690000000  0.5918110000000  0.5193740000000 1.0
C      1  0.5065600000000  0.5470670000000  0.4144040000000 1.0
C      1  0.5650390000000  0.4865080000000  0.5020080000000 1.0
C      1  0.4409110000000  0.4384830000000  0.4636070000000 1.0
C      1  0.5707690000000  0.5312110000000  0.4355070000000 1.0
C      1  0.4759320000000  0.4249570000000  0.5599500000000 1.0
C      1  0.4533080000000  0.4200280000000  0.4896050000000 1.0
C      1  0.4177510000000  0.4590780000000  0.4776700000000 1.0
C      1  0.5385690000000  0.5089400000000  0.4277200000000 1.0
C      1  0.5435840000000  0.5320900000000  0.5177760000000 1.0
C      1  0.5093790000000  0.5298380000000  0.4789240000000 1.0
C      1  0.5620510000000  0.4897410000000  0.5721600000000 1.0
C      1  0.5136880000000  0.4842200000000  0.4974590000000 1.0
C      1  0.4800080000000  0.4521400000000  0.5699510000000 1.0
C      1  0.5289070000000  0.5518190000000  0.4635480000000 1.0
C      1  0.4207670000000  0.5303900000000  0.4698390000000 1.0
C      1  0.5547910000000  0.5121510000000  0.4850700000000 1.0
C      1  0.4569950000000  0.5117330000000  0.5248470000000 1.0
C      1  0.4670120000000  0.5660130000000  0.4395410000000 1.0
C      1  0.4288790000000  0.4918000000000  0.4440840000000 1.0
C      1  0.4797660000000  0.5580650000000  0.5169810000000 1.0
C      1  0.5171830000000  0.3977420000000  0.5244100000000 1.0
C      1  0.4405490000000  0.4685120000000  0.5539190000000 1.0
C      1  0.4841440000000  0.5490890000000  0.4712500000000 1.0
C      1  0.4493090000000  0.4964060000000  0.4864990000000 1.0
C      1  0.4505840000000  0.4209200000000  0.5470710000000 1.0
C      1  0.4874240000000  0.4421290000000  0.4148880000000 1.0
C      1  0.4866630000000  0.5782180000000  0.5508180000000 1.0
C      1  0.5090550000000  0.5526510000000  0.5117750000000 1.0
C      1  0.5735150000000  0.5105260000000  0.5481780000000 1.0
C      1  0.5352770000000  0.4269520000000  0.5641600000000 1.0
C      1  0.4962770000000  0.4802240000000  0.4224650000000 1.0
C      1  0.5678170000000  0.5417620000000  0.4739570000000 1.0
C      1  0.3842270000000  0.5748880000000  0.5544300000000 1.0
C      1  0.4742240000000  0.4540090000000  0.4891050000000 1.0
C      1  0.4066240000000  0.5004970000000  0.5456970000000 1.0
C      1  0.4088570000000  0.5665500000000  0.5511680000000 1.0
C      1  0.4822910000000  0.4804270000000  0.4488750000000 1.0
C      1  0.5485820000000  0.5360490000000  0.5872450000000 1.0
C      1  0.4850150000000  0.3948620000000  0.5203510000000 1.0
C      1  0.4155090000000  0.4587450000000  0.5485410000000 1.0
C      1  0.4942890000000  0.4998360000000  0.5956030000000 1.0
C      1  0.5091590000000  0.4642240000000  0.5211220000000 1.0
C      1  0.5326820000000  0.5924690000000  0.4864610000000 1.0
C      1  0.5521010000000  0.4102850000000  0.4880780000000 1.0
C      1  0.5070690000000  0.5948790000000  0.4734530000000 1.0
C      1  0.5898970000000  0.5201640000000  0.4681280000000 1.0
C      1  0.5348860000000  0.5542460000000  0.4969480000000 1.0
C      1  0.5794230000000  0.4305140000000  0.4853750000000 1.0
C      1  0.5865600000000  0.4579710000000  0.4852280000000 1.0
C      1  0.5255280000000  0.4524300000000  0.5762830000000 1.0
C      1  0.3953010000000  0.4950260000000  0.5134610000000 1.0
C      1  0.5588920000000  0.5718760000000  0.4803760000000 1.0
C      1  0.4465480000000  0.4953170000000  0.5829080000000 1.0
C      1  0.5459790000000  0.4301620000000  0.5375640000000 1.0
C      1  0.5303350000000  0.4953740000000  0.5798590000000 1.0
C      1  0.5570610000000  0.4851570000000  0.5327930000000 1.0
C      1  0.5746350000000  0.4991430000000  0.4470990000000 1.0
END
