TITL C-2778437-8639-48 0.00583152933861373 125000 -1152.37579016497 0 0 200 (C1) n - 1
REM
REM in /home/nfs/bkarasulu/CARBON/AIRSS/Generating-Clusters/REBO/Only-C1/SD-CG/HFTN-CG
REM
REM
REM
REM
REM
REM ./C.cell (11c1c37f851c82e70ff6c80c92926a4b)
REM
REM compiler GCC version 9.2.1 20190827 (Red Hat 9.2.1-1)
REM options -cpp -mtune=generic -march=x86-64 -g -O0 -fpre-include=/usr/include/finclude/math-vector-fortran.h
REM seed -422467069 -1580060237 -1284807278 -1288344279 -886225205 -1745458942 1437307181 1227109437 -669123087 -929200796 -2044728905 1004365991 -191281077 610831472 -372105746 -1710846742 -1322468531 1891738372 -1750119963 -1253396690 -84622812 243522620 -464994425 907125147 -1124366507 -344654454 -1296887598 -988982130 -1399177624 912039658 1517431037 -1683014841 1389380210
REM
CELL 1.54180   50.00000   50.00000   50.00000   90.00000   90.00000   90.00000
LATT -1
SFAC C  
C      1  0.4936470000000  0.5442750000000  0.5615010000000 1.0
C      1  0.5456070000000  0.5281670000000  0.4695230000000 1.0
C      1  0.4591920000000  0.5504440000000  0.4519200000000 1.0
C      1  0.5161250000000  0.5193780000000  0.3923780000000 1.0
C      1  0.5270270000000  0.3979920000000  0.5494130000000 1.0
C      1  0.5548280000000  0.5117650000000  0.5551440000000 1.0
C      1  0.5339170000000  0.5341190000000  0.4395600000000 1.0
C      1  0.5013280000000  0.5417730000000  0.3977730000000 1.0
C      1  0.4221980000000  0.5501940000000  0.4367840000000 1.0
C      1  0.4801880000000  0.4685440000000  0.6010230000000 1.0
C      1  0.5410130000000  0.5697570000000  0.5181820000000 1.0
C      1  0.5519130000000  0.4688910000000  0.4369350000000 1.0
C      1  0.4186940000000  0.4256960000000  0.4898700000000 1.0
C      1  0.5691950000000  0.5550130000000  0.5650230000000 1.0
C      1  0.5112850000000  0.4780280000000  0.4337790000000 1.0
C      1  0.4036260000000  0.4520910000000  0.5022750000000 1.0
C      1  0.4589930000000  0.4420830000000  0.5310310000000 1.0
C      1  0.4917700000000  0.4296030000000  0.4375220000000 1.0
C      1  0.4774460000000  0.3858130000000  0.5297950000000 1.0
C      1  0.4228760000000  0.5107620000000  0.4329190000000 1.0
C      1  0.5242570000000  0.5154400000000  0.5696050000000 1.0
C      1  0.4448800000000  0.5395240000000  0.4956600000000 1.0
C      1  0.4447400000000  0.4180720000000  0.5024070000000 1.0
C      1  0.4656710000000  0.5011550000000  0.4372300000000 1.0
C      1  0.4498820000000  0.5296350000000  0.4261100000000 1.0
C      1  0.4889520000000  0.3979840000000  0.4781780000000 1.0
C      1  0.5622830000000  0.5785920000000  0.4438040000000 1.0
C      1  0.5953280000000  0.5367430000000  0.4401560000000 1.0
C      1  0.5142300000000  0.4320910000000  0.5091600000000 1.0
C      1  0.4992720000000  0.4796530000000  0.5040010000000 1.0
C      1  0.5466300000000  0.5443890000000  0.5338050000000 1.0
C      1  0.4849730000000  0.5635230000000  0.5057860000000 1.0
C      1  0.4549970000000  0.4171950000000  0.5538880000000 1.0
C      1  0.4736110000000  0.5387900000000  0.3954690000000 1.0
C      1  0.5882900000000  0.5079560000000  0.4379200000000 1.0
C      1  0.3955740000000  0.4687320000000  0.4730150000000 1.0
C      1  0.5517550000000  0.4733380000000  0.5203440000000 1.0
C      1  0.5170260000000  0.4814970000000  0.5670110000000 1.0
C      1  0.4180060000000  0.4249340000000  0.4608150000000 1.0
C      1  0.6044930000000  0.5132880000000  0.4811810000000 1.0
C      1  0.4449930000000  0.5554950000000  0.5718790000000 1.0
C      1  0.5400880000000  0.4486560000000  0.5604330000000 1.0
C      1  0.5665580000000  0.5200010000000  0.6013950000000 1.0
C      1  0.4585270000000  0.4860980000000  0.4834340000000 1.0
C      1  0.5113990000000  0.4025670000000  0.5023280000000 1.0
C      1  0.4609760000000  0.4178690000000  0.4333300000000 1.0
C      1  0.5569160000000  0.5125190000000  0.4038130000000 1.0
C      1  0.5945170000000  0.5100790000000  0.5514940000000 1.0
C      1  0.5783030000000  0.5685380000000  0.5348280000000 1.0
C      1  0.4790630000000  0.4007930000000  0.5667080000000 1.0
C      1  0.6041590000000  0.4827230000000  0.5529660000000 1.0
C      1  0.5370820000000  0.5286040000000  0.6121140000000 1.0
C      1  0.4317170000000  0.4509350000000  0.5223990000000 1.0
C      1  0.5490710000000  0.4689650000000  0.5867770000000 1.0
C      1  0.5901980000000  0.4396820000000  0.5715260000000 1.0
C      1  0.4642330000000  0.5327280000000  0.5881720000000 1.0
C      1  0.4930770000000  0.5800680000000  0.5785030000000 1.0
C      1  0.5657250000000  0.5050250000000  0.5235440000000 1.0
C      1  0.4511490000000  0.4465250000000  0.4665080000000 1.0
C      1  0.5261890000000  0.5202170000000  0.5286720000000 1.0
C      1  0.3780760000000  0.5404410000000  0.5052420000000 1.0
C      1  0.4144510000000  0.4548310000000  0.5476360000000 1.0
C      1  0.3991310000000  0.5258690000000  0.4430490000000 1.0
C      1  0.4883510000000  0.4912340000000  0.3868750000000 1.0
C      1  0.5452080000000  0.4959000000000  0.6072180000000 1.0
C      1  0.5746250000000  0.4156000000000  0.5297510000000 1.0
C      1  0.5211500000000  0.4500560000000  0.4205820000000 1.0
C      1  0.5428710000000  0.4817040000000  0.4097310000000 1.0
C      1  0.4920920000000  0.5121830000000  0.5682310000000 1.0
C      1  0.5800310000000  0.4990530000000  0.4947650000000 1.0
C      1  0.5834880000000  0.4719050000000  0.5111130000000 1.0
C      1  0.5207130000000  0.4163060000000  0.4247940000000 1.0
C      1  0.4376560000000  0.5524540000000  0.5209130000000 1.0
C      1  0.4175140000000  0.4796090000000  0.4341520000000 1.0
C      1  0.5336970000000  0.4893860000000  0.5410130000000 1.0
C      1  0.5333170000000  0.6037870000000  0.5189120000000 1.0
C      1  0.5505060000000  0.5997430000000  0.4678180000000 1.0
C      1  0.5579500000000  0.6015980000000  0.5009120000000 1.0
C      1  0.4233420000000  0.4732720000000  0.5734580000000 1.0
C      1  0.5791780000000  0.5344190000000  0.5330840000000 1.0
C      1  0.4981350000000  0.5948030000000  0.5482250000000 1.0
C      1  0.5195930000000  0.5037440000000  0.4137390000000 1.0
C      1  0.5159500000000  0.4859820000000  0.6006490000000 1.0
C      1  0.5357960000000  0.4404350000000  0.5991460000000 1.0
C      1  0.5657120000000  0.4440640000000  0.4851830000000 1.0
C      1  0.4516670000000  0.4761670000000  0.3979270000000 1.0
C      1  0.5074120000000  0.4079390000000  0.5717820000000 1.0
C      1  0.4931680000000  0.4481580000000  0.4947610000000 1.0
C      1  0.5828000000000  0.4574870000000  0.4391450000000 1.0
C      1  0.5666540000000  0.3965000000000  0.4807970000000 1.0
C      1  0.4843450000000  0.4837240000000  0.4190820000000 1.0
C      1  0.4737080000000  0.4014960000000  0.4592680000000 1.0
C      1  0.5220320000000  0.6021060000000  0.4839540000000 1.0
C      1  0.4705190000000  0.5662980000000  0.5570360000000 1.0
C      1  0.5428740000000  0.3759420000000  0.5573900000000 1.0
C      1  0.4609100000000  0.5221240000000  0.5566600000000 1.0
C      1  0.5449560000000  0.4353140000000  0.4396510000000 1.0
C      1  0.4867410000000  0.5610580000000  0.4421670000000 1.0
C      1  0.4966850000000  0.4585480000000  0.5765330000000 1.0
C      1  0.4871770000000  0.6117900000000  0.5009640000000 1.0
C      1  0.5633200000000  0.4328270000000  0.5802340000000 1.0
C      1  0.5112940000000  0.5519620000000  0.4248960000000 1.0
C      1  0.5131150000000  0.5749020000000  0.5008570000000 1.0
C      1  0.5446670000000  0.4436870000000  0.5119590000000 1.0
C      1  0.4070930000000  0.5571900000000  0.4665100000000 1.0
C      1  0.4551880000000  0.4844620000000  0.5685750000000 1.0
C      1  0.5422280000000  0.5647280000000  0.4852340000000 1.0
C      1  0.4606410000000  0.5596490000000  0.4114440000000 1.0
C      1  0.5143950000000  0.4917930000000  0.4792920000000 1.0
C      1  0.4731510000000  0.4543380000000  0.4438000000000 1.0
C      1  0.4805100000000  0.4862660000000  0.5519470000000 1.0
C      1  0.5096390000000  0.5934360000000  0.4469950000000 1.0
C      1  0.4463070000000  0.5989040000000  0.4559410000000 1.0
C      1  0.4267280000000  0.5029950000000  0.5225840000000 1.0
C      1  0.4305670000000  0.4293150000000  0.4370770000000 1.0
C      1  0.4609830000000  0.6069510000000  0.4853640000000 1.0
C      1  0.5753740000000  0.4688030000000  0.4692860000000 1.0
C      1  0.5984900000000  0.4917120000000  0.4600530000000 1.0
C      1  0.5453820000000  0.4225130000000  0.5390150000000 1.0
C      1  0.5972050000000  0.5386640000000  0.4696890000000 1.0
C      1  0.5338220000000  0.4707820000000  0.4656940000000 1.0
C      1  0.4830790000000  0.5293400000000  0.5334870000000 1.0
C      1  0.5558080000000  0.5084250000000  0.4364910000000 1.0
C      1  0.4518180000000  0.4498070000000  0.4199100000000 1.0
C      1  0.5604810000000  0.4994040000000  0.4689560000000 1.0
C      1  0.5091010000000  0.5324500000000  0.6108550000000 1.0
C      1  0.4294790000000  0.5124660000000  0.4909770000000 1.0
C      1  0.4652380000000  0.4996530000000  0.5980830000000 1.0
C      1  0.4760450000000  0.6018530000000  0.4467600000000 1.0
C      1  0.4223580000000  0.4715330000000  0.4048260000000 1.0
C      1  0.3995480000000  0.4827830000000  0.5506170000000 1.0
C      1  0.4811390000000  0.4591730000000  0.3949540000000 1.0
C      1  0.5102430000000  0.4335400000000  0.5821060000000 1.0
C      1  0.4267590000000  0.4651630000000  0.4727770000000 1.0
C      1  0.5157840000000  0.5900300000000  0.4150700000000 1.0
C      1  0.5123380000000  0.4442940000000  0.5411670000000 1.0
C      1  0.4981350000000  0.5008700000000  0.5270140000000 1.0
C      1  0.5774870000000  0.5799600000000  0.4743310000000 1.0
C      1  0.4153930000000  0.5118960000000  0.5784260000000 1.0
C      1  0.4316000000000  0.4937120000000  0.5995060000000 1.0
C      1  0.3890460000000  0.5250450000000  0.5265730000000 1.0
C      1  0.5032450000000  0.6064520000000  0.5237010000000 1.0
C      1  0.4950520000000  0.5008960000000  0.4532830000000 1.0
C      1  0.5139910000000  0.4694780000000  0.3948710000000 1.0
C      1  0.4862200000000  0.4252710000000  0.5427850000000 1.0
C      1  0.4923680000000  0.5537700000000  0.4740110000000 1.0
C      1  0.4008760000000  0.5076500000000  0.4794380000000 1.0
C      1  0.4824650000000  0.5843600000000  0.4193070000000 1.0
C      1  0.4962260000000  0.5068000000000  0.6092280000000 1.0
C      1  0.5800810000000  0.5824720000000  0.5082530000000 1.0
C      1  0.5040620000000  0.5365740000000  0.5100550000000 1.0
C      1  0.4483330000000  0.5604890000000  0.4762910000000 1.0
C      1  0.5215630000000  0.5224860000000  0.4865970000000 1.0
C      1  0.5227970000000  0.5774000000000  0.5639760000000 1.0
C      1  0.4642460000000  0.5153210000000  0.4885640000000 1.0
C      1  0.5044850000000  0.3899810000000  0.5282950000000 1.0
C      1  0.5361980000000  0.5461040000000  0.5651510000000 1.0
C      1  0.5255970000000  0.4004170000000  0.4548910000000 1.0
C      1  0.5272090000000  0.4457450000000  0.4739510000000 1.0
C      1  0.4256620000000  0.5808330000000  0.4506150000000 1.0
C      1  0.5587090000000  0.5427800000000  0.4056520000000 1.0
C      1  0.5771740000000  0.5183350000000  0.5759520000000 1.0
C      1  0.5843440000000  0.4290090000000  0.4401640000000 1.0
C      1  0.5615790000000  0.4213230000000  0.4629240000000 1.0
C      1  0.5983960000000  0.4675730000000  0.5780110000000 1.0
C      1  0.4550740000000  0.3976190000000  0.5190600000000 1.0
C      1  0.4858560000000  0.4631700000000  0.5309920000000 1.0
C      1  0.4355970000000  0.4757340000000  0.5041300000000 1.0
C      1  0.4651780000000  0.5713710000000  0.5273940000000 1.0
C      1  0.4615160000000  0.5091320000000  0.3983030000000 1.0
C      1  0.4895520000000  0.5228570000000  0.4755950000000 1.0
C      1  0.5529290000000  0.5806850000000  0.5544940000000 1.0
C      1  0.4215900000000  0.5709200000000  0.5523800000000 1.0
C      1  0.5786650000000  0.4791380000000  0.5946790000000 1.0
C      1  0.5774060000000  0.5546830000000  0.4268600000000 1.0
C      1  0.5197020000000  0.5685710000000  0.4625570000000 1.0
C      1  0.5947750000000  0.4361520000000  0.5431370000000 1.0
C      1  0.5732960000000  0.3948900000000  0.5047890000000 1.0
C      1  0.4966060000000  0.6152560000000  0.4691900000000 1.0
C      1  0.4178690000000  0.5391940000000  0.5642680000000 1.0
C      1  0.4454740000000  0.4839340000000  0.4520960000000 1.0
C      1  0.5858980000000  0.4328120000000  0.5043300000000 1.0
C      1  0.4828210000000  0.4690680000000  0.4705460000000 1.0
C      1  0.5273740000000  0.3868850000000  0.4785670000000 1.0
C      1  0.3910790000000  0.4839890000000  0.5023560000000 1.0
C      1  0.4173920000000  0.5347060000000  0.5337020000000 1.0
C      1  0.6004030000000  0.4626080000000  0.5314470000000 1.0
C      1  0.5406750000000  0.5680520000000  0.4197980000000 1.0
C      1  0.4432370000000  0.5836310000000  0.4925910000000 1.0
C      1  0.3878380000000  0.4966890000000  0.5292370000000 1.0
C      1  0.5117730000000  0.4264570000000  0.4618590000000 1.0
C      1  0.4640280000000  0.4351520000000  0.4898550000000 1.0
C      1  0.4354610000000  0.5048850000000  0.5525950000000 1.0
C      1  0.3922320000000  0.5382840000000  0.4804130000000 1.0
C      1  0.5688390000000  0.5487290000000  0.4776320000000 1.0
C      1  0.4914140000000  0.5507170000000  0.5948610000000 1.0
C      1  0.4279130000000  0.5844700000000  0.5230400000000 1.0
C      1  0.3920310000000  0.4932910000000  0.4508860000000 1.0
C      1  0.5098900000000  0.4573070000000  0.6139060000000 1.0
C      1  0.4569220000000  0.6021310000000  0.5251300000000 1.0
END
