TITL C-2778434-4341-172 0.00107171711609302 125000 -520.056744402252 0 0 90 (C1) n - 1
REM
REM in /home/nfs/bkarasulu/CARBON/AIRSS/Generating-Clusters/REBO/Only-C1/SD-CG/HFTN-CG
REM
REM
REM
REM
REM
REM ./C.cell (11c1c37f851c82e70ff6c80c92926a4b)
REM
REM compiler GCC version 9.2.1 20190827 (Red Hat 9.2.1-1)
REM options -cpp -mtune=generic -march=x86-64 -g -O0 -fpre-include=/usr/include/finclude/math-vector-fortran.h
REM seed -1617885328 482136181 -118702366 988511061 543748455 1627984396 -1305733140 -834752067 -1319284585 -1190551513 -1287770273 2051612590 1386806386 -1324211810 -232978746 -1062115181 -644575061 79245911 798887136 -1293708066 657419302 1242686742 647072760 1414694899 -477690832 -1360820296 1850112339 1089727403 -2010766059 361262991 552439983 501346944 1206206772
REM
CELL 1.54180   50.00000   50.00000   50.00000   90.00000   90.00000   90.00000
LATT -1
SFAC C  
C      1  0.4352800000000  0.4560340000000  0.5313170000000 1.0
C      1  0.4645820000000  0.4893770000000  0.4807210000000 1.0
C      1  0.5359050000000  0.4196210000000  0.4655750000000 1.0
C      1  0.4446410000000  0.4642860000000  0.5816660000000 1.0
C      1  0.4697060000000  0.5427820000000  0.4796440000000 1.0
C      1  0.4892680000000  0.4501030000000  0.4462920000000 1.0
C      1  0.5152840000000  0.5666220000000  0.4585170000000 1.0
C      1  0.4492460000000  0.5067260000000  0.5537200000000 1.0
C      1  0.5269670000000  0.5712660000000  0.5326280000000 1.0
C      1  0.4442970000000  0.4421970000000  0.4762750000000 1.0
C      1  0.5088370000000  0.5057840000000  0.4987080000000 1.0
C      1  0.4745730000000  0.4603320000000  0.4949030000000 1.0
C      1  0.4380860000000  0.4862730000000  0.4509310000000 1.0
C      1  0.5188510000000  0.4328490000000  0.4873560000000 1.0
C      1  0.4739960000000  0.4289170000000  0.4684320000000 1.0
C      1  0.4476380000000  0.6037630000000  0.4721620000000 1.0
C      1  0.5585160000000  0.4293920000000  0.4598430000000 1.0
C      1  0.4765950000000  0.5104050000000  0.5016600000000 1.0
C      1  0.5540510000000  0.5262170000000  0.5578390000000 1.0
C      1  0.5147330000000  0.4859350000000  0.4743740000000 1.0
C      1  0.4961930000000  0.5361580000000  0.4759920000000 1.0
C      1  0.5279460000000  0.5478540000000  0.4413510000000 1.0
C      1  0.5668000000000  0.5463240000000  0.5259280000000 1.0
C      1  0.5446600000000  0.4792590000000  0.4777830000000 1.0
C      1  0.5150880000000  0.5269370000000  0.4254130000000 1.0
C      1  0.5032770000000  0.4636020000000  0.4228610000000 1.0
C      1  0.4326890000000  0.5208990000000  0.5286880000000 1.0
C      1  0.5562140000000  0.5408500000000  0.4464410000000 1.0
C      1  0.4863660000000  0.5171060000000  0.4329160000000 1.0
C      1  0.4844400000000  0.5786710000000  0.5010680000000 1.0
C      1  0.5658270000000  0.4463640000000  0.5397510000000 1.0
C      1  0.4616920000000  0.4646360000000  0.4574300000000 1.0
C      1  0.5528560000000  0.5483840000000  0.4975840000000 1.0
C      1  0.5143950000000  0.4434520000000  0.5355810000000 1.0
C      1  0.4674660000000  0.5607260000000  0.5535480000000 1.0
C      1  0.4897550000000  0.4231530000000  0.4920960000000 1.0
C      1  0.5512970000000  0.5029210000000  0.4569440000000 1.0
C      1  0.4897350000000  0.4810830000000  0.5828470000000 1.0
C      1  0.5117350000000  0.5766090000000  0.4846660000000 1.0
C      1  0.5010220000000  0.5567200000000  0.5176070000000 1.0
C      1  0.5611210000000  0.4814090000000  0.4327860000000 1.0
C      1  0.5305910000000  0.5056640000000  0.5631170000000 1.0
C      1  0.5001440000000  0.4877450000000  0.5240100000000 1.0
C      1  0.4728160000000  0.5311840000000  0.5499850000000 1.0
C      1  0.5688570000000  0.4517460000000  0.4766410000000 1.0
C      1  0.5289960000000  0.4754090000000  0.4228000000000 1.0
C      1  0.5757810000000  0.5189630000000  0.5340400000000 1.0
C      1  0.4826620000000  0.5135620000000  0.5745910000000 1.0
C      1  0.4507510000000  0.5187770000000  0.4701170000000 1.0
C      1  0.4915530000000  0.5274670000000  0.5271520000000 1.0
C      1  0.4244430000000  0.5154700000000  0.4874670000000 1.0
C      1  0.4329080000000  0.4871620000000  0.5304610000000 1.0
C      1  0.5462260000000  0.4926480000000  0.5286910000000 1.0
C      1  0.4286290000000  0.5515890000000  0.5164360000000 1.0
C      1  0.5020410000000  0.4552840000000  0.5643340000000 1.0
C      1  0.4280730000000  0.4715010000000  0.4774550000000 1.0
C      1  0.4542420000000  0.5329560000000  0.5072870000000 1.0
C      1  0.4778120000000  0.4368670000000  0.5482680000000 1.0
C      1  0.4453390000000  0.4411380000000  0.5582970000000 1.0
C      1  0.5280190000000  0.4772510000000  0.5643960000000 1.0
C      1  0.4987750000000  0.4605140000000  0.5154490000000 1.0
C      1  0.4656740000000  0.4678240000000  0.5540140000000 1.0
C      1  0.5754100000000  0.5046110000000  0.4809850000000 1.0
C      1  0.5658010000000  0.5359290000000  0.4736450000000 1.0
C      1  0.4856720000000  0.4909840000000  0.5491420000000 1.0
C      1  0.5488230000000  0.4698400000000  0.5061230000000 1.0
C      1  0.4762650000000  0.4276110000000  0.5176240000000 1.0
C      1  0.4708220000000  0.4977700000000  0.4121130000000 1.0
C      1  0.5237660000000  0.5348570000000  0.5048270000000 1.0
C      1  0.4841850000000  0.4753990000000  0.4049910000000 1.0
C      1  0.5505430000000  0.4665200000000  0.5489230000000 1.0
C      1  0.4664430000000  0.5767090000000  0.5301030000000 1.0
C      1  0.4533030000000  0.5112240000000  0.4379810000000 1.0
C      1  0.5631070000000  0.5152050000000  0.4271000000000 1.0
C      1  0.4378960000000  0.5784510000000  0.5171600000000 1.0
C      1  0.5680840000000  0.4423950000000  0.5076410000000 1.0
C      1  0.5470110000000  0.5566710000000  0.5469570000000 1.0
C      1  0.4494010000000  0.4434970000000  0.5081810000000 1.0
C      1  0.5329040000000  0.5057930000000  0.4188390000000 1.0
C      1  0.5015870000000  0.5137500000000  0.4604470000000 1.0
C      1  0.4231210000000  0.4900430000000  0.4984960000000 1.0
C      1  0.5341420000000  0.4409250000000  0.5119050000000 1.0
C      1  0.4552260000000  0.5891540000000  0.4940700000000 1.0
C      1  0.5336630000000  0.5735170000000  0.5022250000000 1.0
C      1  0.4574190000000  0.4931740000000  0.5834040000000 1.0
C      1  0.5237210000000  0.5177050000000  0.5335340000000 1.0
C      1  0.5790690000000  0.4768650000000  0.4614430000000 1.0
C      1  0.4619310000000  0.5706090000000  0.5787820000000 1.0
C      1  0.5004600000000  0.4579750000000  0.4756250000000 1.0
C      1  0.5742670000000  0.5000940000000  0.5108860000000 1.0
END
