TITL C-2778432-5617-874 -0.00637630706279565 125000 -1070.982954126 0 0 185 (C1) n - 1
REM
REM in /home/nfs/bkarasulu/CARBON/AIRSS/Generating-Clusters/REBO/Only-C1/SD-CG/HFTN-CG
REM
REM
REM
REM
REM
REM ./C.cell (11c1c37f851c82e70ff6c80c92926a4b)
REM
REM compiler GCC version 9.2.1 20190827 (Red Hat 9.2.1-1)
REM options -cpp -mtune=generic -march=x86-64 -g -O0 -fpre-include=/usr/include/finclude/math-vector-fortran.h
REM seed -696142344 -1392290039 -1142992225 2134071211 490581661 -567573189 1605961183 -56560930 -1853524570 10893075 -491242549 -1802175328 388513611 514019160 850829468 -740633395 52804052 798346417 359417414 -1538344625 -1292201376 719605683 -52816730 -2040180038 -1934304209 -2101814086 561865689 1228138163 -2145625507 1764427405 -1614903842 1976292604 -604539290
REM
CELL 1.54180   50.00000   50.00000   50.00000   90.00000   90.00000   90.00000
LATT -1
SFAC C  
C      1  0.5436920000000  0.6052130000000  0.5376210000000 1.0
C      1  0.5515300000000  0.4121480000000  0.5616430000000 1.0
C      1  0.5157690000000  0.5662460000000  0.4024080000000 1.0
C      1  0.4946270000000  0.5516110000000  0.4207910000000 1.0
C      1  0.3898490000000  0.5178520000000  0.5293120000000 1.0
C      1  0.4963920000000  0.5902600000000  0.4521640000000 1.0
C      1  0.6025300000000  0.5354790000000  0.4914850000000 1.0
C      1  0.4564710000000  0.4096470000000  0.5042080000000 1.0
C      1  0.4371860000000  0.5159640000000  0.5828790000000 1.0
C      1  0.5296100000000  0.3982030000000  0.5012570000000 1.0
C      1  0.5342620000000  0.5526610000000  0.4567610000000 1.0
C      1  0.4420040000000  0.5204770000000  0.4031560000000 1.0
C      1  0.4282730000000  0.5114220000000  0.5382200000000 1.0
C      1  0.4440820000000  0.5832190000000  0.4489210000000 1.0
C      1  0.4627140000000  0.5199070000000  0.6051580000000 1.0
C      1  0.4660590000000  0.5023050000000  0.5700880000000 1.0
C      1  0.5075440000000  0.5257160000000  0.5424240000000 1.0
C      1  0.3966900000000  0.5309770000000  0.4596830000000 1.0
C      1  0.5363010000000  0.5735660000000  0.4218570000000 1.0
C      1  0.4543570000000  0.4476050000000  0.5880240000000 1.0
C      1  0.4548710000000  0.4560820000000  0.4281430000000 1.0
C      1  0.4615540000000  0.4795770000000  0.5488450000000 1.0
C      1  0.5635630000000  0.5835770000000  0.5209960000000 1.0
C      1  0.5098340000000  0.4874940000000  0.5772840000000 1.0
C      1  0.4054620000000  0.4950920000000  0.4355600000000 1.0
C      1  0.5893780000000  0.5653470000000  0.4689920000000 1.0
C      1  0.4479220000000  0.4311050000000  0.5504390000000 1.0
C      1  0.4491490000000  0.5654140000000  0.5694470000000 1.0
C      1  0.5902470000000  0.5323070000000  0.4618070000000 1.0
C      1  0.5655850000000  0.4888860000000  0.5081100000000 1.0
C      1  0.5900650000000  0.5304870000000  0.5516080000000 1.0
C      1  0.5323540000000  0.4091510000000  0.4546000000000 1.0
C      1  0.4832700000000  0.3891580000000  0.5087320000000 1.0
C      1  0.5355520000000  0.5171230000000  0.6175300000000 1.0
C      1  0.4478840000000  0.5828250000000  0.5211260000000 1.0
C      1  0.4616600000000  0.5539210000000  0.5178630000000 1.0
C      1  0.3904780000000  0.4885670000000  0.5303180000000 1.0
C      1  0.5585430000000  0.4569760000000  0.5098210000000 1.0
C      1  0.5631830000000  0.4270160000000  0.4835460000000 1.0
C      1  0.5769340000000  0.4767910000000  0.4451240000000 1.0
C      1  0.4502100000000  0.5372290000000  0.5410950000000 1.0
C      1  0.5360420000000  0.4965770000000  0.3817230000000 1.0
C      1  0.5598110000000  0.4091330000000  0.5102080000000 1.0
C      1  0.5267380000000  0.5269840000000  0.5077910000000 1.0
C      1  0.5126070000000  0.5008880000000  0.4622280000000 1.0
C      1  0.5528370000000  0.5482630000000  0.4284590000000 1.0
C      1  0.5028930000000  0.4190130000000  0.5789230000000 1.0
C      1  0.5121470000000  0.5232920000000  0.4291620000000 1.0
C      1  0.5218840000000  0.5438380000000  0.3838560000000 1.0
C      1  0.5268250000000  0.6117640000000  0.5024850000000 1.0
C      1  0.4946670000000  0.5825900000000  0.4840720000000 1.0
C      1  0.3877100000000  0.4864900000000  0.4610610000000 1.0
C      1  0.4907310000000  0.4327770000000  0.5401850000000 1.0
C      1  0.4160390000000  0.5258660000000  0.4251550000000 1.0
C      1  0.5577200000000  0.5309150000000  0.5191400000000 1.0
C      1  0.4843580000000  0.4288300000000  0.5092140000000 1.0
C      1  0.5165580000000  0.3992230000000  0.4760090000000 1.0
C      1  0.4244570000000  0.4669270000000  0.4329960000000 1.0
C      1  0.4822220000000  0.4931880000000  0.5964290000000 1.0
C      1  0.5165150000000  0.4808150000000  0.3994140000000 1.0
C      1  0.5368540000000  0.4557230000000  0.5447360000000 1.0
C      1  0.4873780000000  0.5696390000000  0.5232700000000 1.0
C      1  0.5670100000000  0.4477440000000  0.5481810000000 1.0
C      1  0.5253940000000  0.4934170000000  0.5149340000000 1.0
C      1  0.5475840000000  0.4845920000000  0.5365760000000 1.0
C      1  0.4881990000000  0.4598760000000  0.5584430000000 1.0
C      1  0.4339620000000  0.5321120000000  0.4995290000000 1.0
C      1  0.5801080000000  0.5510820000000  0.5051380000000 1.0
C      1  0.4821370000000  0.4772220000000  0.4726900000000 1.0
C      1  0.4416170000000  0.5014200000000  0.4584280000000 1.0
C      1  0.5389940000000  0.5510880000000  0.5799540000000 1.0
C      1  0.5597960000000  0.5262820000000  0.4122610000000 1.0
C      1  0.4663890000000  0.5439440000000  0.4085430000000 1.0
C      1  0.6116000000000  0.4777060000000  0.4966370000000 1.0
C      1  0.5105000000000  0.3926620000000  0.5288810000000 1.0
C      1  0.4793690000000  0.4358600000000  0.4519960000000 1.0
C      1  0.5218630000000  0.5841900000000  0.4958940000000 1.0
C      1  0.5082880000000  0.4834390000000  0.5433840000000 1.0
C      1  0.5275180000000  0.4533480000000  0.4495330000000 1.0
C      1  0.4695570000000  0.4216580000000  0.5719970000000 1.0
C      1  0.5379070000000  0.5147450000000  0.4448200000000 1.0
C      1  0.5154520000000  0.4448850000000  0.5967860000000 1.0
C      1  0.4711210000000  0.4828200000000  0.4226040000000 1.0
C      1  0.4215940000000  0.4782440000000  0.5348160000000 1.0
C      1  0.4115100000000  0.5761310000000  0.4859490000000 1.0
C      1  0.5489350000000  0.4975800000000  0.6004910000000 1.0
C      1  0.6122870000000  0.5142360000000  0.5337030000000 1.0
C      1  0.5628500000000  0.4641030000000  0.5844350000000 1.0
C      1  0.5420720000000  0.5792270000000  0.4731930000000 1.0
C      1  0.4178610000000  0.5754070000000  0.4580320000000 1.0
C      1  0.3940220000000  0.4611330000000  0.5063980000000 1.0
C      1  0.5567610000000  0.4736570000000  0.4111850000000 1.0
C      1  0.5829490000000  0.5598060000000  0.5358980000000 1.0
C      1  0.5788180000000  0.4342960000000  0.5204860000000 1.0
C      1  0.4656950000000  0.4104290000000  0.4655780000000 1.0
C      1  0.4915990000000  0.5925580000000  0.5590540000000 1.0
C      1  0.4686360000000  0.4677510000000  0.6114120000000 1.0
C      1  0.4064370000000  0.5534690000000  0.4430450000000 1.0
C      1  0.5151000000000  0.4485140000000  0.5253120000000 1.0
C      1  0.4524820000000  0.5644480000000  0.4299730000000 1.0
C      1  0.6014950000000  0.4591320000000  0.5137560000000 1.0
C      1  0.4677820000000  0.4418870000000  0.4838590000000 1.0
C      1  0.5153850000000  0.6054670000000  0.5402660000000 1.0
C      1  0.4426010000000  0.5363600000000  0.4396030000000 1.0
C      1  0.4379120000000  0.4652900000000  0.5688940000000 1.0
C      1  0.5488480000000  0.5188530000000  0.5739060000000 1.0
C      1  0.4890750000000  0.4898490000000  0.4986930000000 1.0
C      1  0.5731760000000  0.4470700000000  0.4578130000000 1.0
C      1  0.5030150000000  0.5577080000000  0.4514080000000 1.0
C      1  0.5390170000000  0.4512240000000  0.4816970000000 1.0
C      1  0.5911520000000  0.4961460000000  0.5522910000000 1.0
C      1  0.5082750000000  0.5183660000000  0.5740840000000 1.0
C      1  0.4671500000000  0.5943860000000  0.4988370000000 1.0
C      1  0.4151200000000  0.5141800000000  0.4693170000000 1.0
C      1  0.5887320000000  0.4684400000000  0.5391590000000 1.0
C      1  0.4590690000000  0.4533360000000  0.5280510000000 1.0
C      1  0.4838090000000  0.4401220000000  0.4209600000000 1.0
C      1  0.4279900000000  0.4917140000000  0.4099770000000 1.0
C      1  0.5731360000000  0.4950930000000  0.5768100000000 1.0
C      1  0.5958550000000  0.5048120000000  0.4466080000000 1.0
C      1  0.4655920000000  0.5946920000000  0.4650620000000 1.0
C      1  0.4109220000000  0.5402650000000  0.5351300000000 1.0
C      1  0.5487710000000  0.4858560000000  0.4564920000000 1.0
C      1  0.4387950000000  0.4473880000000  0.4571920000000 1.0
C      1  0.4636030000000  0.5098890000000  0.4374430000000 1.0
C      1  0.4932830000000  0.4566160000000  0.3932280000000 1.0
C      1  0.5312310000000  0.4349800000000  0.5693130000000 1.0
C      1  0.4806700000000  0.5572300000000  0.5739320000000 1.0
C      1  0.4882990000000  0.4687810000000  0.5200310000000 1.0
C      1  0.4339790000000  0.4199750000000  0.5230460000000 1.0
C      1  0.4663060000000  0.5238990000000  0.5072980000000 1.0
C      1  0.6180540000000  0.5212180000000  0.5084440000000 1.0
C      1  0.4201680000000  0.4901190000000  0.5809690000000 1.0
C      1  0.4154090000000  0.4375100000000  0.5015530000000 1.0
C      1  0.4442840000000  0.4521890000000  0.5018970000000 1.0
C      1  0.4931340000000  0.5996000000000  0.5200080000000 1.0
C      1  0.5756120000000  0.4668900000000  0.4835350000000 1.0
C      1  0.4999540000000  0.5556820000000  0.5466560000000 1.0
C      1  0.5534970000000  0.4235270000000  0.4451730000000 1.0
C      1  0.3938740000000  0.4845000000000  0.4879700000000 1.0
C      1  0.5112940000000  0.4384970000000  0.4944670000000 1.0
C      1  0.5744100000000  0.5005170000000  0.4204970000000 1.0
C      1  0.4161050000000  0.5048650000000  0.4994240000000 1.0
C      1  0.5676930000000  0.5521830000000  0.5637760000000 1.0
C      1  0.5198910000000  0.5737870000000  0.5644370000000 1.0
C      1  0.5680630000000  0.5765850000000  0.4879680000000 1.0
C      1  0.4189510000000  0.4474320000000  0.5493370000000 1.0
C      1  0.5398120000000  0.5163950000000  0.5441800000000 1.0
C      1  0.4513930000000  0.4757250000000  0.4705840000000 1.0
C      1  0.5425220000000  0.4475250000000  0.4070300000000 1.0
C      1  0.5572790000000  0.5309660000000  0.4641880000000 1.0
C      1  0.4636180000000  0.5854030000000  0.5512330000000 1.0
C      1  0.3995770000000  0.4736250000000  0.5597890000000 1.0
C      1  0.4530920000000  0.4989270000000  0.5219120000000 1.0
C      1  0.5048960000000  0.5214490000000  0.3968680000000 1.0
C      1  0.5286540000000  0.4776270000000  0.4292430000000 1.0
C      1  0.4915430000000  0.4031860000000  0.5529930000000 1.0
C      1  0.4730600000000  0.5167260000000  0.3900140000000 1.0
C      1  0.5677490000000  0.5160190000000  0.4905690000000 1.0
C      1  0.4882700000000  0.5356100000000  0.5951780000000 1.0
C      1  0.4936700000000  0.4819510000000  0.4432670000000 1.0
C      1  0.5282700000000  0.5899000000000  0.4444050000000 1.0
C      1  0.5320740000000  0.4708310000000  0.5931820000000 1.0
C      1  0.5442280000000  0.5658610000000  0.5432550000000 1.0
C      1  0.4354750000000  0.4209730000000  0.4787350000000 1.0
C      1  0.4882350000000  0.3946670000000  0.4795300000000 1.0
C      1  0.4883460000000  0.5205970000000  0.4506450000000 1.0
C      1  0.5019890000000  0.4512710000000  0.4669200000000 1.0
C      1  0.4231000000000  0.5613100000000  0.5116280000000 1.0
C      1  0.5439440000000  0.5231880000000  0.3885050000000 1.0
C      1  0.5164140000000  0.4402600000000  0.4103450000000 1.0
C      1  0.5430410000000  0.3988590000000  0.5374170000000 1.0
C      1  0.4731650000000  0.5291570000000  0.5587130000000 1.0
C      1  0.4874350000000  0.4544670000000  0.5880210000000 1.0
C      1  0.4954450000000  0.5186950000000  0.5111910000000 1.0
C      1  0.4276270000000  0.5411240000000  0.5649860000000 1.0
C      1  0.4835320000000  0.4878240000000  0.3949710000000 1.0
C      1  0.4809250000000  0.5432740000000  0.4713290000000 1.0
C      1  0.5703440000000  0.4347410000000  0.5769100000000 1.0
C      1  0.5206290000000  0.5349190000000  0.6010910000000 1.0
C      1  0.4393930000000  0.4825180000000  0.4994170000000 1.0
C      1  0.5302080000000  0.5594960000000  0.5146930000000 1.0
C      1  0.5303710000000  0.4841760000000  0.4852260000000 1.0
C      1  0.5910840000000  0.4958970000000  0.4782290000000 1.0
C      1  0.4505460000000  0.5323440000000  0.4716110000000 1.0
END
