TITL C-2778425-5191-341 -0.00196733924707268 125000 -953.250749858331 0 0 162 (C1) n - 1
REM
REM in /home/nfs/bkarasulu/CARBON/AIRSS/Generating-Clusters/REBO/Only-C1/SD-CG/HFTN-CG
REM
REM
REM
REM
REM
REM ./C.cell (11c1c37f851c82e70ff6c80c92926a4b)
REM
REM compiler GCC version 9.2.1 20190827 (Red Hat 9.2.1-1)
REM options -cpp -mtune=generic -march=x86-64 -g -O0 -fpre-include=/usr/include/finclude/math-vector-fortran.h
REM seed -1596391459 -1577516758 1879164448 1213581800 1459698928 -395030459 -1031168709 -1529345130 -839327470 -466642871 2046448581 1920345631 474707943 151007588 -2035258035 -1839052102 -1294290272 542864691 1112548458 -2019229711 -1223955438 223250250 -1882296088 -1831802598 -1382708719 -1886436804 1431274010 -2098301155 -799386652 -234303281 1479044865 -535666605 210146703
REM
CELL 1.54180   50.00000   50.00000   50.00000   90.00000   90.00000   90.00000
LATT -1
SFAC C  
C      1  0.5385860000000  0.4350940000000  0.4554780000000 1.0
C      1  0.4679920000000  0.4802320000000  0.5045600000000 1.0
C      1  0.4319730000000  0.5701040000000  0.4308250000000 1.0
C      1  0.5759990000000  0.3811130000000  0.5081770000000 1.0
C      1  0.5256170000000  0.4308550000000  0.4290720000000 1.0
C      1  0.4997770000000  0.3989760000000  0.4803390000000 1.0
C      1  0.5326480000000  0.5251140000000  0.4471060000000 1.0
C      1  0.5116430000000  0.5308930000000  0.5275380000000 1.0
C      1  0.4690570000000  0.5142570000000  0.3895690000000 1.0
C      1  0.4824560000000  0.5946750000000  0.5440720000000 1.0
C      1  0.5745170000000  0.5550370000000  0.4648530000000 1.0
C      1  0.4179830000000  0.5060630000000  0.5158440000000 1.0
C      1  0.5691050000000  0.5169280000000  0.5089680000000 1.0
C      1  0.4734330000000  0.5219580000000  0.5738180000000 1.0
C      1  0.4803700000000  0.5164300000000  0.4647990000000 1.0
C      1  0.5720630000000  0.4541660000000  0.5753570000000 1.0
C      1  0.5248690000000  0.5411740000000  0.3932610000000 1.0
C      1  0.4861670000000  0.4439360000000  0.5270990000000 1.0
C      1  0.5344000000000  0.4061860000000  0.5653540000000 1.0
C      1  0.5630260000000  0.5760680000000  0.5111280000000 1.0
C      1  0.5113750000000  0.5943500000000  0.5450670000000 1.0
C      1  0.5766230000000  0.5013740000000  0.4802860000000 1.0
C      1  0.4239510000000  0.4319000000000  0.5147290000000 1.0
C      1  0.5724470000000  0.6088750000000  0.5468990000000 1.0
C      1  0.5621470000000  0.3738710000000  0.5318560000000 1.0
C      1  0.4693010000000  0.5215630000000  0.5305630000000 1.0
C      1  0.4906590000000  0.4727210000000  0.5916110000000 1.0
C      1  0.4454480000000  0.5227240000000  0.4927010000000 1.0
C      1  0.4949870000000  0.5959800000000  0.4430980000000 1.0
C      1  0.5522570000000  0.4966040000000  0.5388890000000 1.0
C      1  0.4602170000000  0.4344680000000  0.5304030000000 1.0
C      1  0.5294490000000  0.5196140000000  0.5850330000000 1.0
C      1  0.4597220000000  0.4381290000000  0.4300260000000 1.0
C      1  0.4660380000000  0.4233190000000  0.5738430000000 1.0
C      1  0.5608300000000  0.4769670000000  0.4763620000000 1.0
C      1  0.5353220000000  0.4692640000000  0.5152080000000 1.0
C      1  0.4669660000000  0.5061400000000  0.4285880000000 1.0
C      1  0.4918670000000  0.5656970000000  0.4293000000000 1.0
C      1  0.4885530000000  0.5646620000000  0.5822420000000 1.0
C      1  0.5423970000000  0.5784490000000  0.4397580000000 1.0
C      1  0.5368310000000  0.4097120000000  0.4709470000000 1.0
C      1  0.5187180000000  0.5840450000000  0.4217700000000 1.0
C      1  0.5190980000000  0.5501040000000  0.5762620000000 1.0
C      1  0.5122340000000  0.4274960000000  0.5337100000000 1.0
C      1  0.4104580000000  0.5342360000000  0.4598830000000 1.0
C      1  0.5612990000000  0.5733920000000  0.4831780000000 1.0
C      1  0.5857330000000  0.4912040000000  0.5363350000000 1.0
C      1  0.5605150000000  0.5180320000000  0.5835860000000 1.0
C      1  0.5550830000000  0.5501690000000  0.4406290000000 1.0
C      1  0.4176840000000  0.4482630000000  0.4664540000000 1.0
C      1  0.5648160000000  0.5825280000000  0.5413340000000 1.0
C      1  0.5097690000000  0.4995730000000  0.6012710000000 1.0
C      1  0.4538720000000  0.5017870000000  0.5453890000000 1.0
C      1  0.4365940000000  0.4811540000000  0.5096750000000 1.0
C      1  0.6031050000000  0.4536510000000  0.4989120000000 1.0
C      1  0.4697030000000  0.5478040000000  0.5169860000000 1.0
C      1  0.5839450000000  0.5086730000000  0.4479590000000 1.0
C      1  0.5100900000000  0.4079040000000  0.4490280000000 1.0
C      1  0.4221010000000  0.4876190000000  0.4349260000000 1.0
C      1  0.4891870000000  0.4044970000000  0.5292790000000 1.0
C      1  0.5170790000000  0.4333850000000  0.5644160000000 1.0
C      1  0.5018530000000  0.5291080000000  0.5578900000000 1.0
C      1  0.4434670000000  0.4056310000000  0.5373140000000 1.0
C      1  0.5516030000000  0.3970590000000  0.5461140000000 1.0
C      1  0.4613550000000  0.5611470000000  0.4149670000000 1.0
C      1  0.5942030000000  0.5407710000000  0.5500020000000 1.0
C      1  0.4696570000000  0.4598240000000  0.5598630000000 1.0
C      1  0.4436860000000  0.4157300000000  0.4988730000000 1.0
C      1  0.5784710000000  0.4375780000000  0.4553630000000 1.0
C      1  0.5818960000000  0.4330100000000  0.4852050000000 1.0
C      1  0.4131640000000  0.5442920000000  0.4319560000000 1.0
C      1  0.3967850000000  0.4994530000000  0.5393000000000 1.0
C      1  0.5138420000000  0.4847630000000  0.4974250000000 1.0
C      1  0.4806850000000  0.5095790000000  0.6028450000000 1.0
C      1  0.4064870000000  0.4760400000000  0.4552280000000 1.0
C      1  0.4064750000000  0.5502280000000  0.4845190000000 1.0
C      1  0.3956880000000  0.4758990000000  0.4849600000000 1.0
C      1  0.4398700000000  0.4445830000000  0.5679760000000 1.0
C      1  0.5639300000000  0.4535530000000  0.5062660000000 1.0
C      1  0.4569250000000  0.5271990000000  0.4487570000000 1.0
C      1  0.4185340000000  0.4565430000000  0.4984690000000 1.0
C      1  0.4950750000000  0.5084740000000  0.5118290000000 1.0
C      1  0.5166550000000  0.6059500000000  0.5005410000000 1.0
C      1  0.4711590000000  0.5988430000000  0.5170920000000 1.0
C      1  0.5250370000000  0.5899680000000  0.5693430000000 1.0
C      1  0.5281690000000  0.4945200000000  0.4614120000000 1.0
C      1  0.5568480000000  0.4668590000000  0.5487310000000 1.0
C      1  0.5393520000000  0.4884420000000  0.4109370000000 1.0
C      1  0.4874630000000  0.4320350000000  0.4402830000000 1.0
C      1  0.5129530000000  0.5412840000000  0.4790320000000 1.0
C      1  0.4719530000000  0.4893750000000  0.5696670000000 1.0
C      1  0.5028410000000  0.4579390000000  0.4795690000000 1.0
C      1  0.4914710000000  0.4428230000000  0.5788790000000 1.0
C      1  0.4459240000000  0.5347090000000  0.5708100000000 1.0
C      1  0.5036710000000  0.5423260000000  0.4460400000000 1.0
C      1  0.5156140000000  0.4991690000000  0.5620570000000 1.0
C      1  0.4327720000000  0.4183050000000  0.4728600000000 1.0
C      1  0.5994540000000  0.5226490000000  0.4946850000000 1.0
C      1  0.5108910000000  0.4749580000000  0.4060130000000 1.0
C      1  0.5764980000000  0.4086480000000  0.5040840000000 1.0
C      1  0.4517230000000  0.5341000000000  0.4005200000000 1.0
C      1  0.4525800000000  0.5768700000000  0.5129280000000 1.0
C      1  0.4339590000000  0.5192970000000  0.4663450000000 1.0
C      1  0.4339930000000  0.5594700000000  0.5298260000000 1.0
C      1  0.5458340000000  0.5675440000000  0.5654040000000 1.0
C      1  0.4751910000000  0.4121540000000  0.4992520000000 1.0
C      1  0.5904840000000  0.4715490000000  0.5181160000000 1.0
C      1  0.4387080000000  0.4317030000000  0.4458040000000 1.0
C      1  0.5255370000000  0.5149530000000  0.4868760000000 1.0
C      1  0.5684500000000  0.4630880000000  0.4498860000000 1.0
C      1  0.5862880000000  0.4186400000000  0.4369420000000 1.0
C      1  0.5365890000000  0.4365950000000  0.5186990000000 1.0
C      1  0.4983460000000  0.5149470000000  0.4293170000000 1.0
C      1  0.5767970000000  0.5580260000000  0.5599640000000 1.0
C      1  0.5463670000000  0.4642530000000  0.5872180000000 1.0
C      1  0.5218100000000  0.5851440000000  0.5196880000000 1.0
C      1  0.5217770000000  0.4662360000000  0.5674820000000 1.0
C      1  0.4643430000000  0.4855400000000  0.6100650000000 1.0
C      1  0.5729210000000  0.5088970000000  0.5614130000000 1.0
C      1  0.5143820000000  0.4793460000000  0.5368990000000 1.0
C      1  0.5618910000000  0.4204530000000  0.5285680000000 1.0
C      1  0.5299330000000  0.3943330000000  0.4951700000000 1.0
C      1  0.4729810000000  0.5174840000000  0.4913090000000 1.0
C      1  0.4914800000000  0.4977480000000  0.3940230000000 1.0
C      1  0.4569070000000  0.4610080000000  0.4138170000000 1.0
C      1  0.5329890000000  0.4622800000000  0.4683630000000 1.0
C      1  0.4836460000000  0.5650720000000  0.4910680000000 1.0
C      1  0.5938480000000  0.5340950000000  0.4659670000000 1.0
C      1  0.4791540000000  0.4792240000000  0.4784200000000 1.0
C      1  0.4480800000000  0.4865080000000  0.4225250000000 1.0
C      1  0.4873140000000  0.4715010000000  0.5245430000000 1.0
C      1  0.4886750000000  0.6079290000000  0.4942790000000 1.0
C      1  0.4345130000000  0.4779790000000  0.5618040000000 1.0
C      1  0.4467920000000  0.4638270000000  0.5340680000000 1.0
C      1  0.4236890000000  0.4292140000000  0.5452690000000 1.0
C      1  0.4702070000000  0.4027240000000  0.5522790000000 1.0
C      1  0.3889110000000  0.4940430000000  0.5066440000000 1.0
C      1  0.4319230000000  0.5834040000000  0.4614820000000 1.0
C      1  0.4245330000000  0.5282580000000  0.4098540000000 1.0
C      1  0.4898910000000  0.4308970000000  0.4743130000000 1.0
C      1  0.4465990000000  0.5586420000000  0.5559460000000 1.0
C      1  0.5081280000000  0.5853260000000  0.5916120000000 1.0
C      1  0.5125920000000  0.5749130000000  0.4757850000000 1.0
C      1  0.5190000000000  0.5137900000000  0.4051700000000 1.0
C      1  0.5952000000000  0.5285820000000  0.5267130000000 1.0
C      1  0.5064050000000  0.4511640000000  0.4193930000000 1.0
C      1  0.5381100000000  0.5841650000000  0.4679450000000 1.0
C      1  0.4211510000000  0.5217130000000  0.5753280000000 1.0
C      1  0.4110560000000  0.4976500000000  0.5637510000000 1.0
C      1  0.5225840000000  0.5656120000000  0.3962640000000 1.0
C      1  0.4977640000000  0.4925490000000  0.4534300000000 1.0
C      1  0.5595590000000  0.5196870000000  0.4291070000000 1.0
C      1  0.5105110000000  0.5565290000000  0.5103570000000 1.0
C      1  0.5751050000000  0.4409080000000  0.5459390000000 1.0
C      1  0.4615970000000  0.5755410000000  0.4713840000000 1.0
C      1  0.4113280000000  0.5778040000000  0.4788510000000 1.0
C      1  0.4815890000000  0.5989350000000  0.4680740000000 1.0
C      1  0.4701830000000  0.5745940000000  0.5616690000000 1.0
C      1  0.4227650000000  0.5374830000000  0.5109630000000 1.0
C      1  0.4574430000000  0.5565450000000  0.4470530000000 1.0
C      1  0.5390160000000  0.5146650000000  0.5175430000000 1.0
C      1  0.5663460000000  0.4864500000000  0.4285550000000 1.0
END
