TITL C-2778422-5617-999 0.00699400553724272 125000 -793.853399201557 0 0 135 (C1) n - 1
REM
REM in /home/nfs/bkarasulu/CARBON/AIRSS/Generating-Clusters/REBO/Only-C1/SD-CG/HFTN-CG
REM
REM
REM
REM
REM
REM ./C.cell (11c1c37f851c82e70ff6c80c92926a4b)
REM
REM compiler GCC version 9.2.1 20190827 (Red Hat 9.2.1-1)
REM options -cpp -mtune=generic -march=x86-64 -g -O0 -fpre-include=/usr/include/finclude/math-vector-fortran.h
REM seed 234140333 -88620251 1355646378 -1472142873 -1505082449 -111283271 802806452 -1320469630 -1983101517 280299605 -1708935857 -1406994145 1986298253 -885898796 438284155 957766472 1531820929 -39938286 -7942689 1072917729 1590011372 -282494708 1852277625 1083433301 -341789979 -1241573805 420360325 -114068443 509436887 -1602360006 -288972167 -729901589 1071491179
REM
CELL 1.54180   50.00000   50.00000   50.00000   90.00000   90.00000   90.00000
LATT -1
SFAC C  
C      1  0.5226780000000  0.5765350000000  0.4553360000000 1.0
C      1  0.4743520000000  0.4203830000000  0.4423170000000 1.0
C      1  0.4945170000000  0.5897760000000  0.5323320000000 1.0
C      1  0.4227000000000  0.4426820000000  0.5428320000000 1.0
C      1  0.5574570000000  0.4832470000000  0.5410790000000 1.0
C      1  0.5045040000000  0.5553440000000  0.4715310000000 1.0
C      1  0.4660110000000  0.5019860000000  0.4924440000000 1.0
C      1  0.4492680000000  0.4290610000000  0.5163070000000 1.0
C      1  0.4567650000000  0.4709470000000  0.4840780000000 1.0
C      1  0.4966170000000  0.5038730000000  0.4458930000000 1.0
C      1  0.4800820000000  0.4784830000000  0.5907920000000 1.0
C      1  0.5851220000000  0.4660310000000  0.4819870000000 1.0
C      1  0.5330030000000  0.4140800000000  0.4909520000000 1.0
C      1  0.5441600000000  0.5454650000000  0.5747240000000 1.0
C      1  0.5157150000000  0.5483270000000  0.5624110000000 1.0
C      1  0.4311620000000  0.4376210000000  0.4620640000000 1.0
C      1  0.5285370000000  0.4719270000000  0.5436930000000 1.0
C      1  0.5616310000000  0.4543720000000  0.4632940000000 1.0
C      1  0.5633080000000  0.5749200000000  0.4937000000000 1.0
C      1  0.5678150000000  0.5364080000000  0.5761360000000 1.0
C      1  0.4752510000000  0.5395990000000  0.4090040000000 1.0
C      1  0.5545070000000  0.5703570000000  0.4527250000000 1.0
C      1  0.5697110000000  0.5095510000000  0.4474750000000 1.0
C      1  0.4267550000000  0.4970170000000  0.5798370000000 1.0
C      1  0.4383540000000  0.5061030000000  0.4795880000000 1.0
C      1  0.4580910000000  0.4133120000000  0.5637390000000 1.0
C      1  0.4899450000000  0.4495130000000  0.4419970000000 1.0
C      1  0.5129030000000  0.5460110000000  0.5246210000000 1.0
C      1  0.5229800000000  0.5330420000000  0.4836900000000 1.0
C      1  0.5977610000000  0.4852620000000  0.5071410000000 1.0
C      1  0.5809720000000  0.5092920000000  0.5600670000000 1.0
C      1  0.4791980000000  0.4801120000000  0.5332100000000 1.0
C      1  0.4970270000000  0.6059980000000  0.4815130000000 1.0
C      1  0.5045620000000  0.5782400000000  0.5626100000000 1.0
C      1  0.4842780000000  0.4174220000000  0.4807040000000 1.0
C      1  0.4295800000000  0.4554200000000  0.4357830000000 1.0
C      1  0.5106930000000  0.4912670000000  0.5547410000000 1.0
C      1  0.4965420000000  0.5940740000000  0.4536960000000 1.0
C      1  0.4387560000000  0.5309360000000  0.4595870000000 1.0
C      1  0.4950410000000  0.5092110000000  0.5231180000000 1.0
C      1  0.4292680000000  0.5787620000000  0.5276990000000 1.0
C      1  0.5190040000000  0.4817180000000  0.4051360000000 1.0
C      1  0.5437250000000  0.4297260000000  0.5751450000000 1.0
C      1  0.4857210000000  0.4866390000000  0.4001530000000 1.0
C      1  0.4468080000000  0.5842800000000  0.5483510000000 1.0
C      1  0.4929100000000  0.5648750000000  0.5140430000000 1.0
C      1  0.5271820000000  0.4518070000000  0.5161950000000 1.0
C      1  0.5276400000000  0.4013220000000  0.5368950000000 1.0
C      1  0.4503390000000  0.5772140000000  0.4727290000000 1.0
C      1  0.4432460000000  0.5181380000000  0.4308860000000 1.0
C      1  0.5188120000000  0.5187630000000  0.4545560000000 1.0
C      1  0.5461380000000  0.4793920000000  0.4070940000000 1.0
C      1  0.4332380000000  0.5501420000000  0.4252020000000 1.0
C      1  0.4722670000000  0.5869650000000  0.5559530000000 1.0
C      1  0.4192180000000  0.4558160000000  0.4842600000000 1.0
C      1  0.5368650000000  0.4871260000000  0.5845620000000 1.0
C      1  0.4876060000000  0.4534380000000  0.4081690000000 1.0
C      1  0.4208160000000  0.4849460000000  0.4707380000000 1.0
C      1  0.3947860000000  0.4799410000000  0.4871310000000 1.0
C      1  0.4874230000000  0.5105950000000  0.5806310000000 1.0
C      1  0.4636020000000  0.4284710000000  0.5398990000000 1.0
C      1  0.6062670000000  0.5136630000000  0.5139730000000 1.0
C      1  0.5461770000000  0.4611280000000  0.5817730000000 1.0
C      1  0.3808370000000  0.5158670000000  0.5264290000000 1.0
C      1  0.5008080000000  0.5218070000000  0.5543630000000 1.0
C      1  0.5321840000000  0.5869200000000  0.5444180000000 1.0
C      1  0.5400320000000  0.5193530000000  0.4363960000000 1.0
C      1  0.5227040000000  0.6080170000000  0.4939880000000 1.0
C      1  0.4816050000000  0.5759880000000  0.4859680000000 1.0
C      1  0.5376770000000  0.5269380000000  0.5399450000000 1.0
C      1  0.4233590000000  0.5347560000000  0.4890810000000 1.0
C      1  0.4308850000000  0.5767910000000  0.4952560000000 1.0
C      1  0.5912510000000  0.5721080000000  0.4907910000000 1.0
C      1  0.4540540000000  0.4695890000000  0.4547600000000 1.0
C      1  0.5634680000000  0.5415590000000  0.4369000000000 1.0
C      1  0.4640340000000  0.4721890000000  0.4220780000000 1.0
C      1  0.5228250000000  0.4202310000000  0.5583550000000 1.0
C      1  0.5113840000000  0.4441820000000  0.5442300000000 1.0
C      1  0.4847990000000  0.4769800000000  0.5018210000000 1.0
C      1  0.5848580000000  0.4753430000000  0.5577580000000 1.0
C      1  0.5510460000000  0.5439830000000  0.4932450000000 1.0
C      1  0.5109130000000  0.4915700000000  0.5947310000000 1.0
C      1  0.4726320000000  0.5814050000000  0.4473790000000 1.0
C      1  0.4777370000000  0.4517770000000  0.5791800000000 1.0
C      1  0.5050130000000  0.4022630000000  0.4943610000000 1.0
C      1  0.5568860000000  0.4656420000000  0.4318940000000 1.0
C      1  0.4829890000000  0.4523180000000  0.5476720000000 1.0
C      1  0.5032850000000  0.4118960000000  0.4412450000000 1.0
C      1  0.5616090000000  0.5314770000000  0.5195050000000 1.0
C      1  0.3837660000000  0.5025820000000  0.4981860000000 1.0
C      1  0.5582540000000  0.4411780000000  0.5260650000000 1.0
C      1  0.4127940000000  0.4906100000000  0.5572420000000 1.0
C      1  0.4385790000000  0.4561800000000  0.5087510000000 1.0
C      1  0.4973320000000  0.4423330000000  0.4718680000000 1.0
C      1  0.6003320000000  0.5454200000000  0.4781930000000 1.0
C      1  0.3892930000000  0.5031310000000  0.5492850000000 1.0
C      1  0.5549200000000  0.4874540000000  0.4675550000000 1.0
C      1  0.5435350000000  0.5925300000000  0.4767810000000 1.0
C      1  0.5250690000000  0.4294980000000  0.4460920000000 1.0
C      1  0.5196610000000  0.5077860000000  0.5024860000000 1.0
C      1  0.5283110000000  0.4544320000000  0.4326790000000 1.0
C      1  0.4734000000000  0.5190270000000  0.4438700000000 1.0
C      1  0.4412970000000  0.4068240000000  0.5019940000000 1.0
C      1  0.4531710000000  0.4939640000000  0.5453740000000 1.0
C      1  0.4507220000000  0.5208030000000  0.5338910000000 1.0
C      1  0.5051950000000  0.3905090000000  0.5212350000000 1.0
C      1  0.4575280000000  0.4978620000000  0.5767930000000 1.0
C      1  0.4791770000000  0.5161560000000  0.3966400000000 1.0
C      1  0.4696750000000  0.5262000000000  0.5120940000000 1.0
C      1  0.5715550000000  0.5461110000000  0.4677440000000 1.0
C      1  0.5040520000000  0.4779560000000  0.4344450000000 1.0
C      1  0.5650530000000  0.4475600000000  0.5568740000000 1.0
C      1  0.4761520000000  0.5445340000000  0.4620940000000 1.0
C      1  0.5903950000000  0.4975050000000  0.4698930000000 1.0
C      1  0.5442510000000  0.4927710000000  0.4949320000000 1.0
C      1  0.4372280000000  0.4884690000000  0.4306060000000 1.0
C      1  0.5647250000000  0.4874000000000  0.5130200000000 1.0
C      1  0.4541620000000  0.4198950000000  0.4652810000000 1.0
C      1  0.6059990000000  0.5186550000000  0.4850080000000 1.0
C      1  0.4062030000000  0.5630980000000  0.5111020000000 1.0
C      1  0.5833060000000  0.4490400000000  0.5112680000000 1.0
C      1  0.5470320000000  0.5059170000000  0.5613270000000 1.0
C      1  0.6015720000000  0.4653010000000  0.5324250000000 1.0
C      1  0.5071570000000  0.4586480000000  0.4936700000000 1.0
C      1  0.4569790000000  0.5405980000000  0.4872590000000 1.0
C      1  0.3966500000000  0.5338970000000  0.5035130000000 1.0
C      1  0.4296510000000  0.4732750000000  0.5362220000000 1.0
C      1  0.4723390000000  0.5565990000000  0.4304370000000 1.0
C      1  0.5420030000000  0.4298570000000  0.4692210000000 1.0
C      1  0.4357230000000  0.5674030000000  0.4435380000000 1.0
C      1  0.4661450000000  0.4277670000000  0.5863130000000 1.0
C      1  0.5865110000000  0.5235100000000  0.5316130000000 1.0
C      1  0.5402910000000  0.5610970000000  0.5343800000000 1.0
C      1  0.5450790000000  0.4142310000000  0.5171480000000 1.0
C      1  0.5215360000000  0.6054060000000  0.5219240000000 1.0
END
