TITL C-2778425-5191-602 0.00067435733254872 125000 -569.336936112433 0 0 97 (C1) n - 1
REM
REM in /home/nfs/bkarasulu/CARBON/AIRSS/Generating-Clusters/REBO/Only-C1/SD-CG/HFTN-CG
REM
REM
REM
REM
REM
REM ./C.cell (11c1c37f851c82e70ff6c80c92926a4b)
REM
REM compiler GCC version 9.2.1 20190827 (Red Hat 9.2.1-1)
REM options -cpp -mtune=generic -march=x86-64 -g -O0 -fpre-include=/usr/include/finclude/math-vector-fortran.h
REM seed 82090285 1412945790 -1106601422 1001200246 1326533672 -1770815210 2115144653 711722849 1255162160 -1347736400 103081706 2000083616 736744059 901180330 405428378 73811687 598671565 -174717787 646203594 1593854393 2118446443 -2109054753 241354263 -771241136 -1373038896 -1901532510 1096370818 1317120025 974826127 -1923338838 1645572158 75041797 -1324668480
REM
CELL 1.54180   50.00000   50.00000   50.00000   90.00000   90.00000   90.00000
LATT -1
SFAC C  
C      1  0.5630020000000  0.5533140000000  0.4923910000000 1.0
C      1  0.5035840000000  0.5656560000000  0.5051240000000 1.0
C      1  0.4615120000000  0.4335370000000  0.4801930000000 1.0
C      1  0.4756790000000  0.5801090000000  0.4701450000000 1.0
C      1  0.5214000000000  0.4530410000000  0.5670870000000 1.0
C      1  0.4833580000000  0.4598030000000  0.4107930000000 1.0
C      1  0.4924320000000  0.4535000000000  0.5649200000000 1.0
C      1  0.4331270000000  0.5410880000000  0.5470700000000 1.0
C      1  0.5409570000000  0.5242150000000  0.5445740000000 1.0
C      1  0.5518970000000  0.5442200000000  0.4489890000000 1.0
C      1  0.4080310000000  0.4838490000000  0.4989000000000 1.0
C      1  0.4444440000000  0.4474940000000  0.5240310000000 1.0
C      1  0.4851200000000  0.5463450000000  0.4893840000000 1.0
C      1  0.5011380000000  0.5208050000000  0.5403760000000 1.0
C      1  0.4084370000000  0.5177700000000  0.5041320000000 1.0
C      1  0.5203750000000  0.5216980000000  0.4240510000000 1.0
C      1  0.5620860000000  0.4307950000000  0.5057380000000 1.0
C      1  0.4362140000000  0.5400510000000  0.4733790000000 1.0
C      1  0.5488830000000  0.5067710000000  0.4356270000000 1.0
C      1  0.4403090000000  0.5535880000000  0.5228000000000 1.0
C      1  0.4529930000000  0.5161720000000  0.4224110000000 1.0
C      1  0.4303510000000  0.4721180000000  0.4574640000000 1.0
C      1  0.5318050000000  0.5541380000000  0.5016520000000 1.0
C      1  0.5547980000000  0.5644340000000  0.5219480000000 1.0
C      1  0.4734740000000  0.5573000000000  0.4449180000000 1.0
C      1  0.5001450000000  0.5892810000000  0.5188720000000 1.0
C      1  0.5956260000000  0.5302330000000  0.5256510000000 1.0
C      1  0.4219530000000  0.4651490000000  0.4836320000000 1.0
C      1  0.4401170000000  0.5074610000000  0.4959190000000 1.0
C      1  0.5095500000000  0.4127400000000  0.5071150000000 1.0
C      1  0.5625050000000  0.4390760000000  0.5331730000000 1.0
C      1  0.5314540000000  0.4923090000000  0.5040930000000 1.0
C      1  0.4727610000000  0.4486270000000  0.4564970000000 1.0
C      1  0.5353020000000  0.4960340000000  0.5293860000000 1.0
C      1  0.5752160000000  0.4647790000000  0.5378210000000 1.0
C      1  0.4063870000000  0.4952090000000  0.5285300000000 1.0
C      1  0.5334850000000  0.5185760000000  0.4835890000000 1.0
C      1  0.5740610000000  0.4485640000000  0.4828250000000 1.0
C      1  0.5630000000000  0.4805900000000  0.5598760000000 1.0
C      1  0.5295220000000  0.5405970000000  0.4641430000000 1.0
C      1  0.5136240000000  0.4207830000000  0.5369590000000 1.0
C      1  0.5412980000000  0.4307950000000  0.5517280000000 1.0
C      1  0.4279700000000  0.5113100000000  0.4642590000000 1.0
C      1  0.4748270000000  0.5025570000000  0.4526720000000 1.0
C      1  0.4810060000000  0.4523450000000  0.5089090000000 1.0
C      1  0.4506890000000  0.5168580000000  0.5844370000000 1.0
C      1  0.4865980000000  0.5201120000000  0.4259070000000 1.0
C      1  0.4856330000000  0.5333780000000  0.6139860000000 1.0
C      1  0.6017530000000  0.5292420000000  0.4988170000000 1.0
C      1  0.4767700000000  0.4782410000000  0.5181910000000 1.0
C      1  0.4589590000000  0.5330330000000  0.4515820000000 1.0
C      1  0.4662930000000  0.5667330000000  0.5204450000000 1.0
C      1  0.4662030000000  0.5291120000000  0.4989970000000 1.0
C      1  0.5633560000000  0.5079640000000  0.5635570000000 1.0
C      1  0.5050250000000  0.4904920000000  0.4533130000000 1.0
C      1  0.4659180000000  0.4288960000000  0.5320930000000 1.0
C      1  0.4999700000000  0.5787750000000  0.4461890000000 1.0
C      1  0.5021190000000  0.5501500000000  0.4277230000000 1.0
C      1  0.4571000000000  0.5122870000000  0.5250780000000 1.0
C      1  0.4850700000000  0.4231600000000  0.4975310000000 1.0
C      1  0.5170330000000  0.5476440000000  0.5497750000000 1.0
C      1  0.5076400000000  0.4697130000000  0.4274170000000 1.0
C      1  0.5197670000000  0.4508580000000  0.4864980000000 1.0
C      1  0.4732040000000  0.5331340000000  0.5898260000000 1.0
C      1  0.5718460000000  0.5192450000000  0.4555930000000 1.0
C      1  0.4874090000000  0.4284190000000  0.5506770000000 1.0
C      1  0.5746140000000  0.5296840000000  0.5435060000000 1.0
C      1  0.5448670000000  0.5639150000000  0.5472550000000 1.0
C      1  0.5042240000000  0.4511880000000  0.4561630000000 1.0
C      1  0.4936020000000  0.5002230000000  0.5140720000000 1.0
C      1  0.5514670000000  0.4356580000000  0.4676020000000 1.0
C      1  0.5137330000000  0.5273430000000  0.5096650000000 1.0
C      1  0.5278180000000  0.4908000000000  0.4142550000000 1.0
C      1  0.4395680000000  0.4459820000000  0.4957750000000 1.0
C      1  0.5360570000000  0.4695320000000  0.5442210000000 1.0
C      1  0.4860370000000  0.5586550000000  0.5403120000000 1.0
C      1  0.4815620000000  0.5489480000000  0.5681450000000 1.0
C      1  0.5819240000000  0.5373100000000  0.4802920000000 1.0
C      1  0.4570730000000  0.4764410000000  0.4526170000000 1.0
C      1  0.5344860000000  0.4203560000000  0.4912220000000 1.0
C      1  0.5763000000000  0.4763670000000  0.4884690000000 1.0
C      1  0.5567330000000  0.4951870000000  0.4734580000000 1.0
C      1  0.5845140000000  0.4801690000000  0.5153620000000 1.0
C      1  0.4766580000000  0.4764970000000  0.5580870000000 1.0
C      1  0.5249350000000  0.4482970000000  0.5200370000000 1.0
C      1  0.4736150000000  0.5059060000000  0.5479090000000 1.0
C      1  0.4496010000000  0.4754230000000  0.5385510000000 1.0
C      1  0.5465830000000  0.4728140000000  0.4358250000000 1.0
C      1  0.4343920000000  0.5166870000000  0.5614030000000 1.0
C      1  0.4263050000000  0.5446650000000  0.4996790000000 1.0
C      1  0.4653050000000  0.4486930000000  0.4250520000000 1.0
C      1  0.5061500000000  0.5538630000000  0.4672750000000 1.0
C      1  0.4683830000000  0.5820290000000  0.4957480000000 1.0
C      1  0.4300870000000  0.5061560000000  0.4366670000000 1.0
C      1  0.5258030000000  0.4807850000000  0.4737300000000 1.0
C      1  0.5365360000000  0.4507320000000  0.4496930000000 1.0
C      1  0.4274990000000  0.4934240000000  0.5465740000000 1.0
END
