TITL C-2778431-5191-1309 -0.000518991024172637 125000 -232.647371933697 0 0 42 (C1) n - 1
REM
REM in /home/nfs/bkarasulu/CARBON/AIRSS/Generating-Clusters/REBO/Only-C1/SD-CG/HFTN-CG
REM
REM
REM
REM
REM
REM ./C.cell (11c1c37f851c82e70ff6c80c92926a4b)
REM
REM compiler GCC version 9.2.1 20190827 (Red Hat 9.2.1-1)
REM options -cpp -mtune=generic -march=x86-64 -g -O0 -fpre-include=/usr/include/finclude/math-vector-fortran.h
REM seed -1077846586 -1806004927 -91940163 -312097226 1904473427 898853309 -1593623966 1409139963 -1750175426 1197197420 -2052183724 107021370 -1707039522 -479008781 1931334859 383371001 887292831 214075885 1356649931 -944808752 -2142482973 -143227219 -484146967 844769770 -2058591821 301290952 -949330578 -380532446 475254505 -315378830 534002139 -1398173525 -211399517
REM
CELL 1.54180   50.00000   50.00000   50.00000   90.00000   90.00000   90.00000
LATT -1
SFAC C  
C      1  0.4785290000000  0.5839400000000  0.5250950000000 1.0
C      1  0.4325390000000  0.4497220000000  0.4083790000000 1.0
C      1  0.5094540000000  0.5564800000000  0.4632540000000 1.0
C      1  0.5797030000000  0.4742350000000  0.5140260000000 1.0
C      1  0.5370700000000  0.4951920000000  0.4855990000000 1.0
C      1  0.4982590000000  0.5829380000000  0.5689990000000 1.0
C      1  0.4762520000000  0.4719770000000  0.4207280000000 1.0
C      1  0.4880050000000  0.5972660000000  0.5476260000000 1.0
C      1  0.5397970000000  0.5187060000000  0.5780750000000 1.0
C      1  0.4723940000000  0.4644160000000  0.4514190000000 1.0
C      1  0.4540250000000  0.4421670000000  0.4999460000000 1.0
C      1  0.5391330000000  0.4890670000000  0.5317090000000 1.0
C      1  0.4778350000000  0.4942760000000  0.5346310000000 1.0
C      1  0.5332760000000  0.5447940000000  0.4597960000000 1.0
C      1  0.4801570000000  0.5522620000000  0.5256980000000 1.0
C      1  0.4405740000000  0.5669600000000  0.4923300000000 1.0
C      1  0.5286180000000  0.4916970000000  0.5856650000000 1.0
C      1  0.4994920000000  0.5553120000000  0.5688090000000 1.0
C      1  0.4702310000000  0.4650290000000  0.5189310000000 1.0
C      1  0.5163850000000  0.4866920000000  0.4628220000000 1.0
C      1  0.5233120000000  0.5017190000000  0.5534280000000 1.0
C      1  0.4959030000000  0.5108860000000  0.5456800000000 1.0
C      1  0.4556750000000  0.4634960000000  0.4038300000000 1.0
C      1  0.4907160000000  0.5386470000000  0.5473640000000 1.0
C      1  0.5736510000000  0.5178120000000  0.4797680000000 1.0
C      1  0.4676220000000  0.5669480000000  0.4984320000000 1.0
C      1  0.5168700000000  0.4691440000000  0.4910320000000 1.0
C      1  0.4571980000000  0.4524500000000  0.4689600000000 1.0
C      1  0.5303750000000  0.4595940000000  0.5228550000000 1.0
C      1  0.5005660000000  0.4519870000000  0.5135770000000 1.0
C      1  0.5618970000000  0.4582680000000  0.5202470000000 1.0
C      1  0.4312830000000  0.4362940000000  0.4753590000000 1.0
C      1  0.4986060000000  0.4803800000000  0.4433890000000 1.0
C      1  0.6045520000000  0.5186630000000  0.5204170000000 1.0
C      1  0.5511950000000  0.5017050000000  0.5086240000000 1.0
C      1  0.5840910000000  0.5056040000000  0.5074950000000 1.0
C      1  0.4147910000000  0.4313530000000  0.4536100000000 1.0
C      1  0.4820650000000  0.4284170000000  0.5089170000000 1.0
C      1  0.4481410000000  0.4900470000000  0.5257240000000 1.0
C      1  0.4871060000000  0.5646310000000  0.4750640000000 1.0
C      1  0.5556030000000  0.5312210000000  0.4655760000000 1.0
C      1  0.4170530000000  0.4376060000000  0.4271170000000 1.0
END
