TITL C-2778432-5617-418 -0.00263139385801719 125000 -1045.55237157349 0 0 178 (C1) n - 1
REM
REM in /home/nfs/bkarasulu/CARBON/AIRSS/Generating-Clusters/REBO/Only-C1/SD-CG/HFTN-CG
REM
REM
REM
REM
REM
REM ./C.cell (11c1c37f851c82e70ff6c80c92926a4b)
REM
REM compiler GCC version 9.2.1 20190827 (Red Hat 9.2.1-1)
REM options -cpp -mtune=generic -march=x86-64 -g -O0 -fpre-include=/usr/include/finclude/math-vector-fortran.h
REM seed 1716760207 -1219438092 -910443130 -39263048 -1463805544 -2094391623 -721044482 -1340722822 1784202450 -639553584 -1625274253 -1498085567 -493607071 -748146681 2095197767 1109109529 -130293735 -1113775903 -255214403 1638395540 1215807139 1917035958 -939699640 -1267760553 -1664435394 265784703 210965032 828507406 88518104 -1541735188 405666551 -192751935 1738443253
REM
CELL 1.54180   50.00000   50.00000   50.00000   90.00000   90.00000   90.00000
LATT -1
SFAC C  
C      1  0.4681920000000  0.4843870000000  0.6172780000000 1.0
C      1  0.4984730000000  0.5462800000000  0.5577890000000 1.0
C      1  0.4918000000000  0.6216240000000  0.4826300000000 1.0
C      1  0.5499260000000  0.5794350000000  0.5525550000000 1.0
C      1  0.4708040000000  0.5878550000000  0.4444160000000 1.0
C      1  0.5295360000000  0.4510120000000  0.3879740000000 1.0
C      1  0.6027180000000  0.4775350000000  0.4956490000000 1.0
C      1  0.5010800000000  0.5987620000000  0.4343230000000 1.0
C      1  0.5986180000000  0.5200080000000  0.5466400000000 1.0
C      1  0.4989380000000  0.4368030000000  0.4326780000000 1.0
C      1  0.5385400000000  0.5160750000000  0.4612890000000 1.0
C      1  0.4363460000000  0.5209780000000  0.4405910000000 1.0
C      1  0.4992390000000  0.5231340000000  0.4940620000000 1.0
C      1  0.5061890000000  0.4938410000000  0.4310710000000 1.0
C      1  0.4587600000000  0.4548700000000  0.4055280000000 1.0
C      1  0.5707820000000  0.5006140000000  0.5462410000000 1.0
C      1  0.4057130000000  0.4420460000000  0.4935200000000 1.0
C      1  0.4347000000000  0.4962130000000  0.5468710000000 1.0
C      1  0.5300790000000  0.5397800000000  0.4412370000000 1.0
C      1  0.5693200000000  0.5196420000000  0.4573780000000 1.0
C      1  0.5122030000000  0.6111350000000  0.5591890000000 1.0
C      1  0.4927370000000  0.5831750000000  0.4052320000000 1.0
C      1  0.4828880000000  0.5356540000000  0.4582950000000 1.0
C      1  0.5737840000000  0.5358030000000  0.5640660000000 1.0
C      1  0.4275620000000  0.4256560000000  0.4798570000000 1.0
C      1  0.4197960000000  0.5496690000000  0.4399690000000 1.0
C      1  0.4501540000000  0.5062260000000  0.5261420000000 1.0
C      1  0.4370530000000  0.5327370000000  0.5780010000000 1.0
C      1  0.4214700000000  0.4893180000000  0.5042280000000 1.0
C      1  0.4330760000000  0.4624300000000  0.4944970000000 1.0
C      1  0.4428100000000  0.4522430000000  0.4315460000000 1.0
C      1  0.4518990000000  0.5556540000000  0.5744600000000 1.0
C      1  0.4820590000000  0.4481670000000  0.5429680000000 1.0
C      1  0.5345340000000  0.4042570000000  0.5405650000000 1.0
C      1  0.5457940000000  0.4600630000000  0.5307610000000 1.0
C      1  0.5796250000000  0.5116460000000  0.5054820000000 1.0
C      1  0.4735380000000  0.4164260000000  0.4558670000000 1.0
C      1  0.5093160000000  0.5435240000000  0.5194630000000 1.0
C      1  0.5175380000000  0.5531240000000  0.4136100000000 1.0
C      1  0.5565710000000  0.4142030000000  0.4951830000000 1.0
C      1  0.4818710000000  0.4165160000000  0.5672160000000 1.0
C      1  0.5749540000000  0.4416890000000  0.4723990000000 1.0
C      1  0.4444060000000  0.4208580000000  0.5238200000000 1.0
C      1  0.5691280000000  0.5454610000000  0.4748680000000 1.0
C      1  0.4756360000000  0.5308390000000  0.3938330000000 1.0
C      1  0.5163570000000  0.4177560000000  0.5664770000000 1.0
C      1  0.5036040000000  0.4416980000000  0.3847180000000 1.0
C      1  0.4470660000000  0.4138810000000  0.4965010000000 1.0
C      1  0.5979260000000  0.4645720000000  0.5277530000000 1.0
C      1  0.5867950000000  0.4938050000000  0.4700970000000 1.0
C      1  0.5789440000000  0.4464030000000  0.5481340000000 1.0
C      1  0.4601390000000  0.5532720000000  0.5025690000000 1.0
C      1  0.4694870000000  0.4889790000000  0.5147840000000 1.0
C      1  0.5347120000000  0.4831280000000  0.5872280000000 1.0
C      1  0.4896550000000  0.5377930000000  0.5897160000000 1.0
C      1  0.5533390000000  0.5719870000000  0.4123110000000 1.0
C      1  0.4899400000000  0.4964330000000  0.4763500000000 1.0
C      1  0.5151160000000  0.5664300000000  0.5797890000000 1.0
C      1  0.4627710000000  0.4656990000000  0.5785850000000 1.0
C      1  0.6032760000000  0.4979290000000  0.5231400000000 1.0
C      1  0.5967410000000  0.4452920000000  0.4929210000000 1.0
C      1  0.4075480000000  0.5040140000000  0.4323550000000 1.0
C      1  0.4507090000000  0.5123000000000  0.5947580000000 1.0
C      1  0.5636190000000  0.4838170000000  0.4927430000000 1.0
C      1  0.5556460000000  0.5471780000000  0.4241590000000 1.0
C      1  0.4402060000000  0.5693600000000  0.4798850000000 1.0
C      1  0.5077210000000  0.4641400000000  0.4185810000000 1.0
C      1  0.5310000000000  0.4603710000000  0.4588210000000 1.0
C      1  0.5929260000000  0.4589450000000  0.4322150000000 1.0
C      1  0.5386270000000  0.5566450000000  0.5899040000000 1.0
C      1  0.4998330000000  0.5148940000000  0.3888160000000 1.0
C      1  0.3905680000000  0.4987210000000  0.4964580000000 1.0
C      1  0.4820690000000  0.4378400000000  0.4041860000000 1.0
C      1  0.4426270000000  0.5690400000000  0.4487790000000 1.0
C      1  0.4288410000000  0.5392440000000  0.4825230000000 1.0
C      1  0.5469290000000  0.5243380000000  0.5518750000000 1.0
C      1  0.5027170000000  0.4040080000000  0.4603570000000 1.0
C      1  0.5244890000000  0.4640190000000  0.5075550000000 1.0
C      1  0.5513750000000  0.5708840000000  0.5135350000000 1.0
C      1  0.5300990000000  0.6047480000000  0.5137180000000 1.0
C      1  0.5402300000000  0.5571580000000  0.4870900000000 1.0
C      1  0.4330220000000  0.5660770000000  0.5288740000000 1.0
C      1  0.4230030000000  0.4870580000000  0.4647140000000 1.0
C      1  0.5317680000000  0.4125270000000  0.4745070000000 1.0
C      1  0.5396930000000  0.5433630000000  0.5246210000000 1.0
C      1  0.3966310000000  0.4828070000000  0.5261650000000 1.0
C      1  0.4796710000000  0.5141890000000  0.6115560000000 1.0
C      1  0.5110940000000  0.4513520000000  0.5917980000000 1.0
C      1  0.4951970000000  0.4940780000000  0.5229610000000 1.0
C      1  0.4329490000000  0.4629120000000  0.5852080000000 1.0
C      1  0.5991110000000  0.5524970000000  0.5413470000000 1.0
C      1  0.4039080000000  0.4558680000000  0.5427390000000 1.0
C      1  0.4505740000000  0.4492290000000  0.5383290000000 1.0
C      1  0.4335120000000  0.4817650000000  0.4346650000000 1.0
C      1  0.5549770000000  0.5056440000000  0.5916990000000 1.0
C      1  0.5463460000000  0.4606280000000  0.4089180000000 1.0
C      1  0.4413210000000  0.5873620000000  0.5082380000000 1.0
C      1  0.4646560000000  0.4430250000000  0.4522120000000 1.0
C      1  0.4401620000000  0.5339890000000  0.5200740000000 1.0
C      1  0.5391330000000  0.4409670000000  0.5778670000000 1.0
C      1  0.5098690000000  0.5476710000000  0.4628870000000 1.0
C      1  0.3975460000000  0.5484710000000  0.4590460000000 1.0
C      1  0.4987030000000  0.4986700000000  0.5800110000000 1.0
C      1  0.4835460000000  0.5537930000000  0.4112140000000 1.0
C      1  0.5179380000000  0.4326020000000  0.5354720000000 1.0
C      1  0.5574720000000  0.4280660000000  0.5324580000000 1.0
C      1  0.4080420000000  0.5325240000000  0.5085110000000 1.0
C      1  0.4188310000000  0.4299130000000  0.5528520000000 1.0
C      1  0.5244090000000  0.5264340000000  0.3978230000000 1.0
C      1  0.5471630000000  0.4436060000000  0.4340600000000 1.0
C      1  0.4690850000000  0.6001750000000  0.4729200000000 1.0
C      1  0.5307560000000  0.5263980000000  0.4895370000000 1.0
C      1  0.5837710000000  0.4893030000000  0.4362890000000 1.0
C      1  0.5469950000000  0.5130040000000  0.5137030000000 1.0
C      1  0.5155890000000  0.5738010000000  0.4782490000000 1.0
C      1  0.5024500000000  0.4467120000000  0.4644230000000 1.0
C      1  0.4853120000000  0.4619530000000  0.6113700000000 1.0
C      1  0.5742960000000  0.5664920000000  0.5584880000000 1.0
C      1  0.4629220000000  0.4636300000000  0.4989470000000 1.0
C      1  0.5741840000000  0.5202830000000  0.4252650000000 1.0
C      1  0.4824700000000  0.4148600000000  0.5339090000000 1.0
C      1  0.5473700000000  0.5128720000000  0.4054600000000 1.0
C      1  0.5124060000000  0.6035390000000  0.4619640000000 1.0
C      1  0.5105170000000  0.4752970000000  0.4911900000000 1.0
C      1  0.5121800000000  0.4891950000000  0.6059410000000 1.0
C      1  0.4771730000000  0.4661910000000  0.4713770000000 1.0
C      1  0.5808020000000  0.4252130000000  0.5083420000000 1.0
C      1  0.5055810000000  0.3961880000000  0.5245320000000 1.0
C      1  0.4843520000000  0.5063270000000  0.4466830000000 1.0
C      1  0.4707500000000  0.5778640000000  0.5230160000000 1.0
C      1  0.4660180000000  0.5764130000000  0.5544090000000 1.0
C      1  0.4714840000000  0.4923780000000  0.5783020000000 1.0
C      1  0.5268760000000  0.4243670000000  0.5061990000000 1.0
C      1  0.5281360000000  0.4957650000000  0.5314530000000 1.0
C      1  0.4996150000000  0.4304480000000  0.4900860000000 1.0
C      1  0.4814080000000  0.5703700000000  0.5840990000000 1.0
C      1  0.4636080000000  0.4827490000000  0.3984700000000 1.0
C      1  0.4195830000000  0.5195240000000  0.5592970000000 1.0
C      1  0.5408620000000  0.5298100000000  0.6001490000000 1.0
C      1  0.5716580000000  0.4859680000000  0.5738330000000 1.0
C      1  0.4703370000000  0.5549880000000  0.4385090000000 1.0
C      1  0.4920360000000  0.5895910000000  0.4932900000000 1.0
C      1  0.5759460000000  0.4404810000000  0.4439020000000 1.0
C      1  0.5585610000000  0.4857900000000  0.4133930000000 1.0
C      1  0.5290940000000  0.6095650000000  0.4898470000000 1.0
C      1  0.5646200000000  0.4569170000000  0.5712060000000 1.0
C      1  0.4674730000000  0.5281030000000  0.4857380000000 1.0
C      1  0.5008430000000  0.3963160000000  0.4937440000000 1.0
C      1  0.5186160000000  0.5120000000000  0.5613230000000 1.0
C      1  0.3928790000000  0.4996190000000  0.4625410000000 1.0
C      1  0.5000060000000  0.5704800000000  0.5343140000000 1.0
C      1  0.4809100000000  0.4410650000000  0.5848450000000 1.0
C      1  0.3909130000000  0.5284000000000  0.4793050000000 1.0
C      1  0.4502110000000  0.5137540000000  0.4034070000000 1.0
C      1  0.4978820000000  0.5207030000000  0.5383430000000 1.0
C      1  0.5528950000000  0.4584430000000  0.4800230000000 1.0
C      1  0.5883030000000  0.5392970000000  0.4959620000000 1.0
C      1  0.5223860000000  0.5916990000000  0.5409060000000 1.0
C      1  0.4593730000000  0.5010630000000  0.4336080000000 1.0
C      1  0.4777500000000  0.4395970000000  0.5107250000000 1.0
C      1  0.4316080000000  0.4676350000000  0.5537020000000 1.0
C      1  0.5764790000000  0.5810710000000  0.5126270000000 1.0
C      1  0.4700420000000  0.4045430000000  0.4832660000000 1.0
C      1  0.5683520000000  0.4787080000000  0.5246010000000 1.0
C      1  0.5960100000000  0.5602380000000  0.5137300000000 1.0
C      1  0.4018990000000  0.5150220000000  0.5342300000000 1.0
C      1  0.5261750000000  0.4221970000000  0.4436550000000 1.0
C      1  0.4943080000000  0.4874290000000  0.3998040000000 1.0
C      1  0.5314040000000  0.4743980000000  0.5575160000000 1.0
C      1  0.5124480000000  0.5219900000000  0.6093860000000 1.0
C      1  0.4406750000000  0.5083570000000  0.4835840000000 1.0
C      1  0.4274780000000  0.4534490000000  0.4619620000000 1.0
C      1  0.5070130000000  0.4554590000000  0.5581820000000 1.0
C      1  0.4395070000000  0.4828820000000  0.6062090000000 1.0
C      1  0.5281460000000  0.4898990000000  0.4513050000000 1.0
C      1  0.4208250000000  0.5287570000000  0.4124620000000 1.0
C      1  0.5248600000000  0.5863430000000  0.4132320000000 1.0
C      1  0.4494810000000  0.4154930000000  0.5562720000000 1.0
END
