TITL C-2778431-5191-697 -0.000337713580982954 125000 -340.520931694947 0 0 60 (C1) n - 1
REM
REM in /home/nfs/bkarasulu/CARBON/AIRSS/Generating-Clusters/REBO/Only-C1/SD-CG/HFTN-CG
REM
REM
REM
REM
REM
REM ./C.cell (11c1c37f851c82e70ff6c80c92926a4b)
REM
REM compiler GCC version 9.2.1 20190827 (Red Hat 9.2.1-1)
REM options -cpp -mtune=generic -march=x86-64 -g -O0 -fpre-include=/usr/include/finclude/math-vector-fortran.h
REM seed 1319125528 -455720967 136092146 -1203411760 1945147212 -19478074 -1114758761 1220001750 -2006147903 -1698728401 -199424531 205816386 -747728583 -199872383 1522396403 658209518 76893921 74057235 -381966088 -1226102799 1221933849 -2138034953 -873860774 -630245293 -209170864 -2122758070 -1473939186 1203345173 1122704428 -1189640765 -43537852 -1619996503 -1797744289
REM
CELL 1.54180   50.00000   50.00000   50.00000   90.00000   90.00000   90.00000
LATT -1
SFAC C  
C      1  0.4832900000000  0.5095550000000  0.5317220000000 1.0
C      1  0.4667780000000  0.4244890000000  0.5506540000000 1.0
C      1  0.5187130000000  0.5066280000000  0.5012550000000 1.0
C      1  0.5063310000000  0.4640390000000  0.5743910000000 1.0
C      1  0.4652480000000  0.4934530000000  0.5790330000000 1.0
C      1  0.4498550000000  0.5111800000000  0.5323280000000 1.0
C      1  0.4998470000000  0.4158170000000  0.5161930000000 1.0
C      1  0.5574090000000  0.5483120000000  0.4925990000000 1.0
C      1  0.4724660000000  0.4698750000000  0.4567040000000 1.0
C      1  0.5363340000000  0.4577400000000  0.5311450000000 1.0
C      1  0.4436700000000  0.5411800000000  0.4941070000000 1.0
C      1  0.4872940000000  0.5300590000000  0.5089500000000 1.0
C      1  0.4709140000000  0.5480980000000  0.4529160000000 1.0
C      1  0.4936320000000  0.4279510000000  0.5430800000000 1.0
C      1  0.4951880000000  0.5137930000000  0.4815870000000 1.0
C      1  0.4774290000000  0.4076110000000  0.5008630000000 1.0
C      1  0.5138530000000  0.4542060000000  0.4879610000000 1.0
C      1  0.5603740000000  0.4567300000000  0.5226440000000 1.0
C      1  0.4649200000000  0.5142640000000  0.5600010000000 1.0
C      1  0.4531080000000  0.4685810000000  0.5136340000000 1.0
C      1  0.5114900000000  0.5738530000000  0.4845260000000 1.0
C      1  0.4976990000000  0.5290840000000  0.4558290000000 1.0
C      1  0.5192970000000  0.4303840000000  0.5017910000000 1.0
C      1  0.4614680000000  0.4242500000000  0.4862320000000 1.0
C      1  0.4704410000000  0.5785000000000  0.5126510000000 1.0
C      1  0.4935570000000  0.5894320000000  0.5003340000000 1.0
C      1  0.5136820000000  0.4317940000000  0.5697620000000 1.0
C      1  0.4415440000000  0.4944770000000  0.5111540000000 1.0
C      1  0.4877930000000  0.4872860000000  0.4317580000000 1.0
C      1  0.4512110000000  0.5941460000000  0.5253530000000 1.0
C      1  0.4895130000000  0.4708110000000  0.4961370000000 1.0
C      1  0.5399100000000  0.5027270000000  0.5447510000000 1.0
C      1  0.5320380000000  0.5602080000000  0.4999970000000 1.0
C      1  0.5692000000000  0.5324900000000  0.5140110000000 1.0
C      1  0.5447800000000  0.4793250000000  0.4632660000000 1.0
C      1  0.4667220000000  0.5503180000000  0.5080260000000 1.0
C      1  0.5215880000000  0.5197970000000  0.5266260000000 1.0
C      1  0.5330080000000  0.5076680000000  0.4278170000000 1.0
C      1  0.5074300000000  0.4589550000000  0.5413670000000 1.0
C      1  0.4996850000000  0.5612600000000  0.4621150000000 1.0
C      1  0.4717150000000  0.4932170000000  0.4791470000000 1.0
C      1  0.5239560000000  0.4604950000000  0.4620110000000 1.0
C      1  0.5584040000000  0.5062250000000  0.5192760000000 1.0
C      1  0.4475240000000  0.5370300000000  0.4633910000000 1.0
C      1  0.5284420000000  0.4859110000000  0.5640630000000 1.0
C      1  0.4618360000000  0.4549940000000  0.4854260000000 1.0
C      1  0.5027790000000  0.5137340000000  0.4300800000000 1.0
C      1  0.5222060000000  0.5483090000000  0.5246050000000 1.0
C      1  0.5586790000000  0.5023390000000  0.4247760000000 1.0
C      1  0.4447030000000  0.5091150000000  0.4830860000000 1.0
C      1  0.5460790000000  0.4946700000000  0.4923630000000 1.0
C      1  0.4901540000000  0.4794400000000  0.5246150000000 1.0
C      1  0.4676020000000  0.4634120000000  0.5415810000000 1.0
C      1  0.5571630000000  0.5088780000000  0.4642040000000 1.0
C      1  0.4331200000000  0.6088660000000  0.5373040000000 1.0
C      1  0.5026320000000  0.4620780000000  0.4436490000000 1.0
C      1  0.4749310000000  0.4685180000000  0.5692760000000 1.0
C      1  0.4940490000000  0.5288200000000  0.4075110000000 1.0
C      1  0.5611490000000  0.5365760000000  0.4666080000000 1.0
C      1  0.5841680000000  0.4970470000000  0.4217560000000 1.0
END
