TITL C-2778432-5617-1135 -0.233798151059958 125000 -363.622956258002 0 0 62 (C1) n - 1
REM
REM in /home/nfs/bkarasulu/CARBON/AIRSS/Generating-Clusters/REBO/Only-C1/SD-CG/HFTN-CG
REM
REM
REM
REM
REM
REM ./C.cell (11c1c37f851c82e70ff6c80c92926a4b)
REM
REM compiler GCC version 9.2.1 20190827 (Red Hat 9.2.1-1)
REM options -cpp -mtune=generic -march=x86-64 -g -O0 -fpre-include=/usr/include/finclude/math-vector-fortran.h
REM seed -799683472 -1474563443 -1819431560 605853767 -421788273 -998872050 234587718 783281741 -108362969 376095755 -113136074 140871692 372637809 -1024332967 -437134013 -1369220392 447519983 -1864391409 1907581118 912889080 -2119407891 -1997015910 399291358 -2125654863 -1312460456 1439188411 1681660304 -1511791823 -201837767 774402404 574922820 804743101 1457077910
REM
CELL 1.54180   50.00000   50.00000   50.00000   90.00000   90.00000   90.00000
LATT -1
SFAC C  
C      1  0.5334350000000  0.5456860000000  0.4852090000000 1.0
C      1  0.4500540000000  0.5001200000000  0.4446100000000 1.0
C      1  0.5146990000000  0.4397710000000  0.4745180000000 1.0
C      1  0.4811830000000  0.5690100000000  0.4531860000000 1.0
C      1  0.5041990000000  0.5516060000000  0.4403620000000 1.0
C      1  0.5273520000000  0.5004880000000  0.5740830000000 1.0
C      1  0.4381090000000  0.4729110000000  0.5392820000000 1.0
C      1  0.5425830000000  0.4795360000000  0.4196750000000 1.0
C      1  0.5081420000000  0.5022770000000  0.5390640000000 1.0
C      1  0.4620000000000  0.5535090000000  0.4933860000000 1.0
C      1  0.5581350000000  0.4519080000000  0.4581020000000 1.0
C      1  0.5519760000000  0.4353650000000  0.5401780000000 1.0
C      1  0.4983380000000  0.4995950000000  0.4412670000000 1.0
C      1  0.5088210000000  0.4200440000000  0.5527960000000 1.0
C      1  0.5147850000000  0.5253350000000  0.5596660000000 1.0
C      1  0.5426350000000  0.5162660000000  0.4707980000000 1.0
C      1  0.5332620000000  0.4141280000000  0.5375070000000 1.0
C      1  0.5544380000000  0.5244980000000  0.5289710000000 1.0
C      1  0.4594770000000  0.5541350000000  0.5846370000000 1.0
C      1  0.4999880000000  0.4863730000000  0.4654340000000 1.0
C      1  0.4541980000000  0.4556720000000  0.5236450000000 1.0
C      1  0.4995370000000  0.4999600000000  0.4086160000000 1.0
C      1  0.4333640000000  0.5229300000000  0.5580690000000 1.0
C      1  0.4309700000000  0.5151930000000  0.4956260000000 1.0
C      1  0.5230810000000  0.4908590000000  0.5104240000000 1.0
C      1  0.5023230000000  0.5281050000000  0.4263530000000 1.0
C      1  0.5411880000000  0.4563390000000  0.5576790000000 1.0
C      1  0.4992870000000  0.4550990000000  0.4319570000000 1.0
C      1  0.4395720000000  0.5353870000000  0.5827420000000 1.0
C      1  0.4588230000000  0.5541170000000  0.4639820000000 1.0
C      1  0.5166050000000  0.4439120000000  0.5685070000000 1.0
C      1  0.4801790000000  0.5605500000000  0.5683130000000 1.0
C      1  0.4611880000000  0.4301320000000  0.5336070000000 1.0
C      1  0.5798720000000  0.4929080000000  0.4461740000000 1.0
C      1  0.4373390000000  0.5394540000000  0.5354440000000 1.0
C      1  0.5276050000000  0.4880530000000  0.4812940000000 1.0
C      1  0.4594350000000  0.5253920000000  0.4527830000000 1.0
C      1  0.5052380000000  0.5567570000000  0.5232070000000 1.0
C      1  0.4478680000000  0.4806590000000  0.4652690000000 1.0
C      1  0.5217340000000  0.4947330000000  0.6004210000000 1.0
C      1  0.5098230000000  0.5238430000000  0.4749950000000 1.0
C      1  0.4894820000000  0.5604880000000  0.4999580000000 1.0
C      1  0.5144500000000  0.4733790000000  0.4157860000000 1.0
C      1  0.5467510000000  0.4973060000000  0.5301280000000 1.0
C      1  0.4315750000000  0.4952940000000  0.5528490000000 1.0
C      1  0.5087610000000  0.5635720000000  0.4720880000000 1.0
C      1  0.4301910000000  0.4898730000000  0.4855040000000 1.0
C      1  0.4821400000000  0.4170290000000  0.5447160000000 1.0
C      1  0.4921290000000  0.4835920000000  0.5188990000000 1.0
C      1  0.4989530000000  0.5509920000000  0.5501200000000 1.0
C      1  0.5366480000000  0.4579050000000  0.4752700000000 1.0
C      1  0.4425520000000  0.5378650000000  0.5080080000000 1.0
C      1  0.4740620000000  0.4689460000000  0.4755950000000 1.0
C      1  0.4735500000000  0.4681120000000  0.5063610000000 1.0
C      1  0.4844270000000  0.5240130000000  0.4696260000000 1.0
C      1  0.5651760000000  0.4692660000000  0.4369210000000 1.0
C      1  0.5608490000000  0.5154710000000  0.4472080000000 1.0
C      1  0.5380970000000  0.5438460000000  0.5481230000000 1.0
C      1  0.5424510000000  0.4847030000000  0.5558050000000 1.0
C      1  0.4923280000000  0.4478990000000  0.4588090000000 1.0
C      1  0.5470520000000  0.5089710000000  0.4218070000000 1.0
C      1  0.5355370000000  0.5488650000000  0.5145780000000 1.0
END
