TITL C-2778437-8639-1238 0.00296649032845448 125000 -517.911860414646 0 0 89 (C1) n - 1
REM
REM in /home/nfs/bkarasulu/CARBON/AIRSS/Generating-Clusters/REBO/Only-C1/SD-CG/HFTN-CG
REM
REM
REM
REM
REM
REM ./C.cell (11c1c37f851c82e70ff6c80c92926a4b)
REM
REM compiler GCC version 9.2.1 20190827 (Red Hat 9.2.1-1)
REM options -cpp -mtune=generic -march=x86-64 -g -O0 -fpre-include=/usr/include/finclude/math-vector-fortran.h
REM seed -49960846 1530930140 208628157 -1691881846 1872966463 -661172930 84594072 -846648165 1762528979 -1113324165 -1669241576 203631332 -1393428241 -1204530690 -928136449 -1183776626 -311091108 -1914439022 1300266982 804962517 -1580964323 1002554564 -24899404 -1033016010 -776142817 -382336156 -968319281 1746020290 1230409167 -1880631627 249091586 -855030692 -241937336
REM
CELL 1.54180   50.00000   50.00000   50.00000   90.00000   90.00000   90.00000
LATT -1
SFAC C  
C      1  0.5815830000000  0.4843430000000  0.5254030000000 1.0
C      1  0.4798300000000  0.4739860000000  0.4884010000000 1.0
C      1  0.5677960000000  0.5584310000000  0.5413110000000 1.0
C      1  0.5223290000000  0.4527530000000  0.5620620000000 1.0
C      1  0.4548030000000  0.4390980000000  0.5311440000000 1.0
C      1  0.5165030000000  0.4832520000000  0.5473030000000 1.0
C      1  0.4796320000000  0.4769690000000  0.4557040000000 1.0
C      1  0.4834740000000  0.4477280000000  0.5048630000000 1.0
C      1  0.5485100000000  0.5683290000000  0.4908880000000 1.0
C      1  0.4508260000000  0.5291260000000  0.4395250000000 1.0
C      1  0.5454960000000  0.4275740000000  0.4872800000000 1.0
C      1  0.4769920000000  0.4645930000000  0.5339500000000 1.0
C      1  0.4614990000000  0.5110430000000  0.4191090000000 1.0
C      1  0.4384300000000  0.4941140000000  0.5526710000000 1.0
C      1  0.4350110000000  0.4745350000000  0.4384370000000 1.0
C      1  0.5795150000000  0.5331050000000  0.5358960000000 1.0
C      1  0.5228300000000  0.5081060000000  0.4272910000000 1.0
C      1  0.5199260000000  0.4579350000000  0.4888940000000 1.0
C      1  0.5210950000000  0.5289800000000  0.4880920000000 1.0
C      1  0.5703460000000  0.5460640000000  0.4783650000000 1.0
C      1  0.4916370000000  0.5124330000000  0.5290440000000 1.0
C      1  0.5836270000000  0.5222180000000  0.4844240000000 1.0
C      1  0.4199800000000  0.5321380000000  0.5282370000000 1.0
C      1  0.4675380000000  0.4916290000000  0.5254050000000 1.0
C      1  0.4719260000000  0.4312390000000  0.4588850000000 1.0
C      1  0.4997060000000  0.4349200000000  0.4508760000000 1.0
C      1  0.5394820000000  0.5413920000000  0.5806110000000 1.0
C      1  0.5432540000000  0.5610430000000  0.5606570000000 1.0
C      1  0.4177960000000  0.4850220000000  0.5197000000000 1.0
C      1  0.5148780000000  0.4153800000000  0.5275030000000 1.0
C      1  0.5895140000000  0.5143530000000  0.5117010000000 1.0
C      1  0.4654990000000  0.5347590000000  0.5522020000000 1.0
C      1  0.5094910000000  0.5254430000000  0.4605940000000 1.0
C      1  0.4687180000000  0.5509780000000  0.4475920000000 1.0
C      1  0.4402390000000  0.5223330000000  0.5463730000000 1.0
C      1  0.5175150000000  0.5591950000000  0.5384040000000 1.0
C      1  0.4483070000000  0.4857300000000  0.4157640000000 1.0
C      1  0.5474890000000  0.5604730000000  0.4576430000000 1.0
C      1  0.5649960000000  0.4851530000000  0.4443270000000 1.0
C      1  0.4753870000000  0.4683360000000  0.5736630000000 1.0
C      1  0.5377260000000  0.5031240000000  0.5332220000000 1.0
C      1  0.5226280000000  0.5205100000000  0.5712820000000 1.0
C      1  0.4183890000000  0.4939800000000  0.4509420000000 1.0
C      1  0.5169750000000  0.4846840000000  0.4787640000000 1.0
C      1  0.4426160000000  0.4596350000000  0.4876970000000 1.0
C      1  0.4697400000000  0.4226550000000  0.4863570000000 1.0
C      1  0.4544070000000  0.5310610000000  0.4886830000000 1.0
C      1  0.4461770000000  0.4343230000000  0.5015890000000 1.0
C      1  0.4600490000000  0.5537920000000  0.5134650000000 1.0
C      1  0.4788560000000  0.5207490000000  0.5714030000000 1.0
C      1  0.5645910000000  0.4729970000000  0.4758810000000 1.0
C      1  0.5182670000000  0.4852620000000  0.4501530000000 1.0
C      1  0.4529720000000  0.4589600000000  0.4578170000000 1.0
C      1  0.5482480000000  0.4889060000000  0.4239840000000 1.0
C      1  0.4292260000000  0.5197660000000  0.4577250000000 1.0
C      1  0.5179270000000  0.5711760000000  0.4451910000000 1.0
C      1  0.4917890000000  0.4454460000000  0.5579120000000 1.0
C      1  0.4615970000000  0.5589240000000  0.4739600000000 1.0
C      1  0.5403240000000  0.4326750000000  0.5179040000000 1.0
C      1  0.5339340000000  0.5353170000000  0.4404370000000 1.0
C      1  0.4964000000000  0.5685010000000  0.5059180000000 1.0
C      1  0.5664650000000  0.4420100000000  0.4764210000000 1.0
C      1  0.5333410000000  0.4682780000000  0.5838640000000 1.0
C      1  0.5458440000000  0.5694150000000  0.5224550000000 1.0
C      1  0.5217310000000  0.4939630000000  0.5853920000000 1.0
C      1  0.5806120000000  0.5005920000000  0.4668710000000 1.0
C      1  0.5189370000000  0.4315320000000  0.4726300000000 1.0
C      1  0.5196030000000  0.5559680000000  0.4961660000000 1.0
C      1  0.4064450000000  0.5101210000000  0.5130300000000 1.0
C      1  0.5308190000000  0.4646310000000  0.5248610000000 1.0
C      1  0.4450310000000  0.4826500000000  0.5059600000000 1.0
C      1  0.4297760000000  0.5536640000000  0.5101720000000 1.0
C      1  0.4362160000000  0.4658560000000  0.5410280000000 1.0
C      1  0.4962960000000  0.5002780000000  0.4995490000000 1.0
C      1  0.4929060000000  0.4939860000000  0.5694510000000 1.0
C      1  0.5494890000000  0.4815760000000  0.5017100000000 1.0
C      1  0.4702160000000  0.5066420000000  0.4807370000000 1.0
C      1  0.4838310000000  0.5560680000000  0.5342510000000 1.0
C      1  0.5636200000000  0.4576170000000  0.5224060000000 1.0
C      1  0.4918860000000  0.5110830000000  0.4183270000000 1.0
C      1  0.4851220000000  0.5075990000000  0.4511190000000 1.0
C      1  0.5346260000000  0.5105180000000  0.5035120000000 1.0
C      1  0.4876170000000  0.4266670000000  0.5314490000000 1.0
C      1  0.5651710000000  0.5053820000000  0.5416090000000 1.0
C      1  0.4212010000000  0.5284730000000  0.4884400000000 1.0
C      1  0.5089560000000  0.5274200000000  0.5460700000000 1.0
C      1  0.4978520000000  0.5518030000000  0.4454580000000 1.0
C      1  0.4775610000000  0.5780620000000  0.4871600000000 1.0
C      1  0.5025860000000  0.4614760000000  0.4394250000000 1.0
END
