TITL C-2778434-4341-811 -0.00339497553095566 125000 -794.202237236412 0 0 134 (C1) n - 1
REM
REM in /home/nfs/bkarasulu/CARBON/AIRSS/Generating-Clusters/REBO/Only-C1/SD-CG/HFTN-CG
REM
REM
REM
REM
REM
REM ./C.cell (11c1c37f851c82e70ff6c80c92926a4b)
REM
REM compiler GCC version 9.2.1 20190827 (Red Hat 9.2.1-1)
REM options -cpp -mtune=generic -march=x86-64 -g -O0 -fpre-include=/usr/include/finclude/math-vector-fortran.h
REM seed 1657333129 -892180205 866926586 -943893740 1807078007 -539147210 -1845595361 764267938 278053560 -407710675 -989331478 -838167906 -34212174 -380258739 -1102264754 1945434977 124294867 -462014213 1889126664 250692373 -1705863675 395459641 1742690510 -1095993509 1454769693 978390561 -203471166 -1526228000 45811058 -706484777 681555961 941182355 1580142164
REM
CELL 1.54180   50.00000   50.00000   50.00000   90.00000   90.00000   90.00000
LATT -1
SFAC C  
C      1  0.5447730000000  0.4804060000000  0.4456260000000 1.0
C      1  0.4922990000000  0.5777410000000  0.5125730000000 1.0
C      1  0.5475500000000  0.4945240000000  0.4771060000000 1.0
C      1  0.4791190000000  0.5717030000000  0.4440350000000 1.0
C      1  0.4718800000000  0.5560140000000  0.5156870000000 1.0
C      1  0.4907830000000  0.5416670000000  0.4126060000000 1.0
C      1  0.5610000000000  0.5591190000000  0.4506010000000 1.0
C      1  0.4873770000000  0.5142440000000  0.4254640000000 1.0
C      1  0.5622030000000  0.5525590000000  0.5084050000000 1.0
C      1  0.4631450000000  0.5462270000000  0.4410430000000 1.0
C      1  0.5771460000000  0.5768470000000  0.4661400000000 1.0
C      1  0.4058100000000  0.5119370000000  0.5097010000000 1.0
C      1  0.4554150000000  0.5339450000000  0.5869980000000 1.0
C      1  0.5130680000000  0.4631200000000  0.4092720000000 1.0
C      1  0.5841700000000  0.5276430000000  0.5698550000000 1.0
C      1  0.5605540000000  0.4861970000000  0.5395520000000 1.0
C      1  0.4331850000000  0.4931640000000  0.5079900000000 1.0
C      1  0.4580390000000  0.5524480000000  0.4915700000000 1.0
C      1  0.4597410000000  0.5262430000000  0.4826800000000 1.0
C      1  0.4376330000000  0.5393740000000  0.4330550000000 1.0
C      1  0.4601580000000  0.4088850000000  0.4460880000000 1.0
C      1  0.4299420000000  0.5249160000000  0.5766890000000 1.0
C      1  0.5141780000000  0.5509450000000  0.5350490000000 1.0
C      1  0.5153940000000  0.5548980000000  0.4226260000000 1.0
C      1  0.5862130000000  0.5302630000000  0.5425400000000 1.0
C      1  0.5695090000000  0.5001870000000  0.4214030000000 1.0
C      1  0.3999440000000  0.4767260000000  0.5383900000000 1.0
C      1  0.4070970000000  0.5300790000000  0.5296050000000 1.0
C      1  0.4701070000000  0.5931330000000  0.5300610000000 1.0
C      1  0.4755710000000  0.4657850000000  0.4910700000000 1.0
C      1  0.4900830000000  0.4736580000000  0.4210550000000 1.0
C      1  0.4623670000000  0.4921000000000  0.4288640000000 1.0
C      1  0.5819320000000  0.4215760000000  0.5230020000000 1.0
C      1  0.4621690000000  0.4039350000000  0.5274540000000 1.0
C      1  0.5378380000000  0.5680680000000  0.5544610000000 1.0
C      1  0.4920720000000  0.4867150000000  0.4982640000000 1.0
C      1  0.4048060000000  0.4653760000000  0.5127030000000 1.0
C      1  0.5176500000000  0.5093680000000  0.5623030000000 1.0
C      1  0.4644440000000  0.5523810000000  0.5677900000000 1.0
C      1  0.5684180000000  0.4687000000000  0.4754640000000 1.0
C      1  0.5198300000000  0.4774340000000  0.4663440000000 1.0
C      1  0.4765490000000  0.4021310000000  0.4696490000000 1.0
C      1  0.4226550000000  0.4852780000000  0.5530090000000 1.0
C      1  0.5983990000000  0.5780490000000  0.5340800000000 1.0
C      1  0.5293500000000  0.4729170000000  0.5737500000000 1.0
C      1  0.4700980000000  0.5106720000000  0.5404930000000 1.0
C      1  0.5057150000000  0.5640440000000  0.4615230000000 1.0
C      1  0.4757030000000  0.4363870000000  0.4403630000000 1.0
C      1  0.4356010000000  0.5745720000000  0.4886030000000 1.0
C      1  0.5494490000000  0.4177810000000  0.4807750000000 1.0
C      1  0.5653030000000  0.5793990000000  0.4918380000000 1.0
C      1  0.5597640000000  0.5216000000000  0.4940680000000 1.0
C      1  0.5516190000000  0.4897010000000  0.5699020000000 1.0
C      1  0.4892450000000  0.5668480000000  0.5706650000000 1.0
C      1  0.5345450000000  0.5710750000000  0.5159010000000 1.0
C      1  0.5261320000000  0.5970720000000  0.4628550000000 1.0
C      1  0.5050360000000  0.3971400000000  0.4610100000000 1.0
C      1  0.5304900000000  0.5264680000000  0.4605540000000 1.0
C      1  0.4382270000000  0.5923420000000  0.4668040000000 1.0
C      1  0.4930650000000  0.5878030000000  0.5511580000000 1.0
C      1  0.4221820000000  0.5200970000000  0.4466420000000 1.0
C      1  0.5903160000000  0.4846530000000  0.4657130000000 1.0
C      1  0.4969540000000  0.5358470000000  0.5840310000000 1.0
C      1  0.4365040000000  0.4353330000000  0.4897990000000 1.0
C      1  0.4872760000000  0.4336690000000  0.5360710000000 1.0
C      1  0.4701710000000  0.4677250000000  0.4645140000000 1.0
C      1  0.4287270000000  0.4963290000000  0.5783430000000 1.0
C      1  0.4622510000000  0.4606540000000  0.5792620000000 1.0
C      1  0.5113940000000  0.4045820000000  0.5073220000000 1.0
C      1  0.5042730000000  0.4345660000000  0.4470490000000 1.0
C      1  0.4887430000000  0.5129710000000  0.4828820000000 1.0
C      1  0.5518120000000  0.4497780000000  0.4314450000000 1.0
C      1  0.5204690000000  0.4450630000000  0.4722040000000 1.0
C      1  0.4689030000000  0.4444640000000  0.5114010000000 1.0
C      1  0.5433050000000  0.5399700000000  0.5630140000000 1.0
C      1  0.4947980000000  0.5327560000000  0.5507080000000 1.0
C      1  0.5830380000000  0.4379590000000  0.5452500000000 1.0
C      1  0.4615570000000  0.4151350000000  0.4955100000000 1.0
C      1  0.4889230000000  0.5357400000000  0.4575280000000 1.0
C      1  0.5256160000000  0.4001450000000  0.4809420000000 1.0
C      1  0.5249870000000  0.4361120000000  0.4208380000000 1.0
C      1  0.4122600000000  0.5289230000000  0.4740700000000 1.0
C      1  0.4931070000000  0.4043200000000  0.5287690000000 1.0
C      1  0.4267980000000  0.4478850000000  0.5126320000000 1.0
C      1  0.5198680000000  0.5897980000000  0.5409770000000 1.0
C      1  0.5848500000000  0.5546570000000  0.5291450000000 1.0
C      1  0.5343980000000  0.4806920000000  0.4130710000000 1.0
C      1  0.4359160000000  0.5126220000000  0.4834250000000 1.0
C      1  0.4772990000000  0.5096460000000  0.5938600000000 1.0
C      1  0.4579500000000  0.5418580000000  0.5387940000000 1.0
C      1  0.4485990000000  0.4573680000000  0.5327920000000 1.0
C      1  0.4288770000000  0.4467430000000  0.4649790000000 1.0
C      1  0.5387160000000  0.5954470000000  0.4931290000000 1.0
C      1  0.5391070000000  0.5199080000000  0.5379160000000 1.0
C      1  0.5630130000000  0.4556390000000  0.5501350000000 1.0
C      1  0.4501140000000  0.4152300000000  0.5512540000000 1.0
C      1  0.5680510000000  0.5121930000000  0.5257350000000 1.0
C      1  0.5528800000000  0.4449200000000  0.4629440000000 1.0
C      1  0.4480750000000  0.4891870000000  0.5337170000000 1.0
C      1  0.5027750000000  0.4890760000000  0.5852890000000 1.0
C      1  0.4324320000000  0.4935050000000  0.4449750000000 1.0
C      1  0.5312270000000  0.4477060000000  0.5532730000000 1.0
C      1  0.4067560000000  0.4856660000000  0.4877250000000 1.0
C      1  0.4929290000000  0.4783050000000  0.4505960000000 1.0
C      1  0.5274570000000  0.5321500000000  0.5911620000000 1.0
C      1  0.5200830000000  0.5233740000000  0.4322110000000 1.0
C      1  0.5092560000000  0.4841890000000  0.5205860000000 1.0
C      1  0.6133190000000  0.5031530000000  0.4551130000000 1.0
C      1  0.5334470000000  0.5709740000000  0.4433810000000 1.0
C      1  0.5153780000000  0.4059180000000  0.4332580000000 1.0
C      1  0.5166990000000  0.5266020000000  0.4846920000000 1.0
C      1  0.5179420000000  0.4339280000000  0.5004100000000 1.0
C      1  0.5586660000000  0.4242490000000  0.5073890000000 1.0
C      1  0.5012940000000  0.4453940000000  0.5570370000000 1.0
C      1  0.5358040000000  0.4742040000000  0.5236800000000 1.0
C      1  0.4539140000000  0.4608780000000  0.4371930000000 1.0
C      1  0.5810260000000  0.5110280000000  0.4470500000000 1.0
C      1  0.4902800000000  0.4613070000000  0.5765560000000 1.0
C      1  0.5252030000000  0.5326090000000  0.5106460000000 1.0
C      1  0.4387620000000  0.4317430000000  0.4402480000000 1.0
C      1  0.4268430000000  0.5358260000000  0.5491720000000 1.0
C      1  0.4442650000000  0.5893410000000  0.5174860000000 1.0
C      1  0.4498660000000  0.4432700000000  0.5593290000000 1.0
C      1  0.4104710000000  0.5552110000000  0.4851910000000 1.0
C      1  0.5621000000000  0.5294100000000  0.4612340000000 1.0
C      1  0.4972490000000  0.4940410000000  0.5435480000000 1.0
C      1  0.5416160000000  0.5094820000000  0.4160600000000 1.0
C      1  0.4209760000000  0.4742500000000  0.4626150000000 1.0
C      1  0.5383770000000  0.4438090000000  0.5209440000000 1.0
C      1  0.5729820000000  0.4724490000000  0.4184490000000 1.0
C      1  0.5564420000000  0.5165800000000  0.5821990000000 1.0
C      1  0.5993920000000  0.5895940000000  0.4575090000000 1.0
C      1  0.4531450000000  0.4860300000000  0.5894450000000 1.0
C      1  0.5079930000000  0.5826390000000  0.4883550000000 1.0
END
