TITL C-2778434-4341-1199 -0.00570762740802517 125000 -550.849702860539 0 0 93 (C1) n - 1
REM
REM in /home/nfs/bkarasulu/CARBON/AIRSS/Generating-Clusters/REBO/Only-C1/SD-CG/HFTN-CG
REM
REM
REM
REM
REM
REM ./C.cell (11c1c37f851c82e70ff6c80c92926a4b)
REM
REM compiler GCC version 9.2.1 20190827 (Red Hat 9.2.1-1)
REM options -cpp -mtune=generic -march=x86-64 -g -O0 -fpre-include=/usr/include/finclude/math-vector-fortran.h
REM seed 898397 -1873209023 2132219981 -2000153389 494341416 -399434534 -110934575 1261515220 -1200699746 2010243886 1214048980 1832201435 640787698 -1372745306 -809966623 991276827 144029871 -1057043519 -1986257799 1060544525 -852161332 -1565070249 -773616158 -726380174 690689200 -1199709911 951074160 1515693702 186947584 -1069838424 253065030 436887244 -749046671
REM
CELL 1.54180   50.00000   50.00000   50.00000   90.00000   90.00000   90.00000
LATT -1
SFAC C  
C      1  0.4558850000000  0.4896480000000  0.4231340000000 1.0
C      1  0.4791350000000  0.4733660000000  0.4184120000000 1.0
C      1  0.4549670000000  0.4354650000000  0.4927120000000 1.0
C      1  0.5106060000000  0.5143410000000  0.4175100000000 1.0
C      1  0.4281190000000  0.4732770000000  0.4289970000000 1.0
C      1  0.5499000000000  0.5423000000000  0.4416260000000 1.0
C      1  0.5274990000000  0.4682270000000  0.5430740000000 1.0
C      1  0.5722850000000  0.4900010000000  0.4530340000000 1.0
C      1  0.4609410000000  0.5167770000000  0.4393990000000 1.0
C      1  0.4434300000000  0.4446900000000  0.5703820000000 1.0
C      1  0.4442480000000  0.5609600000000  0.5457380000000 1.0
C      1  0.5284800000000  0.5634010000000  0.4449450000000 1.0
C      1  0.4922690000000  0.4273540000000  0.4404430000000 1.0
C      1  0.5108810000000  0.5550840000000  0.5083930000000 1.0
C      1  0.5300430000000  0.5081880000000  0.5741320000000 1.0
C      1  0.4982080000000  0.4875990000000  0.4591040000000 1.0
C      1  0.4352440000000  0.5270610000000  0.4941510000000 1.0
C      1  0.4816240000000  0.5639040000000  0.4428330000000 1.0
C      1  0.4785750000000  0.4898860000000  0.5517520000000 1.0
C      1  0.4841500000000  0.5847920000000  0.5098110000000 1.0
C      1  0.4634360000000  0.4334660000000  0.5212980000000 1.0
C      1  0.4972920000000  0.4565410000000  0.4843940000000 1.0
C      1  0.4442580000000  0.4694810000000  0.4587020000000 1.0
C      1  0.4748710000000  0.4453970000000  0.4268280000000 1.0
C      1  0.5032600000000  0.5453610000000  0.5612420000000 1.0
C      1  0.5602620000000  0.4305800000000  0.4881980000000 1.0
C      1  0.5042970000000  0.5794130000000  0.4412700000000 1.0
C      1  0.4669090000000  0.4928140000000  0.4613840000000 1.0
C      1  0.4932110000000  0.5381190000000  0.4860210000000 1.0
C      1  0.5150580000000  0.5162500000000  0.5003040000000 1.0
C      1  0.4710130000000  0.5545820000000  0.4704470000000 1.0
C      1  0.4489050000000  0.5327210000000  0.4652410000000 1.0
C      1  0.4715790000000  0.4767300000000  0.5258950000000 1.0
C      1  0.5441380000000  0.5091010000000  0.4740150000000 1.0
C      1  0.5119310000000  0.4198520000000  0.4903590000000 1.0
C      1  0.4438640000000  0.5513350000000  0.5154010000000 1.0
C      1  0.4515440000000  0.4683460000000  0.5845740000000 1.0
C      1  0.5344410000000  0.5762120000000  0.5210260000000 1.0
C      1  0.5395180000000  0.5184510000000  0.4266840000000 1.0
C      1  0.5397610000000  0.4166420000000  0.5023080000000 1.0
C      1  0.4757040000000  0.5174960000000  0.5055860000000 1.0
C      1  0.5191370000000  0.5141680000000  0.4606940000000 1.0
C      1  0.4871810000000  0.5419570000000  0.5250910000000 1.0
C      1  0.5236530000000  0.4733130000000  0.4408070000000 1.0
C      1  0.4556070000000  0.5020780000000  0.4899980000000 1.0
C      1  0.5753940000000  0.4949940000000  0.5538710000000 1.0
C      1  0.5536130000000  0.5327040000000  0.4922430000000 1.0
C      1  0.5685540000000  0.5391490000000  0.4648210000000 1.0
C      1  0.5384010000000  0.4212330000000  0.5305890000000 1.0
C      1  0.4387810000000  0.4577590000000  0.4859860000000 1.0
C      1  0.5154850000000  0.4851230000000  0.4876700000000 1.0
C      1  0.4933930000000  0.5094320000000  0.5329960000000 1.0
C      1  0.4443930000000  0.4467080000000  0.5417420000000 1.0
C      1  0.5351830000000  0.5363400000000  0.5190590000000 1.0
C      1  0.5673440000000  0.5410940000000  0.5419920000000 1.0
C      1  0.5167270000000  0.4398650000000  0.5366240000000 1.0
C      1  0.5596020000000  0.5657420000000  0.5304160000000 1.0
C      1  0.5573720000000  0.5166350000000  0.5552070000000 1.0
C      1  0.4851810000000  0.5337810000000  0.4291630000000 1.0
C      1  0.4459560000000  0.4977650000000  0.5733630000000 1.0
C      1  0.5089110000000  0.5934700000000  0.5186940000000 1.0
C      1  0.4939450000000  0.4276860000000  0.5182310000000 1.0
C      1  0.4935910000000  0.4666810000000  0.5129040000000 1.0
C      1  0.5520160000000  0.4822690000000  0.5240400000000 1.0
C      1  0.4335060000000  0.4989190000000  0.5464970000000 1.0
C      1  0.4980310000000  0.5199460000000  0.5745050000000 1.0
C      1  0.4568000000000  0.5442260000000  0.5704020000000 1.0
C      1  0.4446260000000  0.4788800000000  0.5058030000000 1.0
C      1  0.5462990000000  0.5543570000000  0.5731380000000 1.0
C      1  0.5110260000000  0.5377980000000  0.4496410000000 1.0
C      1  0.5874720000000  0.5166450000000  0.4627060000000 1.0
C      1  0.5213230000000  0.4959280000000  0.5256770000000 1.0
C      1  0.5743890000000  0.4861700000000  0.5101240000000 1.0
C      1  0.5290800000000  0.5492430000000  0.5500700000000 1.0
C      1  0.4344260000000  0.5207190000000  0.5278050000000 1.0
C      1  0.4476390000000  0.4462010000000  0.4356550000000 1.0
C      1  0.4656580000000  0.5677130000000  0.4993920000000 1.0
C      1  0.5039580000000  0.4862590000000  0.4196160000000 1.0
C      1  0.5523210000000  0.4531560000000  0.4730530000000 1.0
C      1  0.4328040000000  0.4726610000000  0.5334620000000 1.0
C      1  0.5484960000000  0.4926200000000  0.4377130000000 1.0
C      1  0.4784720000000  0.4369690000000  0.4766820000000 1.0
C      1  0.4773710000000  0.5592020000000  0.5492210000000 1.0
C      1  0.5468540000000  0.4795150000000  0.4820590000000 1.0
C      1  0.5261420000000  0.4778650000000  0.5721460000000 1.0
C      1  0.5046980000000  0.4687380000000  0.5863210000000 1.0
C      1  0.5846810000000  0.4920220000000  0.4845070000000 1.0
C      1  0.5464210000000  0.5321720000000  0.5901850000000 1.0
C      1  0.4034790000000  0.4774060000000  0.4188530000000 1.0
C      1  0.4674370000000  0.5182110000000  0.5776650000000 1.0
C      1  0.5326390000000  0.4474580000000  0.4534460000000 1.0
C      1  0.5133090000000  0.4274080000000  0.4599440000000 1.0
C      1  0.4794800000000  0.4764370000000  0.5767510000000 1.0
END
