TITL C-2778424-3986-35 -0.00147395161642624 125000 -958.742328690572 0 0 169 (C1) n - 1
REM
REM in /home/nfs/bkarasulu/CARBON/AIRSS/Generating-Clusters/REBO/Only-C1/SD-CG/HFTN-CG
REM
REM
REM
REM
REM
REM ./C.cell (11c1c37f851c82e70ff6c80c92926a4b)
REM
REM compiler GCC version 9.2.1 20190827 (Red Hat 9.2.1-1)
REM options -cpp -mtune=generic -march=x86-64 -g -O0 -fpre-include=/usr/include/finclude/math-vector-fortran.h
REM seed -93789219 227971279 1099739553 1931137426 118496078 1212260670 -958230564 1477294780 1484676493 -1123805665 1522892871 1567940765 -814978592 -392184583 -1966152060 217984291 -714201604 2130761355 402949486 887222990 1847689195 -2056856908 -1230867632 -1145054867 496039352 -74913052 865254689 -162174415 1952217332 2105289701 10882129 -612438836 333416645
REM
CELL 1.54180   50.00000   50.00000   50.00000   90.00000   90.00000   90.00000
LATT -1
SFAC C  
C      1  0.5463830000000  0.5198790000000  0.4116350000000 1.0
C      1  0.4961130000000  0.4666020000000  0.4270290000000 1.0
C      1  0.4404860000000  0.5320530000000  0.4339410000000 1.0
C      1  0.4024030000000  0.4936500000000  0.4545100000000 1.0
C      1  0.4216510000000  0.4447870000000  0.4480310000000 1.0
C      1  0.5296340000000  0.5069360000000  0.5966350000000 1.0
C      1  0.5457940000000  0.4774750000000  0.6031110000000 1.0
C      1  0.4421290000000  0.5217760000000  0.5006870000000 1.0
C      1  0.5224370000000  0.4713130000000  0.4690080000000 1.0
C      1  0.5102470000000  0.6040410000000  0.5248260000000 1.0
C      1  0.5321030000000  0.4306360000000  0.4279860000000 1.0
C      1  0.5558750000000  0.4912730000000  0.4758510000000 1.0
C      1  0.4332920000000  0.4912850000000  0.5423110000000 1.0
C      1  0.4380610000000  0.5843640000000  0.5469830000000 1.0
C      1  0.5322480000000  0.4780590000000  0.4397340000000 1.0
C      1  0.5809170000000  0.4707450000000  0.5011760000000 1.0
C      1  0.5923190000000  0.4428200000000  0.4752870000000 1.0
C      1  0.5573710000000  0.4556080000000  0.4453270000000 1.0
C      1  0.4961710000000  0.4295110000000  0.5663110000000 1.0
C      1  0.5043930000000  0.5348470000000  0.5002790000000 1.0
C      1  0.5160830000000  0.4668220000000  0.5973700000000 1.0
C      1  0.4764640000000  0.5382430000000  0.5554670000000 1.0
C      1  0.4940610000000  0.4900570000000  0.6029540000000 1.0
C      1  0.5160770000000  0.4673480000000  0.4044660000000 1.0
C      1  0.5734040000000  0.5574290000000  0.4768790000000 1.0
C      1  0.4232070000000  0.5221560000000  0.5454500000000 1.0
C      1  0.4402750000000  0.5619420000000  0.4387850000000 1.0
C      1  0.5818530000000  0.4843220000000  0.4192420000000 1.0
C      1  0.5613430000000  0.5029250000000  0.5869400000000 1.0
C      1  0.4308630000000  0.5341140000000  0.5765850000000 1.0
C      1  0.4408090000000  0.4834500000000  0.5715910000000 1.0
C      1  0.4359230000000  0.5812530000000  0.4912090000000 1.0
C      1  0.5102450000000  0.5863980000000  0.4638940000000 1.0
C      1  0.5691180000000  0.4622490000000  0.5833380000000 1.0
C      1  0.5617470000000  0.5643330000000  0.4452740000000 1.0
C      1  0.5340950000000  0.5251730000000  0.4597150000000 1.0
C      1  0.5007580000000  0.5581640000000  0.5478220000000 1.0
C      1  0.4778000000000  0.6028840000000  0.5145180000000 1.0
C      1  0.4729350000000  0.4317480000000  0.4172660000000 1.0
C      1  0.5214190000000  0.4859980000000  0.5085940000000 1.0
C      1  0.4836450000000  0.5439810000000  0.4431090000000 1.0
C      1  0.5419390000000  0.5880370000000  0.4520210000000 1.0
C      1  0.4641400000000  0.5584140000000  0.5317330000000 1.0
C      1  0.5210630000000  0.5693470000000  0.5692900000000 1.0
C      1  0.4006980000000  0.5436340000000  0.4602330000000 1.0
C      1  0.4616210000000  0.5445670000000  0.5839620000000 1.0
C      1  0.4643120000000  0.4190730000000  0.5621940000000 1.0
C      1  0.5928840000000  0.4766290000000  0.4710290000000 1.0
C      1  0.4113810000000  0.5399670000000  0.5190030000000 1.0
C      1  0.4500970000000  0.4923800000000  0.4853470000000 1.0
C      1  0.4886200000000  0.5635310000000  0.5851800000000 1.0
C      1  0.4179100000000  0.5212200000000  0.4107340000000 1.0
C      1  0.4717430000000  0.5888150000000  0.5449570000000 1.0
C      1  0.4941820000000  0.4105040000000  0.4831890000000 1.0
C      1  0.4908500000000  0.4295680000000  0.5342410000000 1.0
C      1  0.4913680000000  0.5827460000000  0.4373290000000 1.0
C      1  0.5232220000000  0.4375050000000  0.5346860000000 1.0
C      1  0.4749710000000  0.5352120000000  0.6097670000000 1.0
C      1  0.5294240000000  0.5495930000000  0.4126030000000 1.0
C      1  0.5376420000000  0.4393370000000  0.5065630000000 1.0
C      1  0.5438020000000  0.4255570000000  0.5570860000000 1.0
C      1  0.5472720000000  0.4591680000000  0.4836970000000 1.0
C      1  0.4823530000000  0.5512700000000  0.4145850000000 1.0
C      1  0.5051720000000  0.3926970000000  0.5286040000000 1.0
C      1  0.4121670000000  0.5184900000000  0.4586120000000 1.0
C      1  0.5658140000000  0.4318300000000  0.4792410000000 1.0
C      1  0.5145670000000  0.4362940000000  0.4815290000000 1.0
C      1  0.5006850000000  0.5215500000000  0.6069060000000 1.0
C      1  0.4463030000000  0.4110030000000  0.4949670000000 1.0
C      1  0.4705410000000  0.5092780000000  0.5146650000000 1.0
C      1  0.4729300000000  0.5079810000000  0.5466170000000 1.0
C      1  0.4612020000000  0.4819130000000  0.5990890000000 1.0
C      1  0.5106690000000  0.3882740000000  0.4809210000000 1.0
C      1  0.5666340000000  0.4342090000000  0.5235920000000 1.0
C      1  0.3928610000000  0.5111840000000  0.5210160000000 1.0
C      1  0.5483160000000  0.5300000000000  0.5440190000000 1.0
C      1  0.4549810000000  0.4799640000000  0.4480120000000 1.0
C      1  0.5631510000000  0.4089990000000  0.5030940000000 1.0
C      1  0.5351700000000  0.3920090000000  0.5120400000000 1.0
C      1  0.4101500000000  0.4770380000000  0.4899690000000 1.0
C      1  0.5628720000000  0.5045000000000  0.5574450000000 1.0
C      1  0.5315070000000  0.5487590000000  0.4977140000000 1.0
C      1  0.4111400000000  0.4440840000000  0.4795890000000 1.0
C      1  0.4734510000000  0.5619640000000  0.4702690000000 1.0
C      1  0.5195630000000  0.4951130000000  0.3957300000000 1.0
C      1  0.5037250000000  0.4274880000000  0.4259600000000 1.0
C      1  0.5006850000000  0.5714300000000  0.5235150000000 1.0
C      1  0.4875310000000  0.4576730000000  0.5813040000000 1.0
C      1  0.4456210000000  0.5972240000000  0.5164830000000 1.0
C      1  0.4747380000000  0.5067930000000  0.5800360000000 1.0
C      1  0.5526860000000  0.4835750000000  0.5148810000000 1.0
C      1  0.4834330000000  0.4767620000000  0.5554380000000 1.0
C      1  0.5028620000000  0.5106420000000  0.5182580000000 1.0
C      1  0.4889440000000  0.4455850000000  0.4507230000000 1.0
C      1  0.4480990000000  0.4680040000000  0.5271820000000 1.0
C      1  0.5415140000000  0.3982990000000  0.4791120000000 1.0
C      1  0.5967350000000  0.4851600000000  0.5493190000000 1.0
C      1  0.5325350000000  0.5811760000000  0.5013850000000 1.0
C      1  0.4650010000000  0.4372390000000  0.5896470000000 1.0
C      1  0.4205810000000  0.5727500000000  0.5203170000000 1.0
C      1  0.5916960000000  0.5066130000000  0.4672770000000 1.0
C      1  0.4698380000000  0.4965770000000  0.4063740000000 1.0
C      1  0.5412880000000  0.4852140000000  0.5445700000000 1.0
C      1  0.4779690000000  0.5029300000000  0.4592170000000 1.0
C      1  0.5511580000000  0.4864250000000  0.4055420000000 1.0
C      1  0.4858750000000  0.5883380000000  0.5694370000000 1.0
C      1  0.5256680000000  0.5172200000000  0.5641870000000 1.0
C      1  0.5398120000000  0.5929400000000  0.5317240000000 1.0
C      1  0.5228010000000  0.4399610000000  0.5772420000000 1.0
C      1  0.5234340000000  0.5026430000000  0.4798610000000 1.0
C      1  0.4339870000000  0.4333040000000  0.5405800000000 1.0
C      1  0.5332460000000  0.3998910000000  0.5435390000000 1.0
C      1  0.5388250000000  0.4254960000000  0.4594100000000 1.0
C      1  0.4651330000000  0.4225950000000  0.4476640000000 1.0
C      1  0.4222560000000  0.5000580000000  0.5121950000000 1.0
C      1  0.4884250000000  0.4573850000000  0.4791500000000 1.0
C      1  0.5691070000000  0.5088490000000  0.5001620000000 1.0
C      1  0.4550090000000  0.6053720000000  0.4515910000000 1.0
C      1  0.5030720000000  0.5961440000000  0.4923850000000 1.0
C      1  0.5638770000000  0.5570710000000  0.5507700000000 1.0
C      1  0.5836740000000  0.5183230000000  0.4365790000000 1.0
C      1  0.4209870000000  0.5647440000000  0.4594540000000 1.0
C      1  0.4548330000000  0.5849710000000  0.4680280000000 1.0
C      1  0.5543480000000  0.5825910000000  0.4796640000000 1.0
C      1  0.4270900000000  0.5484280000000  0.4898370000000 1.0
C      1  0.5408960000000  0.4641500000000  0.5661620000000 1.0
C      1  0.5070090000000  0.4619650000000  0.5181430000000 1.0
C      1  0.5238080000000  0.5550380000000  0.4649850000000 1.0
C      1  0.4838880000000  0.4894740000000  0.4901500000000 1.0
C      1  0.4262130000000  0.4739450000000  0.4596830000000 1.0
C      1  0.5852070000000  0.4614720000000  0.5323910000000 1.0
C      1  0.4480250000000  0.5132080000000  0.4075240000000 1.0
C      1  0.4908340000000  0.5452440000000  0.3900730000000 1.0
C      1  0.4664160000000  0.4120430000000  0.4746610000000 1.0
C      1  0.4429870000000  0.5101630000000  0.5919430000000 1.0
C      1  0.4460440000000  0.4122980000000  0.5235360000000 1.0
C      1  0.4891830000000  0.5319660000000  0.4729000000000 1.0
C      1  0.5657140000000  0.5290510000000  0.4635600000000 1.0
C      1  0.4800550000000  0.5572770000000  0.5023040000000 1.0
C      1  0.5840780000000  0.5456580000000  0.5039020000000 1.0
C      1  0.4373770000000  0.5517580000000  0.5496460000000 1.0
C      1  0.4631950000000  0.4650970000000  0.4184810000000 1.0
C      1  0.4958950000000  0.5094420000000  0.4070910000000 1.0
C      1  0.5206090000000  0.5152630000000  0.4306570000000 1.0
C      1  0.5455460000000  0.5778780000000  0.5547010000000 1.0
C      1  0.4325860000000  0.4475900000000  0.5038390000000 1.0
C      1  0.5411520000000  0.4532220000000  0.4098440000000 1.0
C      1  0.4634500000000  0.5745300000000  0.4275830000000 1.0
C      1  0.4600580000000  0.4517660000000  0.5530780000000 1.0
C      1  0.4108400000000  0.4552900000000  0.5288810000000 1.0
C      1  0.5128990000000  0.5401840000000  0.5827740000000 1.0
C      1  0.5168190000000  0.5632450000000  0.4325470000000 1.0
C      1  0.4767390000000  0.4535750000000  0.5170270000000 1.0
C      1  0.5945390000000  0.4790840000000  0.5763610000000 1.0
C      1  0.5595220000000  0.4953810000000  0.4435040000000 1.0
C      1  0.5904440000000  0.5145520000000  0.5426730000000 1.0
C      1  0.4575520000000  0.4600940000000  0.4895690000000 1.0
C      1  0.5716490000000  0.4412760000000  0.5565020000000 1.0
C      1  0.5104950000000  0.4953250000000  0.5458450000000 1.0
C      1  0.5840050000000  0.4640710000000  0.4428010000000 1.0
C      1  0.5016160000000  0.4927900000000  0.4427910000000 1.0
C      1  0.5854440000000  0.5418870000000  0.5353870000000 1.0
C      1  0.3909290000000  0.4771760000000  0.5186760000000 1.0
C      1  0.4451510000000  0.5160530000000  0.4612850000000 1.0
C      1  0.4350080000000  0.4457610000000  0.4234660000000 1.0
C      1  0.5661860000000  0.5434670000000  0.4262870000000 1.0
C      1  0.4743610000000  0.4013640000000  0.5349570000000 1.0
C      1  0.5531620000000  0.5343830000000  0.5130030000000 1.0
C      1  0.6008260000000  0.5198110000000  0.4946300000000 1.0
END
