TITL C-2778435-5768-1006 0.00209071269971148 125000 -952.556128559629 0 0 165 (C1) n - 1
REM
REM in /home/nfs/bkarasulu/CARBON/AIRSS/Generating-Clusters/REBO/Only-C1/SD-CG/HFTN-CG
REM
REM
REM
REM
REM
REM ./C.cell (11c1c37f851c82e70ff6c80c92926a4b)
REM
REM compiler GCC version 9.2.1 20190827 (Red Hat 9.2.1-1)
REM options -cpp -mtune=generic -march=x86-64 -g -O0 -fpre-include=/usr/include/finclude/math-vector-fortran.h
REM seed -2134972303 -990581859 2084904779 583277490 -410539930 -1722843728 1907799851 -670951585 -966582073 1479246825 -426146961 1941869521 -1119724501 816451602 438225897 -1061748155 -178041372 524149476 626457117 1816419728 -1093562713 -1214583958 -685792624 2104287635 649092367 -1244186132 -156083118 653465119 1151396629 -1147184994 -1618764023 -41768273 -1307000568
REM
CELL 1.54180   50.00000   50.00000   50.00000   90.00000   90.00000   90.00000
LATT -1
SFAC C  
C      1  0.5073560000000  0.5810080000000  0.4434830000000 1.0
C      1  0.5515690000000  0.4479720000000  0.4974920000000 1.0
C      1  0.4338500000000  0.4864920000000  0.5733990000000 1.0
C      1  0.4029970000000  0.4595760000000  0.4952810000000 1.0
C      1  0.5418130000000  0.5114870000000  0.5935530000000 1.0
C      1  0.4929120000000  0.4025520000000  0.4440050000000 1.0
C      1  0.5940300000000  0.5325430000000  0.4770780000000 1.0
C      1  0.5144420000000  0.5523010000000  0.5128650000000 1.0
C      1  0.4964880000000  0.5270400000000  0.5087560000000 1.0
C      1  0.5058680000000  0.4398700000000  0.5845410000000 1.0
C      1  0.4533290000000  0.5082950000000  0.4732000000000 1.0
C      1  0.4154620000000  0.5424450000000  0.5412360000000 1.0
C      1  0.5912830000000  0.4542830000000  0.5399460000000 1.0
C      1  0.4451510000000  0.4435550000000  0.4237350000000 1.0
C      1  0.5618530000000  0.5461920000000  0.5624920000000 1.0
C      1  0.5109500000000  0.4775360000000  0.3958300000000 1.0
C      1  0.4934650000000  0.4601710000000  0.4409180000000 1.0
C      1  0.5891870000000  0.5485010000000  0.5012190000000 1.0
C      1  0.5132030000000  0.6064010000000  0.5174050000000 1.0
C      1  0.5151290000000  0.5537620000000  0.4806760000000 1.0
C      1  0.4081960000000  0.5725540000000  0.4931550000000 1.0
C      1  0.5768740000000  0.5071120000000  0.4363530000000 1.0
C      1  0.4236930000000  0.4289960000000  0.4144740000000 1.0
C      1  0.5566540000000  0.5112970000000  0.4120910000000 1.0
C      1  0.5321560000000  0.5055830000000  0.5623820000000 1.0
C      1  0.4405130000000  0.4561890000000  0.5588690000000 1.0
C      1  0.4393830000000  0.5484360000000  0.4990820000000 1.0
C      1  0.5463310000000  0.4093430000000  0.4490730000000 1.0
C      1  0.5683470000000  0.4707550000000  0.5422100000000 1.0
C      1  0.5000340000000  0.5117840000000  0.4802810000000 1.0
C      1  0.4737090000000  0.4157300000000  0.5386930000000 1.0
C      1  0.5517580000000  0.5404720000000  0.4904650000000 1.0
C      1  0.4737730000000  0.5914770000000  0.5637120000000 1.0
C      1  0.5270650000000  0.4626580000000  0.5817740000000 1.0
C      1  0.5758730000000  0.4476960000000  0.4446910000000 1.0
C      1  0.4766950000000  0.5535840000000  0.5956860000000 1.0
C      1  0.4757900000000  0.4534960000000  0.5809260000000 1.0
C      1  0.4407570000000  0.4969940000000  0.5361400000000 1.0
C      1  0.5282350000000  0.4768000000000  0.4823520000000 1.0
C      1  0.4753590000000  0.4651160000000  0.4996420000000 1.0
C      1  0.5322770000000  0.4188390000000  0.5311170000000 1.0
C      1  0.4437810000000  0.5197370000000  0.5008630000000 1.0
C      1  0.5035930000000  0.4590030000000  0.5496840000000 1.0
C      1  0.4711340000000  0.5070620000000  0.4008850000000 1.0
C      1  0.4323170000000  0.4797740000000  0.3811680000000 1.0
C      1  0.4816680000000  0.4216780000000  0.5705850000000 1.0
C      1  0.5211900000000  0.4608150000000  0.3782870000000 1.0
C      1  0.4843240000000  0.5643640000000  0.5485530000000 1.0
C      1  0.4038730000000  0.4910610000000  0.4420670000000 1.0
C      1  0.5553730000000  0.5022350000000  0.5411620000000 1.0
C      1  0.4506770000000  0.5849200000000  0.4655120000000 1.0
C      1  0.4344790000000  0.4811870000000  0.4306470000000 1.0
C      1  0.5562040000000  0.4365540000000  0.5595050000000 1.0
C      1  0.5406790000000  0.5431700000000  0.5809020000000 1.0
C      1  0.4847190000000  0.4780910000000  0.5304460000000 1.0
C      1  0.4322730000000  0.5883610000000  0.4907060000000 1.0
C      1  0.6023720000000  0.4983650000000  0.5220750000000 1.0
C      1  0.4883620000000  0.5008530000000  0.5998580000000 1.0
C      1  0.4242250000000  0.4961570000000  0.4997720000000 1.0
C      1  0.5245200000000  0.4075190000000  0.4723410000000 1.0
C      1  0.4756100000000  0.4970880000000  0.4925920000000 1.0
C      1  0.5515610000000  0.5643200000000  0.4665660000000 1.0
C      1  0.5174070000000  0.4891640000000  0.5955790000000 1.0
C      1  0.4224700000000  0.4081510000000  0.5118520000000 1.0
C      1  0.4916800000000  0.4301980000000  0.4243290000000 1.0
C      1  0.5702880000000  0.4231190000000  0.4576490000000 1.0
C      1  0.4652940000000  0.5383570000000  0.5422830000000 1.0
C      1  0.5292370000000  0.5074680000000  0.4409180000000 1.0
C      1  0.4321780000000  0.4944470000000  0.4606720000000 1.0
C      1  0.4937930000000  0.5748930000000  0.5857750000000 1.0
C      1  0.5310170000000  0.5064110000000  0.4912340000000 1.0
C      1  0.4705040000000  0.4479120000000  0.4106810000000 1.0
C      1  0.5792640000000  0.4884450000000  0.4989640000000 1.0
C      1  0.6042080000000  0.5072570000000  0.4838300000000 1.0
C      1  0.5828710000000  0.4807850000000  0.4457550000000 1.0
C      1  0.5311540000000  0.4467730000000  0.4715300000000 1.0
C      1  0.4449330000000  0.4573530000000  0.4530550000000 1.0
C      1  0.4791630000000  0.5740710000000  0.4296350000000 1.0
C      1  0.5018510000000  0.5420010000000  0.4369410000000 1.0
C      1  0.5389020000000  0.4812160000000  0.4527440000000 1.0
C      1  0.5510090000000  0.4616770000000  0.4311480000000 1.0
C      1  0.4410290000000  0.5599640000000  0.5312190000000 1.0
C      1  0.5114250000000  0.4260470000000  0.5067650000000 1.0
C      1  0.4864920000000  0.6023940000000  0.4979550000000 1.0
C      1  0.4442750000000  0.4881400000000  0.4032330000000 1.0
C      1  0.4658910000000  0.5538940000000  0.4242290000000 1.0
C      1  0.4475620000000  0.5712910000000  0.5626630000000 1.0
C      1  0.4616760000000  0.5327590000000  0.4578190000000 1.0
C      1  0.5305980000000  0.5334980000000  0.4107020000000 1.0
C      1  0.4663300000000  0.5216110000000  0.4297860000000 1.0
C      1  0.5596130000000  0.4620210000000  0.5806850000000 1.0
C      1  0.5212330000000  0.4152360000000  0.4302980000000 1.0
C      1  0.3905150000000  0.5511790000000  0.5015930000000 1.0
C      1  0.4355550000000  0.4516900000000  0.5288540000000 1.0
C      1  0.4772950000000  0.5705870000000  0.4915130000000 1.0
C      1  0.5319110000000  0.5850260000000  0.4627830000000 1.0
C      1  0.5225430000000  0.5679480000000  0.5801650000000 1.0
C      1  0.5236720000000  0.4792100000000  0.5216920000000 1.0
C      1  0.4477770000000  0.5177980000000  0.5735150000000 1.0
C      1  0.5189880000000  0.5283370000000  0.5458320000000 1.0
C      1  0.5799800000000  0.5025380000000  0.5636730000000 1.0
C      1  0.4022870000000  0.5018150000000  0.4743120000000 1.0
C      1  0.4257910000000  0.4580540000000  0.4769630000000 1.0
C      1  0.4749860000000  0.4536800000000  0.4674170000000 1.0
C      1  0.4672950000000  0.5130740000000  0.5221990000000 1.0
C      1  0.5029300000000  0.4895060000000  0.5645880000000 1.0
C      1  0.4121140000000  0.4814070000000  0.5472610000000 1.0
C      1  0.4026380000000  0.5017640000000  0.5229830000000 1.0
C      1  0.5413100000000  0.5443600000000  0.5285630000000 1.0
C      1  0.5903980000000  0.4716670000000  0.4731050000000 1.0
C      1  0.4651820000000  0.4847270000000  0.5877150000000 1.0
C      1  0.5057060000000  0.5037190000000  0.5275710000000 1.0
C      1  0.4496200000000  0.4088910000000  0.5079080000000 1.0
C      1  0.5408810000000  0.4097790000000  0.4994430000000 1.0
C      1  0.4922180000000  0.4015700000000  0.4773950000000 1.0
C      1  0.5008170000000  0.4326330000000  0.4688460000000 1.0
C      1  0.4785190000000  0.5127260000000  0.5614460000000 1.0
C      1  0.5502340000000  0.5158290000000  0.5140410000000 1.0
C      1  0.4971520000000  0.5284080000000  0.4059850000000 1.0
C      1  0.4231200000000  0.5188660000000  0.5525300000000 1.0
C      1  0.4622630000000  0.4387520000000  0.5167390000000 1.0
C      1  0.5753970000000  0.5412760000000  0.5316400000000 1.0
C      1  0.5651670000000  0.5678770000000  0.5039200000000 1.0
C      1  0.3971040000000  0.4608850000000  0.5253870000000 1.0
C      1  0.6186440000000  0.4824350000000  0.4991790000000 1.0
C      1  0.4766570000000  0.5993240000000  0.5309250000000 1.0
C      1  0.3677560000000  0.5591480000000  0.5148400000000 1.0
C      1  0.5927670000000  0.5161490000000  0.5410140000000 1.0
C      1  0.5008950000000  0.5753740000000  0.5247280000000 1.0
C      1  0.5244170000000  0.4464610000000  0.4398400000000 1.0
C      1  0.5310190000000  0.5584910000000  0.4327610000000 1.0
C      1  0.4993700000000  0.5129680000000  0.4509870000000 1.0
C      1  0.5551350000000  0.4753290000000  0.5118010000000 1.0
C      1  0.4980400000000  0.5405170000000  0.5645510000000 1.0
C      1  0.3943340000000  0.5223860000000  0.4994830000000 1.0
C      1  0.5327910000000  0.5291130000000  0.4656450000000 1.0
C      1  0.4910900000000  0.5283760000000  0.5960030000000 1.0
C      1  0.5348890000000  0.5883880000000  0.5637970000000 1.0
C      1  0.4672640000000  0.4744630000000  0.5554470000000 1.0
C      1  0.5084020000000  0.4572470000000  0.5024220000000 1.0
C      1  0.5584170000000  0.4784400000000  0.4062820000000 1.0
C      1  0.5629170000000  0.5524520000000  0.4429490000000 1.0
C      1  0.5917520000000  0.4369600000000  0.5108940000000 1.0
C      1  0.5466570000000  0.5856990000000  0.5123550000000 1.0
C      1  0.4111510000000  0.4319270000000  0.5229920000000 1.0
C      1  0.5381280000000  0.5985790000000  0.5382080000000 1.0
C      1  0.4458160000000  0.5560380000000  0.4717310000000 1.0
C      1  0.5221230000000  0.5854800000000  0.4921180000000 1.0
C      1  0.4821450000000  0.4757930000000  0.4059830000000 1.0
C      1  0.4501280000000  0.4266420000000  0.5611160000000 1.0
C      1  0.5225660000000  0.4316270000000  0.5571090000000 1.0
C      1  0.6083240000000  0.4546030000000  0.4917830000000 1.0
C      1  0.5672610000000  0.4901410000000  0.5858070000000 1.0
C      1  0.5249200000000  0.4999530000000  0.4082390000000 1.0
C      1  0.4545790000000  0.5838770000000  0.5131490000000 1.0
C      1  0.5360570000000  0.4683340000000  0.5492580000000 1.0
C      1  0.5812620000000  0.5318980000000  0.4501700000000 1.0
C      1  0.5616420000000  0.4317410000000  0.5261900000000 1.0
C      1  0.4408890000000  0.4696670000000  0.5030550000000 1.0
C      1  0.4835720000000  0.4065660000000  0.5073790000000 1.0
C      1  0.4516750000000  0.5495980000000  0.5818770000000 1.0
C      1  0.4865590000000  0.5512620000000  0.4660030000000 1.0
C      1  0.4836260000000  0.5918490000000  0.4654200000000 1.0
C      1  0.4821330000000  0.4916520000000  0.4357020000000 1.0
C      1  0.5707730000000  0.4217130000000  0.4888460000000 1.0
END
