TITL C-2778434-4341-377 0.00360647947490075 125000 -491.595580627421 0 0 85 (C1) n - 1
REM
REM in /home/nfs/bkarasulu/CARBON/AIRSS/Generating-Clusters/REBO/Only-C1/SD-CG/HFTN-CG
REM
REM
REM
REM
REM
REM ./C.cell (11c1c37f851c82e70ff6c80c92926a4b)
REM
REM compiler GCC version 9.2.1 20190827 (Red Hat 9.2.1-1)
REM options -cpp -mtune=generic -march=x86-64 -g -O0 -fpre-include=/usr/include/finclude/math-vector-fortran.h
REM seed 1354149451 1459560624 179166976 -1090422405 -1014251478 -1939418714 1994555876 514586077 -741745206 605535090 -674561501 1763521755 -498198895 2042269510 -300886687 -178561860 -1707429783 1632795325 2012486696 -510119486 1651559516 -135766920 2012253977 -478318522 -2024656578 43345969 1045641302 355819908 1509338186 67559997 -2114892943 821186613 -920654760
REM
CELL 1.54180   50.00000   50.00000   50.00000   90.00000   90.00000   90.00000
LATT -1
SFAC C  
C      1  0.4913050000000  0.5626660000000  0.4944190000000 1.0
C      1  0.4182520000000  0.5210780000000  0.5063350000000 1.0
C      1  0.4819940000000  0.4825420000000  0.4754440000000 1.0
C      1  0.5620670000000  0.5069350000000  0.4620230000000 1.0
C      1  0.5755660000000  0.4601100000000  0.5348480000000 1.0
C      1  0.5404720000000  0.4749430000000  0.4984750000000 1.0
C      1  0.4442850000000  0.4407920000000  0.4606100000000 1.0
C      1  0.5324760000000  0.4400950000000  0.4332850000000 1.0
C      1  0.5575470000000  0.4488790000000  0.5146930000000 1.0
C      1  0.5434920000000  0.5561490000000  0.4722140000000 1.0
C      1  0.4854100000000  0.5766680000000  0.4701290000000 1.0
C      1  0.4695690000000  0.5079560000000  0.4238580000000 1.0
C      1  0.5266460000000  0.4461180000000  0.4898980000000 1.0
C      1  0.5164740000000  0.4481360000000  0.4119750000000 1.0
C      1  0.4317350000000  0.5616090000000  0.4841860000000 1.0
C      1  0.4513970000000  0.5524210000000  0.4375910000000 1.0
C      1  0.5376960000000  0.5714240000000  0.5320000000000 1.0
C      1  0.4626470000000  0.5082950000000  0.4864970000000 1.0
C      1  0.5082110000000  0.5791010000000  0.5166930000000 1.0
C      1  0.4326830000000  0.4828470000000  0.5330080000000 1.0
C      1  0.4601270000000  0.5408140000000  0.5275500000000 1.0
C      1  0.5125470000000  0.4205120000000  0.5248190000000 1.0
C      1  0.4334450000000  0.5309360000000  0.5443080000000 1.0
C      1  0.4836150000000  0.5052790000000  0.4526770000000 1.0
C      1  0.4181650000000  0.5077410000000  0.5329240000000 1.0
C      1  0.5690570000000  0.4826040000000  0.4822640000000 1.0
C      1  0.5375810000000  0.5771460000000  0.4984610000000 1.0
C      1  0.4659710000000  0.4251560000000  0.5052310000000 1.0
C      1  0.5330300000000  0.5238860000000  0.5091330000000 1.0
C      1  0.5049620000000  0.5439020000000  0.4332530000000 1.0
C      1  0.4704470000000  0.4522940000000  0.5377890000000 1.0
C      1  0.5178650000000  0.4523420000000  0.5222060000000 1.0
C      1  0.5163490000000  0.4597080000000  0.5942320000000 1.0
C      1  0.5207450000000  0.5479400000000  0.4956540000000 1.0
C      1  0.5417260000000  0.4206590000000  0.5179950000000 1.0
C      1  0.4629200000000  0.4900330000000  0.5239780000000 1.0
C      1  0.5271960000000  0.5365760000000  0.4531330000000 1.0
C      1  0.5500910000000  0.4207310000000  0.4877240000000 1.0
C      1  0.5647580000000  0.4502420000000  0.4788850000000 1.0
C      1  0.5189820000000  0.4986450000000  0.4230170000000 1.0
C      1  0.4635710000000  0.4580630000000  0.4385020000000 1.0
C      1  0.5306400000000  0.4475850000000  0.5735950000000 1.0
C      1  0.5083300000000  0.5580450000000  0.5424090000000 1.0
C      1  0.4334880000000  0.5628540000000  0.4569870000000 1.0
C      1  0.5503640000000  0.5201180000000  0.5697350000000 1.0
C      1  0.4711750000000  0.5372550000000  0.4973340000000 1.0
C      1  0.5721450000000  0.4873670000000  0.5359740000000 1.0
C      1  0.4217350000000  0.5146860000000  0.4330130000000 1.0
C      1  0.4801340000000  0.4566410000000  0.4651710000000 1.0
C      1  0.4289920000000  0.5032970000000  0.4841720000000 1.0
C      1  0.4154240000000  0.5041210000000  0.4571360000000 1.0
C      1  0.5644130000000  0.5321560000000  0.4774130000000 1.0
C      1  0.4862760000000  0.5340380000000  0.4671990000000 1.0
C      1  0.5116350000000  0.5114040000000  0.4699800000000 1.0
C      1  0.4990950000000  0.5199890000000  0.4189160000000 1.0
C      1  0.5624700000000  0.5248580000000  0.5061700000000 1.0
C      1  0.5101970000000  0.4321690000000  0.3909220000000 1.0
C      1  0.4855780000000  0.4138830000000  0.5215180000000 1.0
C      1  0.5020410000000  0.5417590000000  0.5693770000000 1.0
C      1  0.5046280000000  0.4738580000000  0.4157330000000 1.0
C      1  0.5136550000000  0.4923530000000  0.5573410000000 1.0
C      1  0.4863110000000  0.5320070000000  0.5417550000000 1.0
C      1  0.4897600000000  0.5011170000000  0.5384560000000 1.0
C      1  0.5472300000000  0.4951160000000  0.5524520000000 1.0
C      1  0.5031630000000  0.5360520000000  0.6017090000000 1.0
C      1  0.4910750000000  0.5376350000000  0.6257040000000 1.0
C      1  0.4429370000000  0.4481030000000  0.4939750000000 1.0
C      1  0.4333130000000  0.5455320000000  0.5070970000000 1.0
C      1  0.5282090000000  0.5275860000000  0.5843140000000 1.0
C      1  0.4442160000000  0.4549280000000  0.5271940000000 1.0
C      1  0.5308910000000  0.4656200000000  0.5474200000000 1.0
C      1  0.5391120000000  0.4436490000000  0.4582600000000 1.0
C      1  0.5401140000000  0.5077300000000  0.4422540000000 1.0
C      1  0.5624160000000  0.5627270000000  0.5463370000000 1.0
C      1  0.4461840000000  0.5269500000000  0.4259940000000 1.0
C      1  0.5059950000000  0.4845920000000  0.5871250000000 1.0
C      1  0.5231540000000  0.4999820000000  0.4957680000000 1.0
C      1  0.5746310000000  0.4993200000000  0.5107430000000 1.0
C      1  0.4721560000000  0.4284790000000  0.4757570000000 1.0
C      1  0.4478950000000  0.4792500000000  0.4959820000000 1.0
C      1  0.4793040000000  0.5391760000000  0.6490690000000 1.0
C      1  0.4756780000000  0.4765470000000  0.4202340000000 1.0
C      1  0.4800090000000  0.5577150000000  0.4455130000000 1.0
C      1  0.4932460000000  0.4673160000000  0.5340930000000 1.0
C      1  0.5675170000000  0.5404580000000  0.5607830000000 1.0
END
