TITL C-2778432-5617-1060 -3.02917121869021e-07 125000 -97.6005721175947 0 0 18 (Cs) n - 1
REM
REM in /home/nfs/bkarasulu/CARBON/AIRSS/Generating-Clusters/REBO/Only-C1/SD-CG/HFTN-CG
REM
REM
REM
REM
REM
REM ./C.cell (11c1c37f851c82e70ff6c80c92926a4b)
REM
REM compiler GCC version 9.2.1 20190827 (Red Hat 9.2.1-1)
REM options -cpp -mtune=generic -march=x86-64 -g -O0 -fpre-include=/usr/include/finclude/math-vector-fortran.h
REM seed -1829054363 1338956244 1468340239 -619553987 -569823949 1372309921 -272925010 443885968 286193313 -102994238 -1087498473 1693617848 -1566530755 1348442531 -2112227691 2047654233 711041442 179663971 1795335076 1867960133 637404522 -1639525596 866517330 -1398094337 -989522369 -952955524 -816263250 -1295512414 -5278744 -1196566873 1587417962 580770249 1288533309
REM
CELL 1.54180   50.00000   50.00000   50.00000   90.00000   90.00000   90.00000
LATT -1
SFAC C  
C      1  0.5076340000000  0.5096920000000  0.4902110000000 1.0
C      1  0.4628090000000  0.5194610000000  0.5129590000000 1.0
C      1  0.5242640000000  0.5250870000000  0.4718660000000 1.0
C      1  0.4842430000000  0.5264700000000  0.4959980000000 1.0
C      1  0.4693020000000  0.5724150000000  0.4813450000000 1.0
C      1  0.5546030000000  0.4811240000000  0.4759240000000 1.0
C      1  0.5128150000000  0.4840150000000  0.5003680000000 1.0
C      1  0.4418520000000  0.5376370000000  0.5165060000000 1.0
C      1  0.5119300000000  0.5499630000000  0.4665680000000 1.0
C      1  0.4222140000000  0.5546700000000  0.5198290000000 1.0
C      1  0.4948450000000  0.4710830000000  0.5182620000000 1.0
C      1  0.5222080000000  0.4326870000000  0.5212690000000 1.0
C      1  0.5642160000000  0.4295490000000  0.4968170000000 1.0
C      1  0.4992440000000  0.4459590000000  0.5286170000000 1.0
C      1  0.4867480000000  0.5517970000000  0.4812510000000 1.0
C      1  0.5366620000000  0.4696840000000  0.4930240000000 1.0
C      1  0.5417660000000  0.4433810000000  0.5035540000000 1.0
C      1  0.4626450000000  0.4953240000000  0.5256320000000 1.0
END
