TITL C-2778430-5657-1423 -0.00713312091787672 125000 -308.961814886858 0 0 55 (C1) n - 1
REM
REM in /home/nfs/bkarasulu/CARBON/AIRSS/Generating-Clusters/REBO/Only-C1/SD-CG/HFTN-CG
REM
REM
REM
REM
REM
REM ./C.cell (11c1c37f851c82e70ff6c80c92926a4b)
REM
REM compiler GCC version 9.2.1 20190827 (Red Hat 9.2.1-1)
REM options -cpp -mtune=generic -march=x86-64 -g -O0 -fpre-include=/usr/include/finclude/math-vector-fortran.h
REM seed -242112077 1684070077 1543889616 -1219130607 -1576386562 1235986989 499205299 -447500047 1980375072 -1278413804 1140901594 2071981115 215303217 -706600005 -1456754583 1228188856 -254154973 -1213866264 1588143637 1638204708 799209851 340355380 -825348424 -204380802 726984249 -1331729384 622141203 -1568525667 300424723 -1862186435 -294196121 2055213013 -1637473830
REM
CELL 1.54180   50.00000   50.00000   50.00000   90.00000   90.00000   90.00000
LATT -1
SFAC C  
C      1  0.4781660000000  0.4355920000000  0.4478040000000 1.0
C      1  0.5100260000000  0.5350530000000  0.4735590000000 1.0
C      1  0.4485240000000  0.4704050000000  0.5295370000000 1.0
C      1  0.4749110000000  0.5098840000000  0.5474530000000 1.0
C      1  0.5630910000000  0.4841850000000  0.4999370000000 1.0
C      1  0.4857950000000  0.4887540000000  0.5714890000000 1.0
C      1  0.5482460000000  0.4573420000000  0.4877400000000 1.0
C      1  0.4890450000000  0.5779150000000  0.4941510000000 1.0
C      1  0.4768730000000  0.4322480000000  0.4815790000000 1.0
C      1  0.4343430000000  0.5637440000000  0.5178750000000 1.0
C      1  0.4816050000000  0.4375360000000  0.5326320000000 1.0
C      1  0.4542910000000  0.4551870000000  0.4892630000000 1.0
C      1  0.5259820000000  0.4639920000000  0.5576580000000 1.0
C      1  0.4537790000000  0.4746770000000  0.4620420000000 1.0
C      1  0.5419570000000  0.5083010000000  0.4917600000000 1.0
C      1  0.4906380000000  0.5597140000000  0.4697970000000 1.0
C      1  0.4803100000000  0.5513140000000  0.5074590000000 1.0
C      1  0.4837390000000  0.4426980000000  0.5592780000000 1.0
C      1  0.5629850000000  0.4757740000000  0.5316270000000 1.0
C      1  0.4404490000000  0.4862120000000  0.4913860000000 1.0
C      1  0.5385550000000  0.5209750000000  0.4636620000000 1.0
C      1  0.5137950000000  0.5037350000000  0.5038730000000 1.0
C      1  0.4625920000000  0.4966520000000  0.5233080000000 1.0
C      1  0.4625840000000  0.4565060000000  0.4390270000000 1.0
C      1  0.5653880000000  0.4948140000000  0.4255320000000 1.0
C      1  0.5455930000000  0.4849620000000  0.5530470000000 1.0
C      1  0.5090790000000  0.5921180000000  0.5082420000000 1.0
C      1  0.5264960000000  0.5779380000000  0.5242930000000 1.0
C      1  0.5427790000000  0.5129150000000  0.5564620000000 1.0
C      1  0.4671450000000  0.5543190000000  0.4568020000000 1.0
C      1  0.4350900000000  0.5149420000000  0.4739520000000 1.0
C      1  0.4998720000000  0.5081010000000  0.4573430000000 1.0
C      1  0.4452730000000  0.5170050000000  0.5055480000000 1.0
C      1  0.4536650000000  0.5449800000000  0.5115690000000 1.0
C      1  0.4778780000000  0.5110580000000  0.4327050000000 1.0
C      1  0.4885040000000  0.5337320000000  0.5428030000000 1.0
C      1  0.4570730000000  0.5255880000000  0.4534540000000 1.0
C      1  0.4875000000000  0.4464530000000  0.5080980000000 1.0
C      1  0.5480800000000  0.5354390000000  0.5398640000000 1.0
C      1  0.5209190000000  0.4629270000000  0.4744040000000 1.0
C      1  0.4817720000000  0.4956390000000  0.4987740000000 1.0
C      1  0.5074810000000  0.5351460000000  0.5076290000000 1.0
C      1  0.4994050000000  0.4649000000000  0.5677280000000 1.0
C      1  0.5455520000000  0.5001110000000  0.4425230000000 1.0
C      1  0.5055090000000  0.4385600000000  0.4642040000000 1.0
C      1  0.4600670000000  0.5056800000000  0.5778560000000 1.0
C      1  0.5034930000000  0.4714520000000  0.4997420000000 1.0
C      1  0.4715510000000  0.4996650000000  0.4702530000000 1.0
C      1  0.5507350000000  0.4506550000000  0.5176560000000 1.0
C      1  0.5718890000000  0.5160850000000  0.5040120000000 1.0
C      1  0.4774400000000  0.5045930000000  0.4075760000000 1.0
C      1  0.5272700000000  0.5496770000000  0.5263100000000 1.0
C      1  0.5211190000000  0.4865150000000  0.4543390000000 1.0
C      1  0.5722980000000  0.5332940000000  0.5248030000000 1.0
C      1  0.5318090000000  0.4423430000000  0.5385830000000 1.0
END
