TITL C-2778426-5645-145 -0.000855472939945897 125000 -180.59575716261 0 0 33 (C1) n - 1
REM
REM in /home/nfs/bkarasulu/CARBON/AIRSS/Generating-Clusters/REBO/Only-C1/SD-CG/HFTN-CG
REM
REM
REM
REM
REM
REM ./C.cell (11c1c37f851c82e70ff6c80c92926a4b)
REM
REM compiler GCC version 9.2.1 20190827 (Red Hat 9.2.1-1)
REM options -cpp -mtune=generic -march=x86-64 -g -O0 -fpre-include=/usr/include/finclude/math-vector-fortran.h
REM seed -1866528361 -358738964 1750931521 -2133551891 1367539638 -1355551423 -966658330 -1863744026 703144080 1757145955 906150649 -1328652749 -1500450155 -2105779234 1825551389 1350633495 -489254996 728855613 -1739423146 2031877433 -773429306 1100239769 -1586404655 -2131158745 -179547218 1014216419 1314021121 -1130382422 1892269648 -2003047475 -1277174188 452769316 -157436132
REM
CELL 1.54180   50.00000   50.00000   50.00000   90.00000   90.00000   90.00000
LATT -1
SFAC C  
C      1  0.4943460000000  0.5420680000000  0.4749520000000 1.0
C      1  0.5016270000000  0.5194710000000  0.5456580000000 1.0
C      1  0.5419650000000  0.5245880000000  0.4437260000000 1.0
C      1  0.5332040000000  0.5119640000000  0.5368580000000 1.0
C      1  0.4682070000000  0.5356700000000  0.4695650000000 1.0
C      1  0.4885540000000  0.5041420000000  0.4862170000000 1.0
C      1  0.5577470000000  0.4848070000000  0.4710200000000 1.0
C      1  0.4088980000000  0.5052770000000  0.5177000000000 1.0
C      1  0.5159080000000  0.4653900000000  0.4784680000000 1.0
C      1  0.4742440000000  0.4921830000000  0.5100360000000 1.0
C      1  0.5599700000000  0.5237940000000  0.4942770000000 1.0
C      1  0.5610740000000  0.4706460000000  0.5286580000000 1.0
C      1  0.5188460000000  0.4631960000000  0.5451050000000 1.0
C      1  0.5582190000000  0.5230750000000  0.5191510000000 1.0
C      1  0.4424030000000  0.5232990000000  0.4846150000000 1.0
C      1  0.5007240000000  0.5491850000000  0.5354050000000 1.0
C      1  0.4751280000000  0.4601580000000  0.5060350000000 1.0
C      1  0.4816170000000  0.5030260000000  0.5367710000000 1.0
C      1  0.4458210000000  0.4710760000000  0.4999080000000 1.0
C      1  0.5009880000000  0.4511520000000  0.4997870000000 1.0
C      1  0.5181660000000  0.5343600000000  0.4875670000000 1.0
C      1  0.5105020000000  0.4933740000000  0.4736290000000 1.0
C      1  0.5205810000000  0.5355780000000  0.5150740000000 1.0
C      1  0.5400240000000  0.4834850000000  0.5446660000000 1.0
C      1  0.4367210000000  0.4903610000000  0.4489430000000 1.0
C      1  0.5487460000000  0.4519400000000  0.5095270000000 1.0
C      1  0.4295210000000  0.4779100000000  0.4724930000000 1.0
C      1  0.5384050000000  0.5129600000000  0.4701800000000 1.0
C      1  0.5208380000000  0.4461770000000  0.5210460000000 1.0
C      1  0.4280470000000  0.4996190000000  0.4987960000000 1.0
C      1  0.4869360000000  0.5716830000000  0.5387990000000 1.0
C      1  0.4472160000000  0.5166140000000  0.4533190000000 1.0
C      1  0.5448080000000  0.4617710000000  0.4820500000000 1.0
END
