TITL C-2778436-5916-1472 0.00745817773249828 125000 -951.110432291796 0 0 163 (C1) n - 1
REM
REM in /home/nfs/bkarasulu/CARBON/AIRSS/Generating-Clusters/REBO/Only-C1/SD-CG/HFTN-CG
REM
REM
REM
REM
REM
REM ./C.cell (11c1c37f851c82e70ff6c80c92926a4b)
REM
REM compiler GCC version 9.2.1 20190827 (Red Hat 9.2.1-1)
REM options -cpp -mtune=generic -march=x86-64 -g -O0 -fpre-include=/usr/include/finclude/math-vector-fortran.h
REM seed 282614068 1947938321 2046532633 -1795522790 -438518783 -1643397990 -421833222 -1051859966 -2111300814 -4217441 -1100697466 -584334401 203020210 -738396735 -1048710507 -464041787 1129379509 -1960868982 911822939 -330937091 1434825597 -141248548 -2007079035 -1363534627 122080328 1504955399 -2087274484 -536357162 -553995395 -1055124450 -2125333279 -2128054164 -833489715
REM
CELL 1.54180   50.00000   50.00000   50.00000   90.00000   90.00000   90.00000
LATT -1
SFAC C  
C      1  0.4470440000000  0.4053810000000  0.5102400000000 1.0
C      1  0.4626980000000  0.4084680000000  0.4513690000000 1.0
C      1  0.4303740000000  0.5684860000000  0.5207990000000 1.0
C      1  0.4707410000000  0.5294690000000  0.4867200000000 1.0
C      1  0.5042830000000  0.5470770000000  0.4990590000000 1.0
C      1  0.4274340000000  0.4788200000000  0.4589060000000 1.0
C      1  0.5776800000000  0.4166050000000  0.4968470000000 1.0
C      1  0.5448640000000  0.4072940000000  0.5349380000000 1.0
C      1  0.4800280000000  0.5073750000000  0.5210460000000 1.0
C      1  0.5563850000000  0.5719420000000  0.5478260000000 1.0
C      1  0.4939910000000  0.6074470000000  0.4873370000000 1.0
C      1  0.4687390000000  0.5572600000000  0.4202440000000 1.0
C      1  0.5476870000000  0.4139800000000  0.4459830000000 1.0
C      1  0.4402090000000  0.4281890000000  0.4855270000000 1.0
C      1  0.5176920000000  0.5446660000000  0.4706780000000 1.0
C      1  0.4782560000000  0.4493510000000  0.5335180000000 1.0
C      1  0.4753900000000  0.4910130000000  0.4971430000000 1.0
C      1  0.5292070000000  0.5305540000000  0.5402920000000 1.0
C      1  0.4800620000000  0.4640650000000  0.4417090000000 1.0
C      1  0.4982760000000  0.6033460000000  0.5187010000000 1.0
C      1  0.4480150000000  0.5434460000000  0.5727820000000 1.0
C      1  0.4032850000000  0.4856180000000  0.5104660000000 1.0
C      1  0.5649710000000  0.4184120000000  0.4711580000000 1.0
C      1  0.5198320000000  0.5062540000000  0.4335500000000 1.0
C      1  0.4755120000000  0.4914640000000  0.5471980000000 1.0
C      1  0.5509630000000  0.5728430000000  0.4978030000000 1.0
C      1  0.4441550000000  0.3959720000000  0.4769860000000 1.0
C      1  0.5417630000000  0.4900780000000  0.5438850000000 1.0
C      1  0.4292020000000  0.4539790000000  0.5798530000000 1.0
C      1  0.5927780000000  0.5363910000000  0.5158710000000 1.0
C      1  0.4766730000000  0.5168120000000  0.5651550000000 1.0
C      1  0.5434630000000  0.5438050000000  0.4929060000000 1.0
C      1  0.5437120000000  0.5421740000000  0.4042360000000 1.0
C      1  0.5713230000000  0.4604400000000  0.4623220000000 1.0
C      1  0.4342160000000  0.4936010000000  0.5069490000000 1.0
C      1  0.5217200000000  0.4954460000000  0.5197770000000 1.0
C      1  0.4181630000000  0.5470370000000  0.4977930000000 1.0
C      1  0.4992360000000  0.5463160000000  0.4208160000000 1.0
C      1  0.4442430000000  0.4497360000000  0.5351020000000 1.0
C      1  0.4575300000000  0.4386010000000  0.4449090000000 1.0
C      1  0.5288140000000  0.4646320000000  0.4914070000000 1.0
C      1  0.4342170000000  0.5031120000000  0.4777000000000 1.0
C      1  0.4805050000000  0.4223280000000  0.5626810000000 1.0
C      1  0.4722550000000  0.4649220000000  0.4971870000000 1.0
C      1  0.5456180000000  0.6030000000000  0.4851890000000 1.0
C      1  0.4598940000000  0.5797620000000  0.5583400000000 1.0
C      1  0.5222990000000  0.4958250000000  0.4867120000000 1.0
C      1  0.5890440000000  0.4412350000000  0.5377520000000 1.0
C      1  0.4676550000000  0.5963030000000  0.4820570000000 1.0
C      1  0.4287960000000  0.5113370000000  0.5338350000000 1.0
C      1  0.5257660000000  0.5570820000000  0.4189490000000 1.0
C      1  0.5308650000000  0.4755820000000  0.4435180000000 1.0
C      1  0.4495380000000  0.5116830000000  0.5851960000000 1.0
C      1  0.4128540000000  0.4489870000000  0.5347240000000 1.0
C      1  0.5928470000000  0.5278280000000  0.4654440000000 1.0
C      1  0.5586230000000  0.5504720000000  0.4417820000000 1.0
C      1  0.5557860000000  0.4630340000000  0.5336520000000 1.0
C      1  0.5711810000000  0.5755420000000  0.5230820000000 1.0
C      1  0.5737860000000  0.5097580000000  0.4491310000000 1.0
C      1  0.4540610000000  0.4486660000000  0.4151840000000 1.0
C      1  0.5129430000000  0.4428420000000  0.5133800000000 1.0
C      1  0.5810690000000  0.5309870000000  0.5445840000000 1.0
C      1  0.4089000000000  0.5359480000000  0.5270160000000 1.0
C      1  0.4896420000000  0.4202970000000  0.5238990000000 1.0
C      1  0.5041180000000  0.3997210000000  0.4828750000000 1.0
C      1  0.5193840000000  0.5896760000000  0.4505590000000 1.0
C      1  0.4033610000000  0.4600610000000  0.4699000000000 1.0
C      1  0.4588630000000  0.5827190000000  0.4597980000000 1.0
C      1  0.5872280000000  0.5026530000000  0.5532070000000 1.0
C      1  0.5824690000000  0.5562800000000  0.4632570000000 1.0
C      1  0.5530520000000  0.5029400000000  0.5734790000000 1.0
C      1  0.4265650000000  0.5548280000000  0.5491640000000 1.0
C      1  0.4804670000000  0.5611830000000  0.5405870000000 1.0
C      1  0.5139210000000  0.4193800000000  0.5571400000000 1.0
C      1  0.5684850000000  0.5215360000000  0.4962990000000 1.0
C      1  0.5706440000000  0.4789000000000  0.4412610000000 1.0
C      1  0.4595790000000  0.5147100000000  0.4581930000000 1.0
C      1  0.3924110000000  0.4676660000000  0.4933120000000 1.0
C      1  0.4567210000000  0.4689310000000  0.5795860000000 1.0
C      1  0.5649120000000  0.5241300000000  0.4211030000000 1.0
C      1  0.5050460000000  0.4438880000000  0.4105710000000 1.0
C      1  0.5166690000000  0.4243360000000  0.4535450000000 1.0
C      1  0.5008060000000  0.4733070000000  0.5560250000000 1.0
C      1  0.5051930000000  0.5113420000000  0.6032850000000 1.0
C      1  0.4108320000000  0.4941930000000  0.5537080000000 1.0
C      1  0.4542040000000  0.5842420000000  0.5074300000000 1.0
C      1  0.4162760000000  0.5368910000000  0.4468310000000 1.0
C      1  0.5617430000000  0.4703960000000  0.5723860000000 1.0
C      1  0.4785200000000  0.5718550000000  0.4434910000000 1.0
C      1  0.5891800000000  0.4405740000000  0.5084990000000 1.0
C      1  0.4349290000000  0.4688590000000  0.4139550000000 1.0
C      1  0.5299320000000  0.5819040000000  0.5480090000000 1.0
C      1  0.4888730000000  0.3981130000000  0.4535650000000 1.0
C      1  0.5035390000000  0.5280720000000  0.5578570000000 1.0
C      1  0.5844840000000  0.4808720000000  0.5374120000000 1.0
C      1  0.4529800000000  0.5254790000000  0.5440860000000 1.0
C      1  0.5457860000000  0.4454040000000  0.4704460000000 1.0
C      1  0.4935420000000  0.5052930000000  0.4768410000000 1.0
C      1  0.5109090000000  0.4537890000000  0.4417060000000 1.0
C      1  0.5470300000000  0.5025080000000  0.4045560000000 1.0
C      1  0.4684950000000  0.4392480000000  0.4961020000000 1.0
C      1  0.5192520000000  0.5341610000000  0.5940250000000 1.0
C      1  0.4601130000000  0.5139910000000  0.4050320000000 1.0
C      1  0.4926100000000  0.4952760000000  0.4478850000000 1.0
C      1  0.4978970000000  0.4794390000000  0.6057440000000 1.0
C      1  0.5220830000000  0.4257590000000  0.4853990000000 1.0
C      1  0.5445060000000  0.5796400000000  0.4364440000000 1.0
C      1  0.5100510000000  0.4323990000000  0.5874230000000 1.0
C      1  0.3896130000000  0.5085870000000  0.5275340000000 1.0
C      1  0.4431720000000  0.4943830000000  0.4353400000000 1.0
C      1  0.4495680000000  0.5562010000000  0.4882610000000 1.0
C      1  0.4119130000000  0.5250960000000  0.4754380000000 1.0
C      1  0.5286890000000  0.4721540000000  0.5693670000000 1.0
C      1  0.5514350000000  0.4774710000000  0.4181340000000 1.0
C      1  0.4302990000000  0.5209020000000  0.4200110000000 1.0
C      1  0.5539390000000  0.5334380000000  0.5241960000000 1.0
C      1  0.5085320000000  0.5620700000000  0.5555040000000 1.0
C      1  0.4734750000000  0.5560500000000  0.5884540000000 1.0
C      1  0.4795580000000  0.5205390000000  0.4310950000000 1.0
C      1  0.5015600000000  0.3921840000000  0.5142600000000 1.0
C      1  0.5574410000000  0.4640270000000  0.5036280000000 1.0
C      1  0.5012280000000  0.4720320000000  0.5238170000000 1.0
C      1  0.5450840000000  0.6137250000000  0.5153180000000 1.0
C      1  0.5649790000000  0.5857280000000  0.4629070000000 1.0
C      1  0.5172950000000  0.5106650000000  0.4024610000000 1.0
C      1  0.5361220000000  0.5289970000000  0.4508830000000 1.0
C      1  0.4696900000000  0.5392600000000  0.5195180000000 1.0
C      1  0.5012890000000  0.5560510000000  0.5858740000000 1.0
C      1  0.4342000000000  0.5629770000000  0.4585960000000 1.0
C      1  0.4787850000000  0.4548390000000  0.5676710000000 1.0
C      1  0.5446710000000  0.4993150000000  0.4637440000000 1.0
C      1  0.4806850000000  0.4547570000000  0.4023320000000 1.0
C      1  0.5119970000000  0.4594290000000  0.5918010000000 1.0
C      1  0.4472160000000  0.4309610000000  0.5629820000000 1.0
C      1  0.4287790000000  0.4882390000000  0.5780160000000 1.0
C      1  0.4330650000000  0.4465480000000  0.4627250000000 1.0
C      1  0.5798930000000  0.4503900000000  0.5627500000000 1.0
C      1  0.5852390000000  0.4683040000000  0.4890750000000 1.0
C      1  0.5191640000000  0.3922910000000  0.5382640000000 1.0
C      1  0.4921210000000  0.5144800000000  0.3935660000000 1.0
C      1  0.5358070000000  0.4380500000000  0.5381710000000 1.0
C      1  0.5830630000000  0.5762280000000  0.4908840000000 1.0
C      1  0.3890850000000  0.5198100000000  0.4956500000000 1.0
C      1  0.4715870000000  0.4845180000000  0.4158800000000 1.0
C      1  0.5034590000000  0.5672330000000  0.4545600000000 1.0
C      1  0.5067510000000  0.5246260000000  0.5181820000000 1.0
C      1  0.5444310000000  0.5300920000000  0.5783610000000 1.0
C      1  0.4744040000000  0.5019490000000  0.6021600000000 1.0
C      1  0.6067390000000  0.4735970000000  0.5223420000000 1.0
C      1  0.5651480000000  0.4003890000000  0.5166860000000 1.0
C      1  0.5264650000000  0.4233990000000  0.4211810000000 1.0
C      1  0.4721000000000  0.5912150000000  0.5307720000000 1.0
C      1  0.4739860000000  0.4071810000000  0.4895500000000 1.0
C      1  0.6080400000000  0.5237670000000  0.4929170000000 1.0
C      1  0.5601080000000  0.5473530000000  0.5611860000000 1.0
C      1  0.4964680000000  0.5721530000000  0.5056960000000 1.0
C      1  0.5182760000000  0.6070550000000  0.4723870000000 1.0
C      1  0.5249980000000  0.6041860000000  0.5317090000000 1.0
C      1  0.5904950000000  0.4972180000000  0.4870140000000 1.0
C      1  0.4525790000000  0.4794400000000  0.5288380000000 1.0
C      1  0.4598040000000  0.4130070000000  0.5369960000000 1.0
C      1  0.3988690000000  0.4670830000000  0.5455120000000 1.0
C      1  0.4402300000000  0.5514350000000  0.4270660000000 1.0
END
