TITL C-2778423-5760-724 -0.00283352696133619 125000 -884.508705373287 0 0 151 (C1) n - 1
REM
REM in /home/nfs/bkarasulu/CARBON/AIRSS/Generating-Clusters/REBO/Only-C1/SD-CG/HFTN-CG
REM
REM
REM
REM
REM
REM ./C.cell (11c1c37f851c82e70ff6c80c92926a4b)
REM
REM compiler GCC version 9.2.1 20190827 (Red Hat 9.2.1-1)
REM options -cpp -mtune=generic -march=x86-64 -g -O0 -fpre-include=/usr/include/finclude/math-vector-fortran.h
REM seed -660157868 696736507 333404396 797404858 1457130001 -910215872 607957399 -486260085 836843538 -1957862093 -1895408284 1942844908 931021039 1379221578 1594823700 -173495063 -1454956550 745351239 -2085215150 1101111711 480779563 -894165467 864208308 -593503475 1855099197 776695057 1697866289 2037083627 118071729 -1669887601 -664628313 1642344119 1984346455
REM
CELL 1.54180   50.00000   50.00000   50.00000   90.00000   90.00000   90.00000
LATT -1
SFAC C  
C      1  0.5325860000000  0.4518650000000  0.6029160000000 1.0
C      1  0.5823350000000  0.4472920000000  0.4384740000000 1.0
C      1  0.4756030000000  0.5483640000000  0.5630190000000 1.0
C      1  0.5304800000000  0.5473490000000  0.5255360000000 1.0
C      1  0.5774390000000  0.4986420000000  0.5375540000000 1.0
C      1  0.4063830000000  0.5163960000000  0.5028930000000 1.0
C      1  0.4459330000000  0.4740240000000  0.4942460000000 1.0
C      1  0.4890500000000  0.4736260000000  0.4564490000000 1.0
C      1  0.5380460000000  0.5002800000000  0.6061110000000 1.0
C      1  0.5443360000000  0.5225070000000  0.5810530000000 1.0
C      1  0.5129190000000  0.5871880000000  0.5566930000000 1.0
C      1  0.4376410000000  0.5502570000000  0.4543610000000 1.0
C      1  0.4422040000000  0.4737780000000  0.4632330000000 1.0
C      1  0.4660390000000  0.5422260000000  0.4712700000000 1.0
C      1  0.5569770000000  0.4511830000000  0.4260650000000 1.0
C      1  0.4563070000000  0.5491620000000  0.5017850000000 1.0
C      1  0.5481360000000  0.4799820000000  0.4270900000000 1.0
C      1  0.5416820000000  0.4598830000000  0.4765980000000 1.0
C      1  0.5047900000000  0.4200230000000  0.4952570000000 1.0
C      1  0.4112500000000  0.4850350000000  0.5269000000000 1.0
C      1  0.4006540000000  0.4838050000000  0.4944500000000 1.0
C      1  0.5759900000000  0.5958210000000  0.4840170000000 1.0
C      1  0.4804330000000  0.4911970000000  0.5033860000000 1.0
C      1  0.5342770000000  0.4660260000000  0.5558930000000 1.0
C      1  0.4432430000000  0.5347340000000  0.5479880000000 1.0
C      1  0.6149370000000  0.4851550000000  0.5005470000000 1.0
C      1  0.5638380000000  0.5165780000000  0.4237730000000 1.0
C      1  0.5425100000000  0.5243010000000  0.4084510000000 1.0
C      1  0.4721110000000  0.5564220000000  0.4162630000000 1.0
C      1  0.5231740000000  0.5142550000000  0.5222080000000 1.0
C      1  0.5057460000000  0.5730410000000  0.4479560000000 1.0
C      1  0.5086000000000  0.4502880000000  0.5613300000000 1.0
C      1  0.4892410000000  0.4908020000000  0.5633880000000 1.0
C      1  0.5151360000000  0.5309190000000  0.4028230000000 1.0
C      1  0.5448610000000  0.4997310000000  0.5376920000000 1.0
C      1  0.4801830000000  0.5200260000000  0.5513820000000 1.0
C      1  0.4110260000000  0.4493670000000  0.4578890000000 1.0
C      1  0.5055570000000  0.5458980000000  0.5053610000000 1.0
C      1  0.4337800000000  0.5220660000000  0.4833890000000 1.0
C      1  0.4751720000000  0.4160630000000  0.5676140000000 1.0
C      1  0.4511090000000  0.4478660000000  0.5121660000000 1.0
C      1  0.5107780000000  0.5016880000000  0.5871550000000 1.0
C      1  0.5081660000000  0.4163730000000  0.5583190000000 1.0
C      1  0.4691030000000  0.4542180000000  0.5341540000000 1.0
C      1  0.4771930000000  0.4623490000000  0.4856360000000 1.0
C      1  0.5619150000000  0.4821000000000  0.4930390000000 1.0
C      1  0.5351360000000  0.4948360000000  0.5668860000000 1.0
C      1  0.5843620000000  0.4230700000000  0.4980940000000 1.0
C      1  0.4070300000000  0.5008310000000  0.5552410000000 1.0
C      1  0.4785830000000  0.4322130000000  0.4879460000000 1.0
C      1  0.4232390000000  0.4615180000000  0.4305790000000 1.0
C      1  0.4194630000000  0.4376310000000  0.5062650000000 1.0
C      1  0.5396100000000  0.4254500000000  0.5599910000000 1.0
C      1  0.5155810000000  0.4265460000000  0.4464450000000 1.0
C      1  0.4194000000000  0.5564790000000  0.5457560000000 1.0
C      1  0.5268270000000  0.4876400000000  0.4067280000000 1.0
C      1  0.5248720000000  0.5609540000000  0.5535200000000 1.0
C      1  0.5693250000000  0.5229130000000  0.5590170000000 1.0
C      1  0.5015530000000  0.5745150000000  0.4939470000000 1.0
C      1  0.4465390000000  0.4208630000000  0.4936560000000 1.0
C      1  0.4809840000000  0.5122960000000  0.5959560000000 1.0
C      1  0.5172130000000  0.4989780000000  0.4438600000000 1.0
C      1  0.5084930000000  0.4956450000000  0.4752590000000 1.0
C      1  0.4944180000000  0.5379600000000  0.5840820000000 1.0
C      1  0.5754600000000  0.4574700000000  0.4760760000000 1.0
C      1  0.6019940000000  0.5695710000000  0.5130820000000 1.0
C      1  0.4765640000000  0.5813880000000  0.4552650000000 1.0
C      1  0.4690280000000  0.5718830000000  0.5458800000000 1.0
C      1  0.5476140000000  0.4346180000000  0.5848760000000 1.0
C      1  0.5780720000000  0.5470840000000  0.5498730000000 1.0
C      1  0.5263180000000  0.4310580000000  0.4741830000000 1.0
C      1  0.5448610000000  0.5362850000000  0.4791910000000 1.0
C      1  0.4995100000000  0.4110540000000  0.5257600000000 1.0
C      1  0.5270560000000  0.4453160000000  0.4288870000000 1.0
C      1  0.4945610000000  0.5439900000000  0.4589020000000 1.0
C      1  0.5450980000000  0.4366140000000  0.5312940000000 1.0
C      1  0.4524840000000  0.5023490000000  0.5530020000000 1.0
C      1  0.4228240000000  0.5248110000000  0.4452180000000 1.0
C      1  0.4077250000000  0.5066590000000  0.4699830000000 1.0
C      1  0.5246370000000  0.5807920000000  0.4735810000000 1.0
C      1  0.5060580000000  0.4548830000000  0.5926030000000 1.0
C      1  0.4191020000000  0.4555460000000  0.5344930000000 1.0
C      1  0.5940970000000  0.6138020000000  0.4842260000000 1.0
C      1  0.5241690000000  0.4980520000000  0.3819020000000 1.0
C      1  0.4325510000000  0.5982270000000  0.4832430000000 1.0
C      1  0.4228160000000  0.5239530000000  0.5687770000000 1.0
C      1  0.4904470000000  0.5241940000000  0.5229520000000 1.0
C      1  0.4479400000000  0.5965970000000  0.5064980000000 1.0
C      1  0.4031810000000  0.4547060000000  0.4850350000000 1.0
C      1  0.5530690000000  0.4685470000000  0.5276470000000 1.0
C      1  0.4251970000000  0.5519400000000  0.4922970000000 1.0
C      1  0.4495430000000  0.4516470000000  0.4221270000000 1.0
C      1  0.5546820000000  0.5746610000000  0.4837720000000 1.0
C      1  0.5440580000000  0.5598340000000  0.4550490000000 1.0
C      1  0.5438740000000  0.4752720000000  0.6150520000000 1.0
C      1  0.4988430000000  0.5222290000000  0.4378390000000 1.0
C      1  0.4876830000000  0.4232550000000  0.4442080000000 1.0
C      1  0.5553190000000  0.4224490000000  0.4797120000000 1.0
C      1  0.5222370000000  0.4594910000000  0.5180380000000 1.0
C      1  0.4345520000000  0.4569590000000  0.5580910000000 1.0
C      1  0.4979560000000  0.4435000000000  0.5310560000000 1.0
C      1  0.4854810000000  0.5960420000000  0.5589180000000 1.0
C      1  0.6029720000000  0.4395180000000  0.5142650000000 1.0
C      1  0.5126970000000  0.4880060000000  0.5058140000000 1.0
C      1  0.4395870000000  0.4969030000000  0.5134970000000 1.0
C      1  0.4331170000000  0.4854370000000  0.5710260000000 1.0
C      1  0.4603650000000  0.5744880000000  0.5175440000000 1.0
C      1  0.4565630000000  0.5235250000000  0.5195180000000 1.0
C      1  0.5843520000000  0.4271470000000  0.4641800000000 1.0
C      1  0.4406440000000  0.4400240000000  0.4590730000000 1.0
C      1  0.5370290000000  0.5585620000000  0.4280550000000 1.0
C      1  0.4917790000000  0.5135020000000  0.3995580000000 1.0
C      1  0.4256550000000  0.5829500000000  0.5608320000000 1.0
C      1  0.4602680000000  0.4917810000000  0.5906490000000 1.0
C      1  0.4517050000000  0.5928710000000  0.5624990000000 1.0
C      1  0.4355610000000  0.5143560000000  0.4154450000000 1.0
C      1  0.4596320000000  0.5669500000000  0.4389920000000 1.0
C      1  0.5950880000000  0.4480850000000  0.5400660000000 1.0
C      1  0.4734000000000  0.4489650000000  0.4380020000000 1.0
C      1  0.5093500000000  0.4710480000000  0.4287520000000 1.0
C      1  0.4052320000000  0.5256010000000  0.5330570000000 1.0
C      1  0.4574120000000  0.5373650000000  0.4032340000000 1.0
C      1  0.4630240000000  0.5096630000000  0.4806620000000 1.0
C      1  0.4732060000000  0.5100650000000  0.4276290000000 1.0
C      1  0.5438370000000  0.4883400000000  0.4580580000000 1.0
C      1  0.4775170000000  0.4648020000000  0.5818970000000 1.0
C      1  0.5546260000000  0.4159680000000  0.5122180000000 1.0
C      1  0.4763060000000  0.3974200000000  0.5438300000000 1.0
C      1  0.5550040000000  0.5533450000000  0.5070350000000 1.0
C      1  0.5863720000000  0.4987010000000  0.5077680000000 1.0
C      1  0.5220350000000  0.5431610000000  0.5762990000000 1.0
C      1  0.5586620000000  0.5107790000000  0.4748930000000 1.0
C      1  0.5923510000000  0.4755640000000  0.4529590000000 1.0
C      1  0.5905420000000  0.5023370000000  0.4739550000000 1.0
C      1  0.4624020000000  0.4436950000000  0.5645940000000 1.0
C      1  0.5297990000000  0.4013920000000  0.5019060000000 1.0
C      1  0.5798180000000  0.5050290000000  0.4415040000000 1.0
C      1  0.4595990000000  0.5069700000000  0.3921420000000 1.0
C      1  0.4731530000000  0.4849090000000  0.5338140000000 1.0
C      1  0.4270580000000  0.4919020000000  0.4384770000000 1.0
C      1  0.6195270000000  0.4581780000000  0.5008340000000 1.0
C      1  0.5878630000000  0.4721920000000  0.5503280000000 1.0
C      1  0.4647120000000  0.4943920000000  0.4514370000000 1.0
C      1  0.6230880000000  0.5814190000000  0.5030070000000 1.0
C      1  0.4621200000000  0.4180760000000  0.4634230000000 1.0
C      1  0.5136860000000  0.5290280000000  0.4795970000000 1.0
C      1  0.4780860000000  0.5845030000000  0.4833620000000 1.0
C      1  0.5046810000000  0.5577340000000  0.4174870000000 1.0
C      1  0.4069640000000  0.5541560000000  0.5158430000000 1.0
C      1  0.5797210000000  0.5570620000000  0.5237190000000 1.0
C      1  0.4236730000000  0.5749190000000  0.4716890000000 1.0
END
