TITL C-2778426-5645-796 0.00295993701970429 125000 -951.800842618215 0 0 163 (C1) n - 1
REM
REM in /home/nfs/bkarasulu/CARBON/AIRSS/Generating-Clusters/REBO/Only-C1/SD-CG/HFTN-CG
REM
REM
REM
REM
REM
REM ./C.cell (11c1c37f851c82e70ff6c80c92926a4b)
REM
REM compiler GCC version 9.2.1 20190827 (Red Hat 9.2.1-1)
REM options -cpp -mtune=generic -march=x86-64 -g -O0 -fpre-include=/usr/include/finclude/math-vector-fortran.h
REM seed -586351256 -1801219311 330637722 -1097572337 -1316457131 -967397399 2006877972 1086869463 -150391362 -1491304223 1366183132 62446226 1342839579 -482895979 1201505946 -1775450342 783294143 -1021064639 -1764494713 -74367874 911565026 932038301 1459023749 840269280 1838258895 997777380 1608848264 936427371 1894047748 -713978052 1242647125 -1928675555 -1209698081
REM
CELL 1.54180   50.00000   50.00000   50.00000   90.00000   90.00000   90.00000
LATT -1
SFAC C  
C      1  0.6046470000000  0.4617500000000  0.5211280000000 1.0
C      1  0.5178360000000  0.4042120000000  0.4860320000000 1.0
C      1  0.5111030000000  0.5647810000000  0.4217220000000 1.0
C      1  0.4475030000000  0.4944130000000  0.4681300000000 1.0
C      1  0.5946100000000  0.4696850000000  0.4224940000000 1.0
C      1  0.4967580000000  0.5645930000000  0.5250460000000 1.0
C      1  0.4220620000000  0.4995400000000  0.5775420000000 1.0
C      1  0.4857360000000  0.4399800000000  0.4168540000000 1.0
C      1  0.6054340000000  0.4742530000000  0.5480100000000 1.0
C      1  0.4172110000000  0.5305590000000  0.4513230000000 1.0
C      1  0.5086950000000  0.5249040000000  0.4498780000000 1.0
C      1  0.5563180000000  0.4813120000000  0.5174410000000 1.0
C      1  0.4583350000000  0.4578840000000  0.4799800000000 1.0
C      1  0.3959700000000  0.4852860000000  0.4989430000000 1.0
C      1  0.5830400000000  0.4367770000000  0.5192710000000 1.0
C      1  0.5289780000000  0.4644560000000  0.4134450000000 1.0
C      1  0.5496430000000  0.5540300000000  0.4832720000000 1.0
C      1  0.4499860000000  0.4586560000000  0.5744070000000 1.0
C      1  0.4927970000000  0.4741340000000  0.5525610000000 1.0
C      1  0.4502330000000  0.5474140000000  0.4730160000000 1.0
C      1  0.4826370000000  0.5191930000000  0.5142780000000 1.0
C      1  0.4423250000000  0.4875080000000  0.4365150000000 1.0
C      1  0.5552260000000  0.4446350000000  0.5659050000000 1.0
C      1  0.5712820000000  0.5698790000000  0.4675940000000 1.0
C      1  0.5125870000000  0.5073130000000  0.4746080000000 1.0
C      1  0.4970010000000  0.5748760000000  0.5725030000000 1.0
C      1  0.5101140000000  0.5008040000000  0.5420650000000 1.0
C      1  0.5008530000000  0.4357300000000  0.5242470000000 1.0
C      1  0.5215190000000  0.5883030000000  0.4881940000000 1.0
C      1  0.6067300000000  0.4854350000000  0.4412120000000 1.0
C      1  0.5543000000000  0.4786490000000  0.5651780000000 1.0
C      1  0.5246030000000  0.4816460000000  0.4645710000000 1.0
C      1  0.5145760000000  0.5175130000000  0.4002490000000 1.0
C      1  0.5284180000000  0.4468040000000  0.4982440000000 1.0
C      1  0.5864410000000  0.5401540000000  0.4766320000000 1.0
C      1  0.5138050000000  0.5512780000000  0.5676400000000 1.0
C      1  0.5334530000000  0.6061500000000  0.5377060000000 1.0
C      1  0.4506820000000  0.5224680000000  0.6118580000000 1.0
C      1  0.5053200000000  0.4703770000000  0.5009400000000 1.0
C      1  0.4892820000000  0.5068320000000  0.4020640000000 1.0
C      1  0.5585470000000  0.4527480000000  0.5058490000000 1.0
C      1  0.5542910000000  0.5936460000000  0.4853780000000 1.0
C      1  0.5578320000000  0.5316560000000  0.5679310000000 1.0
C      1  0.5488670000000  0.5030990000000  0.4935890000000 1.0
C      1  0.4746970000000  0.4356040000000  0.5690220000000 1.0
C      1  0.4656770000000  0.5457070000000  0.4283760000000 1.0
C      1  0.4552600000000  0.5148570000000  0.5617310000000 1.0
C      1  0.5674880000000  0.5318050000000  0.4553170000000 1.0
C      1  0.5933430000000  0.4457210000000  0.4881080000000 1.0
C      1  0.4718860000000  0.4700770000000  0.5089690000000 1.0
C      1  0.4882670000000  0.4995900000000  0.5936020000000 1.0
C      1  0.5779130000000  0.4881660000000  0.5344750000000 1.0
C      1  0.4828540000000  0.5391990000000  0.4668860000000 1.0
C      1  0.5091010000000  0.3953800000000  0.4616960000000 1.0
C      1  0.4776800000000  0.5979470000000  0.5559160000000 1.0
C      1  0.3976260000000  0.4150490000000  0.5245080000000 1.0
C      1  0.4077160000000  0.5138130000000  0.5113380000000 1.0
C      1  0.5114440000000  0.5998900000000  0.4513450000000 1.0
C      1  0.4801720000000  0.4064300000000  0.4562800000000 1.0
C      1  0.5299770000000  0.4452040000000  0.5324710000000 1.0
C      1  0.4348940000000  0.5745440000000  0.5273210000000 1.0
C      1  0.4408350000000  0.4931360000000  0.5429640000000 1.0
C      1  0.5046210000000  0.6067440000000  0.5100510000000 1.0
C      1  0.4172800000000  0.4693170000000  0.4462720000000 1.0
C      1  0.4877620000000  0.4690360000000  0.4728250000000 1.0
C      1  0.5805330000000  0.5146510000000  0.5542420000000 1.0
C      1  0.5754410000000  0.5697150000000  0.5403930000000 1.0
C      1  0.5177150000000  0.5485860000000  0.5394900000000 1.0
C      1  0.5986410000000  0.4796810000000  0.4928430000000 1.0
C      1  0.4329830000000  0.4603890000000  0.5463620000000 1.0
C      1  0.3912710000000  0.5372800000000  0.4952840000000 1.0
C      1  0.5289340000000  0.5297420000000  0.5817660000000 1.0
C      1  0.5429170000000  0.5873060000000  0.4544640000000 1.0
C      1  0.5236050000000  0.4663930000000  0.5569650000000 1.0
C      1  0.5674610000000  0.4216920000000  0.4823020000000 1.0
C      1  0.4175620000000  0.5498640000000  0.4775500000000 1.0
C      1  0.5043590000000  0.4199810000000  0.5626760000000 1.0
C      1  0.4111500000000  0.5585340000000  0.5098580000000 1.0
C      1  0.5917100000000  0.4909470000000  0.4638820000000 1.0
C      1  0.4451590000000  0.5624770000000  0.5798120000000 1.0
C      1  0.5411520000000  0.4500360000000  0.4401740000000 1.0
C      1  0.5947910000000  0.5136560000000  0.4963730000000 1.0
C      1  0.3961230000000  0.5123940000000  0.4538120000000 1.0
C      1  0.4610780000000  0.3928270000000  0.4768630000000 1.0
C      1  0.4927830000000  0.4352410000000  0.4701110000000 1.0
C      1  0.5119180000000  0.5257960000000  0.5010260000000 1.0
C      1  0.4332380000000  0.4750850000000  0.4893100000000 1.0
C      1  0.4676970000000  0.4022700000000  0.5060530000000 1.0
C      1  0.5258400000000  0.4360600000000  0.5711150000000 1.0
C      1  0.4667830000000  0.4662800000000  0.4272010000000 1.0
C      1  0.4613310000000  0.4965990000000  0.6064950000000 1.0
C      1  0.5379680000000  0.5661370000000  0.4322030000000 1.0
C      1  0.4835160000000  0.5045760000000  0.5631760000000 1.0
C      1  0.4125170000000  0.4305280000000  0.4818260000000 1.0
C      1  0.4477400000000  0.5358450000000  0.5871380000000 1.0
C      1  0.5139830000000  0.4845180000000  0.4346940000000 1.0
C      1  0.5519200000000  0.4726110000000  0.4787730000000 1.0
C      1  0.4690980000000  0.5074870000000  0.3833410000000 1.0
C      1  0.4687360000000  0.5558500000000  0.5369160000000 1.0
C      1  0.5653480000000  0.5614240000000  0.5644370000000 1.0
C      1  0.5422460000000  0.4066230000000  0.4991260000000 1.0
C      1  0.4547610000000  0.5186860000000  0.4858340000000 1.0
C      1  0.5733480000000  0.4494490000000  0.4367590000000 1.0
C      1  0.4796940000000  0.4540540000000  0.5339570000000 1.0
C      1  0.4491370000000  0.5467290000000  0.5136760000000 1.0
C      1  0.4666490000000  0.5762010000000  0.4308390000000 1.0
C      1  0.4187620000000  0.4202870000000  0.5078090000000 1.0
C      1  0.4949450000000  0.4510130000000  0.5912090000000 1.0
C      1  0.4446390000000  0.5785940000000  0.4729150000000 1.0
C      1  0.4597520000000  0.5721340000000  0.5584580000000 1.0
C      1  0.5187990000000  0.5554270000000  0.4932520000000 1.0
C      1  0.5471300000000  0.4934920000000  0.4339010000000 1.0
C      1  0.4948440000000  0.5407300000000  0.4261350000000 1.0
C      1  0.4425550000000  0.5218950000000  0.4365170000000 1.0
C      1  0.4050940000000  0.4632420000000  0.4775240000000 1.0
C      1  0.4947690000000  0.5864930000000  0.4316980000000 1.0
C      1  0.4369430000000  0.5184620000000  0.5124380000000 1.0
C      1  0.5498480000000  0.5417150000000  0.4360420000000 1.0
C      1  0.5580410000000  0.5314900000000  0.5033680000000 1.0
C      1  0.5595280000000  0.4293840000000  0.5384170000000 1.0
C      1  0.4219100000000  0.4775540000000  0.5197300000000 1.0
C      1  0.5320030000000  0.4193240000000  0.4396010000000 1.0
C      1  0.4693260000000  0.4278770000000  0.4378210000000 1.0
C      1  0.3852620000000  0.5098770000000  0.4793830000000 1.0
C      1  0.5415410000000  0.5061750000000  0.5520160000000 1.0
C      1  0.5204380000000  0.5057260000000  0.5936910000000 1.0
C      1  0.4608120000000  0.4959840000000  0.5180950000000 1.0
C      1  0.5496890000000  0.5956890000000  0.5186570000000 1.0
C      1  0.4227630000000  0.5253150000000  0.5581020000000 1.0
C      1  0.4851400000000  0.4927790000000  0.4294030000000 1.0
C      1  0.4429400000000  0.4818960000000  0.5895650000000 1.0
C      1  0.4507990000000  0.4481560000000  0.4515760000000 1.0
C      1  0.4836710000000  0.5003750000000  0.4857740000000 1.0
C      1  0.5037100000000  0.5939570000000  0.5380100000000 1.0
C      1  0.4799630000000  0.5495350000000  0.4993480000000 1.0
C      1  0.5075740000000  0.4743150000000  0.5965510000000 1.0
C      1  0.5133170000000  0.4355190000000  0.4162230000000 1.0
C      1  0.5438430000000  0.5671930000000  0.5134710000000 1.0
C      1  0.4471170000000  0.5888150000000  0.4468490000000 1.0
C      1  0.4487170000000  0.5933340000000  0.4957600000000 1.0
C      1  0.5394170000000  0.4068280000000  0.5276110000000 1.0
C      1  0.5352090000000  0.5269610000000  0.5258120000000 1.0
C      1  0.4572260000000  0.5985540000000  0.5285750000000 1.0
C      1  0.4453390000000  0.4178590000000  0.5193170000000 1.0
C      1  0.5913800000000  0.5238490000000  0.5237960000000 1.0
C      1  0.5218530000000  0.4489410000000  0.4673460000000 1.0
C      1  0.4709720000000  0.5119600000000  0.4499160000000 1.0
C      1  0.4940360000000  0.4197910000000  0.5001980000000 1.0
C      1  0.5858510000000  0.4858650000000  0.5710790000000 1.0
C      1  0.5703590000000  0.4506100000000  0.4672590000000 1.0
C      1  0.5473820000000  0.4066350000000  0.4592180000000 1.0
C      1  0.5241910000000  0.4904530000000  0.5144460000000 1.0
C      1  0.5645790000000  0.5026240000000  0.4588200000000 1.0
C      1  0.4910540000000  0.3897550000000  0.5262870000000 1.0
C      1  0.4196920000000  0.5468520000000  0.5406490000000 1.0
C      1  0.5799570000000  0.5513920000000  0.5198770000000 1.0
C      1  0.4737020000000  0.6124920000000  0.5018650000000 1.0
C      1  0.4974340000000  0.6099650000000  0.4775110000000 1.0
C      1  0.5619350000000  0.4727240000000  0.4148300000000 1.0
C      1  0.5126690000000  0.4016090000000  0.5411590000000 1.0
C      1  0.4216360000000  0.4372640000000  0.4528910000000 1.0
C      1  0.5308320000000  0.5197120000000  0.4265200000000 1.0
C      1  0.4542020000000  0.4368230000000  0.5416780000000 1.0
END
