TITL C-2778433-5640-69 -0.00306685175709934 125000 -908.53634361489 0 0 158 (C1) n - 1
REM
REM in /home/nfs/bkarasulu/CARBON/AIRSS/Generating-Clusters/REBO/Only-C1/SD-CG/HFTN-CG
REM
REM
REM
REM
REM
REM ./C.cell (11c1c37f851c82e70ff6c80c92926a4b)
REM
REM compiler GCC version 9.2.1 20190827 (Red Hat 9.2.1-1)
REM options -cpp -mtune=generic -march=x86-64 -g -O0 -fpre-include=/usr/include/finclude/math-vector-fortran.h
REM seed -2048125272 1373394129 -1425435438 -1092995587 -1164118833 -1133390452 -1687954917 -453499832 2060647003 1215505027 -1385812404 895487492 575088515 -489464211 -352342403 -1385680433 -1783241252 -694464937 -1457280932 1658401013 970454795 -2115025910 -682548001 1610071223 -158640159 -910228882 462897397 665530560 -62307495 -1956671119 184002402 -217218760 -922437985
REM
CELL 1.54180   50.00000   50.00000   50.00000   90.00000   90.00000   90.00000
LATT -1
SFAC C  
C      1  0.4698500000000  0.5349310000000  0.5950670000000 1.0
C      1  0.4791260000000  0.4502340000000  0.5602220000000 1.0
C      1  0.5056410000000  0.4605800000000  0.5108310000000 1.0
C      1  0.5291680000000  0.5789180000000  0.4706550000000 1.0
C      1  0.5783500000000  0.4323660000000  0.4880110000000 1.0
C      1  0.5341310000000  0.4747120000000  0.5902180000000 1.0
C      1  0.4878170000000  0.3996030000000  0.4874850000000 1.0
C      1  0.4714600000000  0.4526970000000  0.4591200000000 1.0
C      1  0.4864290000000  0.5373750000000  0.4181640000000 1.0
C      1  0.4206850000000  0.4724060000000  0.5723840000000 1.0
C      1  0.5764650000000  0.4780380000000  0.5233660000000 1.0
C      1  0.5492190000000  0.5548710000000  0.5859870000000 1.0
C      1  0.5034230000000  0.4915710000000  0.4960870000000 1.0
C      1  0.5248230000000  0.4881500000000  0.4692380000000 1.0
C      1  0.5574520000000  0.5063020000000  0.5222640000000 1.0
C      1  0.4837830000000  0.4661080000000  0.4107240000000 1.0
C      1  0.4126170000000  0.4775490000000  0.5470740000000 1.0
C      1  0.4609500000000  0.4835970000000  0.4091920000000 1.0
C      1  0.4873040000000  0.4416730000000  0.4936880000000 1.0
C      1  0.4194030000000  0.5733190000000  0.4742210000000 1.0
C      1  0.4362550000000  0.4828610000000  0.5246520000000 1.0
C      1  0.4845410000000  0.5807380000000  0.5416970000000 1.0
C      1  0.4742450000000  0.5126460000000  0.6165930000000 1.0
C      1  0.5041190000000  0.5246560000000  0.4871090000000 1.0
C      1  0.4445720000000  0.5310740000000  0.4882550000000 1.0
C      1  0.4147750000000  0.5511770000000  0.5475590000000 1.0
C      1  0.5196070000000  0.3952330000000  0.4991200000000 1.0
C      1  0.5242750000000  0.5666420000000  0.5828040000000 1.0
C      1  0.4979450000000  0.4011910000000  0.5447420000000 1.0
C      1  0.5017260000000  0.5145000000000  0.5301830000000 1.0
C      1  0.5217940000000  0.5342340000000  0.5215080000000 1.0
C      1  0.5478820000000  0.5598200000000  0.4856090000000 1.0
C      1  0.4382770000000  0.5474800000000  0.4321280000000 1.0
C      1  0.4429140000000  0.5314700000000  0.5185650000000 1.0
C      1  0.4743750000000  0.5259550000000  0.5625280000000 1.0
C      1  0.5589700000000  0.5598600000000  0.5443540000000 1.0
C      1  0.4423430000000  0.4785220000000  0.4928020000000 1.0
C      1  0.5044680000000  0.5173580000000  0.4025670000000 1.0
C      1  0.5034060000000  0.4976420000000  0.5551320000000 1.0
C      1  0.5715450000000  0.5303830000000  0.5078410000000 1.0
C      1  0.5352880000000  0.5689120000000  0.4325210000000 1.0
C      1  0.4443250000000  0.5860480000000  0.4831180000000 1.0
C      1  0.4444980000000  0.4301750000000  0.5558090000000 1.0
C      1  0.4640600000000  0.4439750000000  0.4132880000000 1.0
C      1  0.5846990000000  0.4571090000000  0.4651370000000 1.0
C      1  0.4638110000000  0.4755790000000  0.5432290000000 1.0
C      1  0.4494350000000  0.5668740000000  0.4486280000000 1.0
C      1  0.5780140000000  0.5312820000000  0.5472790000000 1.0
C      1  0.5584990000000  0.4736410000000  0.5686740000000 1.0
C      1  0.5735770000000  0.5823580000000  0.4641990000000 1.0
C      1  0.5361390000000  0.4797290000000  0.4043620000000 1.0
C      1  0.5792120000000  0.5559990000000  0.5706090000000 1.0
C      1  0.4603140000000  0.5045010000000  0.4842040000000 1.0
C      1  0.4913980000000  0.5750740000000  0.5088850000000 1.0
C      1  0.5069390000000  0.5364850000000  0.5633690000000 1.0
C      1  0.5638220000000  0.4567600000000  0.5426230000000 1.0
C      1  0.5030150000000  0.5246260000000  0.6140030000000 1.0
C      1  0.4929080000000  0.5788670000000  0.4323630000000 1.0
C      1  0.5200070000000  0.4069740000000  0.5284930000000 1.0
C      1  0.5045110000000  0.4463220000000  0.4645160000000 1.0
C      1  0.5087360000000  0.4139570000000  0.4660250000000 1.0
C      1  0.5825820000000  0.5272870000000  0.4812770000000 1.0
C      1  0.4628060000000  0.4583320000000  0.5075780000000 1.0
C      1  0.5449850000000  0.5191630000000  0.4320290000000 1.0
C      1  0.5365620000000  0.4279650000000  0.5373960000000 1.0
C      1  0.4895510000000  0.6039260000000  0.4901450000000 1.0
C      1  0.5259620000000  0.4737140000000  0.5583930000000 1.0
C      1  0.5227620000000  0.5646620000000  0.5074040000000 1.0
C      1  0.4587970000000  0.5560560000000  0.4769310000000 1.0
C      1  0.5210570000000  0.5970840000000  0.4962010000000 1.0
C      1  0.5833060000000  0.6061300000000  0.4552630000000 1.0
C      1  0.5004780000000  0.5274430000000  0.4542410000000 1.0
C      1  0.5751070000000  0.5750270000000  0.4935070000000 1.0
C      1  0.4206910000000  0.5465020000000  0.4705100000000 1.0
C      1  0.6002530000000  0.5036800000000  0.4847360000000 1.0
C      1  0.4137670000000  0.4505930000000  0.5176220000000 1.0
C      1  0.5486630000000  0.5095750000000  0.4705520000000 1.0
C      1  0.5525100000000  0.3970520000000  0.5076300000000 1.0
C      1  0.5298370000000  0.5542240000000  0.5452740000000 1.0
C      1  0.4604130000000  0.5991520000000  0.5016700000000 1.0
C      1  0.5312360000000  0.4213860000000  0.4250540000000 1.0
C      1  0.4192440000000  0.5256020000000  0.4465060000000 1.0
C      1  0.4713450000000  0.5218900000000  0.5280280000000 1.0
C      1  0.4396760000000  0.4476610000000  0.5762500000000 1.0
C      1  0.5190590000000  0.5957980000000  0.4442190000000 1.0
C      1  0.4649730000000  0.5889400000000  0.4413320000000 1.0
C      1  0.5782820000000  0.4639320000000  0.4979890000000 1.0
C      1  0.5781740000000  0.4991600000000  0.5708810000000 1.0
C      1  0.4463820000000  0.5082480000000  0.4469640000000 1.0
C      1  0.5721970000000  0.4155030000000  0.5121960000000 1.0
C      1  0.4510850000000  0.4087310000000  0.5327340000000 1.0
C      1  0.5076560000000  0.5757860000000  0.5566100000000 1.0
C      1  0.5102310000000  0.4739570000000  0.4232400000000 1.0
C      1  0.4200140000000  0.5113680000000  0.5276850000000 1.0
C      1  0.5360210000000  0.4862370000000  0.5075350000000 1.0
C      1  0.4447090000000  0.5093400000000  0.4070460000000 1.0
C      1  0.4010540000000  0.5119330000000  0.4715370000000 1.0
C      1  0.4622020000000  0.4022070000000  0.5078810000000 1.0
C      1  0.5790070000000  0.4662310000000  0.4352570000000 1.0
C      1  0.4103440000000  0.4869850000000  0.4502810000000 1.0
C      1  0.4579320000000  0.4258420000000  0.4853770000000 1.0
C      1  0.5515800000000  0.5109530000000  0.5543730000000 1.0
C      1  0.5338290000000  0.4735750000000  0.3772530000000 1.0
C      1  0.5626570000000  0.4713150000000  0.4178290000000 1.0
C      1  0.6078750000000  0.4992320000000  0.5107440000000 1.0
C      1  0.5053690000000  0.5607460000000  0.4575960000000 1.0
C      1  0.5591550000000  0.5637290000000  0.4474890000000 1.0
C      1  0.5356360000000  0.5308270000000  0.4906080000000 1.0
C      1  0.3992850000000  0.5311560000000  0.4998260000000 1.0
C      1  0.5048800000000  0.4948050000000  0.4456910000000 1.0
C      1  0.4091700000000  0.5525860000000  0.5149670000000 1.0
C      1  0.5725250000000  0.5565740000000  0.5168050000000 1.0
C      1  0.4834530000000  0.4572460000000  0.5892450000000 1.0
C      1  0.4739690000000  0.4926130000000  0.5681890000000 1.0
C      1  0.4337030000000  0.5715110000000  0.5290840000000 1.0
C      1  0.5765610000000  0.4901050000000  0.4681800000000 1.0
C      1  0.4823370000000  0.4191210000000  0.5571740000000 1.0
C      1  0.4393840000000  0.4468420000000  0.4686940000000 1.0
C      1  0.4998010000000  0.5498820000000  0.5938960000000 1.0
C      1  0.5059790000000  0.4740250000000  0.6063180000000 1.0
C      1  0.5637110000000  0.5345650000000  0.4539280000000 1.0
C      1  0.4767820000000  0.4184790000000  0.4601310000000 1.0
C      1  0.5377250000000  0.4005450000000  0.4706300000000 1.0
C      1  0.4894990000000  0.6045300000000  0.4589890000000 1.0
C      1  0.4377780000000  0.4519230000000  0.4167890000000 1.0
C      1  0.5469500000000  0.4269520000000  0.5632560000000 1.0
C      1  0.5303020000000  0.3961830000000  0.4377070000000 1.0
C      1  0.5508330000000  0.4713740000000  0.4807210000000 1.0
C      1  0.4947210000000  0.5069730000000  0.3792610000000 1.0
C      1  0.5593700000000  0.4230180000000  0.4653740000000 1.0
C      1  0.5271720000000  0.5115280000000  0.5712750000000 1.0
C      1  0.4546060000000  0.5349020000000  0.4128190000000 1.0
C      1  0.5178660000000  0.5500370000000  0.4211990000000 1.0
C      1  0.4701090000000  0.5220370000000  0.4472250000000 1.0
C      1  0.5369980000000  0.4560840000000  0.5224690000000 1.0
C      1  0.4738100000000  0.4910940000000  0.5137460000000 1.0
C      1  0.4420940000000  0.4796300000000  0.4592120000000 1.0
C      1  0.5221610000000  0.5037230000000  0.6025520000000 1.0
C      1  0.5514860000000  0.4383070000000  0.4425510000000 1.0
C      1  0.4576230000000  0.5862480000000  0.5269100000000 1.0
C      1  0.5694050000000  0.5274040000000  0.5860860000000 1.0
C      1  0.4823660000000  0.4835570000000  0.4686000000000 1.0
C      1  0.4021180000000  0.4974430000000  0.5023420000000 1.0
C      1  0.5027030000000  0.4600770000000  0.5421840000000 1.0
C      1  0.4874920000000  0.5541410000000  0.4843390000000 1.0
C      1  0.5928910000000  0.5025340000000  0.5402870000000 1.0
C      1  0.4423360000000  0.5326110000000  0.5531070000000 1.0
C      1  0.5208730000000  0.4505010000000  0.4394220000000 1.0
C      1  0.5567080000000  0.4259990000000  0.5875600000000 1.0
C      1  0.4039660000000  0.4676140000000  0.4987660000000 1.0
C      1  0.4112850000000  0.5193180000000  0.5586170000000 1.0
C      1  0.5283490000000  0.5083590000000  0.4138590000000 1.0
C      1  0.5765010000000  0.4282770000000  0.5363710000000 1.0
C      1  0.4099110000000  0.4605100000000  0.4715100000000 1.0
C      1  0.4735210000000  0.4837600000000  0.6083540000000 1.0
C      1  0.4283990000000  0.4830870000000  0.4218190000000 1.0
C      1  0.4420560000000  0.4434370000000  0.5255690000000 1.0
C      1  0.4501270000000  0.4784060000000  0.5864610000000 1.0
END
