TITL C-2778426-5645-1456 0.000121531351201034 125000 -192.479007161308 0 0 34 (C1) n - 1
REM
REM in /home/nfs/bkarasulu/CARBON/AIRSS/Generating-Clusters/REBO/Only-C1/SD-CG/HFTN-CG
REM
REM
REM
REM
REM
REM ./C.cell (11c1c37f851c82e70ff6c80c92926a4b)
REM
REM compiler GCC version 9.2.1 20190827 (Red Hat 9.2.1-1)
REM options -cpp -mtune=generic -march=x86-64 -g -O0 -fpre-include=/usr/include/finclude/math-vector-fortran.h
REM seed 1136257792 -1530628830 1342709750 1753741793 918961786 1451813117 -1102017467 -1665711953 506772569 1621065436 -723357025 51039829 -547857759 606109586 1004403622 -777013975 -194976680 2041435951 -138045861 -377084203 -176150538 -860946368 265985297 -1869712234 -1404407230 -2053380733 -1785400636 -834101547 1951585301 375434150 1598142961 -476465597 -501608487
REM
CELL 1.54180   50.00000   50.00000   50.00000   90.00000   90.00000   90.00000
LATT -1
SFAC C  
C      1  0.5547400000000  0.5119090000000  0.5466070000000 1.0
C      1  0.5303460000000  0.4709830000000  0.5461570000000 1.0
C      1  0.4473680000000  0.5006830000000  0.5374050000000 1.0
C      1  0.5093640000000  0.5171540000000  0.5004010000000 1.0
C      1  0.4839080000000  0.5517610000000  0.4796810000000 1.0
C      1  0.4479520000000  0.4562090000000  0.5216090000000 1.0
C      1  0.4825850000000  0.4594860000000  0.5410950000000 1.0
C      1  0.5160050000000  0.4695120000000  0.4443860000000 1.0
C      1  0.4414260000000  0.4724900000000  0.5439420000000 1.0
C      1  0.4506370000000  0.5077000000000  0.4603400000000 1.0
C      1  0.5433470000000  0.4906390000000  0.5662530000000 1.0
C      1  0.5529280000000  0.5211320000000  0.4896440000000 1.0
C      1  0.5124830000000  0.5265970000000  0.5281420000000 1.0
C      1  0.5399860000000  0.5054250000000  0.4195190000000 1.0
C      1  0.5511650000000  0.4855350000000  0.5276440000000 1.0
C      1  0.4692480000000  0.5132000000000  0.5508520000000 1.0
C      1  0.5038790000000  0.5162690000000  0.4516850000000 1.0
C      1  0.5396960000000  0.4912470000000  0.4994700000000 1.0
C      1  0.5281370000000  0.4984620000000  0.4441230000000 1.0
C      1  0.4859400000000  0.4710970000000  0.4859630000000 1.0
C      1  0.4579760000000  0.5465180000000  0.4879200000000 1.0
C      1  0.5535210000000  0.5413690000000  0.5088820000000 1.0
C      1  0.4488410000000  0.5010780000000  0.5074040000000 1.0
C      1  0.4964050000000  0.5082130000000  0.5442740000000 1.0
C      1  0.4474930000000  0.5200710000000  0.4861480000000 1.0
C      1  0.4573840000000  0.4731580000000  0.4999460000000 1.0
C      1  0.4786280000000  0.5059970000000  0.4437830000000 1.0
C      1  0.5006780000000  0.4581330000000  0.4604190000000 1.0
C      1  0.5068900000000  0.4848530000000  0.5033360000000 1.0
C      1  0.5469970000000  0.4995370000000  0.4674720000000 1.0
C      1  0.5405100000000  0.5339390000000  0.5335460000000 1.0
C      1  0.5025510000000  0.4781970000000  0.5351520000000 1.0
C      1  0.4676850000000  0.4805220000000  0.4602550000000 1.0
C      1  0.5033030000000  0.5309200000000  0.4765480000000 1.0
END
