TITL C-2778426-5645-235 0.00195527452531108 125000 -216.544835191136 0 0 39 (C1) n - 1
REM
REM in /home/nfs/bkarasulu/CARBON/AIRSS/Generating-Clusters/REBO/Only-C1/SD-CG/HFTN-CG
REM
REM
REM
REM
REM
REM ./C.cell (11c1c37f851c82e70ff6c80c92926a4b)
REM
REM compiler GCC version 9.2.1 20190827 (Red Hat 9.2.1-1)
REM options -cpp -mtune=generic -march=x86-64 -g -O0 -fpre-include=/usr/include/finclude/math-vector-fortran.h
REM seed 630428393 -1425855977 77393597 -93791850 2028409914 515678206 1382228638 -992702107 1154476647 1132349681 -134219693 174275129 -1339876257 -859418946 -1739054599 1861482039 -1342742327 918635846 -1695177031 1783994979 1675304812 1824205170 1337550870 -1871479619 -2048270118 1869574532 1060083455 1904812984 1155835824 1462549107 -1011844716 -2040715021 2142280820
REM
CELL 1.54180   50.00000   50.00000   50.00000   90.00000   90.00000   90.00000
LATT -1
SFAC C  
C      1  0.4893550000000  0.4917970000000  0.5717570000000 1.0
C      1  0.4232030000000  0.5482680000000  0.5080410000000 1.0
C      1  0.4798030000000  0.4596970000000  0.4688850000000 1.0
C      1  0.4856600000000  0.4840900000000  0.5388340000000 1.0
C      1  0.4747170000000  0.4891850000000  0.4527240000000 1.0
C      1  0.4648530000000  0.5151000000000  0.4577720000000 1.0
C      1  0.5174090000000  0.4269630000000  0.4501620000000 1.0
C      1  0.5506630000000  0.4591710000000  0.5020780000000 1.0
C      1  0.5382390000000  0.5366900000000  0.5026700000000 1.0
C      1  0.4499780000000  0.5421230000000  0.5090700000000 1.0
C      1  0.5077230000000  0.4987500000000  0.4946640000000 1.0
C      1  0.4853220000000  0.5384370000000  0.4542520000000 1.0
C      1  0.5297310000000  0.4340640000000  0.5032380000000 1.0
C      1  0.5492440000000  0.5068620000000  0.4971880000000 1.0
C      1  0.5134510000000  0.5395020000000  0.5367630000000 1.0
C      1  0.4766880000000  0.5614040000000  0.4995970000000 1.0
C      1  0.4894220000000  0.4304120000000  0.4657960000000 1.0
C      1  0.5117410000000  0.4857760000000  0.5239340000000 1.0
C      1  0.5267840000000  0.4599020000000  0.5230050000000 1.0
C      1  0.5206630000000  0.5090860000000  0.4693570000000 1.0
C      1  0.5300000000000  0.5122350000000  0.5248460000000 1.0
C      1  0.5387060000000  0.4754990000000  0.4591990000000 1.0
C      1  0.5131990000000  0.5465330000000  0.4929730000000 1.0
C      1  0.5301260000000  0.5608140000000  0.5440970000000 1.0
C      1  0.4669730000000  0.4621210000000  0.4967600000000 1.0
C      1  0.4633680000000  0.5329090000000  0.5374100000000 1.0
C      1  0.5263420000000  0.4524780000000  0.4411720000000 1.0
C      1  0.5052210000000  0.4759160000000  0.4527220000000 1.0
C      1  0.4822540000000  0.5607750000000  0.4720320000000 1.0
C      1  0.4655470000000  0.5254490000000  0.4864640000000 1.0
C      1  0.5118530000000  0.5279900000000  0.4513350000000 1.0
C      1  0.4934510000000  0.5256210000000  0.4934540000000 1.0
C      1  0.5510910000000  0.4817250000000  0.4839940000000 1.0
C      1  0.4672450000000  0.4678900000000  0.5206230000000 1.0
C      1  0.4898800000000  0.4790100000000  0.5953680000000 1.0
C      1  0.5086200000000  0.5155650000000  0.5583730000000 1.0
C      1  0.4859450000000  0.5483810000000  0.5253950000000 1.0
C      1  0.4696140000000  0.5103990000000  0.5515490000000 1.0
C      1  0.5159190000000  0.4214110000000  0.4824480000000 1.0
END
