TITL C-2778430-5657-707 -0.00456393997080273 125000 -1101.15522921787 0 0 186 (C1) n - 1
REM
REM in /home/nfs/bkarasulu/CARBON/AIRSS/Generating-Clusters/REBO/Only-C1/SD-CG/HFTN-CG
REM
REM
REM
REM
REM
REM ./C.cell (11c1c37f851c82e70ff6c80c92926a4b)
REM
REM compiler GCC version 9.2.1 20190827 (Red Hat 9.2.1-1)
REM options -cpp -mtune=generic -march=x86-64 -g -O0 -fpre-include=/usr/include/finclude/math-vector-fortran.h
REM seed -1262720335 -694241603 -1004164815 768767152 263046860 -839346165 1157820880 -201635738 517291419 -1191063445 -1971441902 900436696 1707639480 1566640633 650652433 -1521659315 1078544649 508497752 2021455102 -350180825 -26541251 2088492433 -579902432 -925463770 -186001001 670709309 1989817739 883230814 -415811749 -132569873 -1128692803 -1940406586 -272938874
REM
CELL 1.54180   50.00000   50.00000   50.00000   90.00000   90.00000   90.00000
LATT -1
SFAC C  
C      1  0.4102870000000  0.4773170000000  0.4617800000000 1.0
C      1  0.5649620000000  0.4588870000000  0.5709490000000 1.0
C      1  0.5280550000000  0.5589760000000  0.4869100000000 1.0
C      1  0.4846990000000  0.5098290000000  0.3953970000000 1.0
C      1  0.4342030000000  0.5789610000000  0.4773920000000 1.0
C      1  0.5251650000000  0.3987590000000  0.4650480000000 1.0
C      1  0.4148960000000  0.5104540000000  0.5802680000000 1.0
C      1  0.4121740000000  0.4247360000000  0.4691370000000 1.0
C      1  0.5128700000000  0.4675840000000  0.3928550000000 1.0
C      1  0.5975820000000  0.4946990000000  0.5494990000000 1.0
C      1  0.5044520000000  0.5276080000000  0.4442910000000 1.0
C      1  0.4736380000000  0.5525330000000  0.4200650000000 1.0
C      1  0.5350150000000  0.4515850000000  0.4027710000000 1.0
C      1  0.5233900000000  0.5162730000000  0.5986590000000 1.0
C      1  0.4744140000000  0.4569850000000  0.5976590000000 1.0
C      1  0.5467060000000  0.4967960000000  0.4468560000000 1.0
C      1  0.5776410000000  0.4804170000000  0.4837470000000 1.0
C      1  0.5032710000000  0.4750610000000  0.4371870000000 1.0
C      1  0.4710380000000  0.4260480000000  0.5364540000000 1.0
C      1  0.5773100000000  0.5138160000000  0.5149700000000 1.0
C      1  0.4419270000000  0.5608610000000  0.4582820000000 1.0
C      1  0.4433810000000  0.4789110000000  0.4657720000000 1.0
C      1  0.6100380000000  0.5165370000000  0.5061370000000 1.0
C      1  0.4733780000000  0.5358840000000  0.5968610000000 1.0
C      1  0.4670800000000  0.4732260000000  0.4202810000000 1.0
C      1  0.5161080000000  0.5993780000000  0.5050620000000 1.0
C      1  0.4279080000000  0.5239800000000  0.4624290000000 1.0
C      1  0.4129200000000  0.5192450000000  0.5502090000000 1.0
C      1  0.4429630000000  0.3982930000000  0.5303640000000 1.0
C      1  0.5084140000000  0.4601820000000  0.5962220000000 1.0
C      1  0.4891150000000  0.5118540000000  0.5354240000000 1.0
C      1  0.5532770000000  0.5487100000000  0.4154020000000 1.0
C      1  0.4425480000000  0.4578260000000  0.5853050000000 1.0
C      1  0.4689560000000  0.4282860000000  0.5807300000000 1.0
C      1  0.4147810000000  0.4778340000000  0.5825050000000 1.0
C      1  0.5452110000000  0.4250710000000  0.4913530000000 1.0
C      1  0.5342000000000  0.4836170000000  0.5645470000000 1.0
C      1  0.4893690000000  0.5391810000000  0.4712950000000 1.0
C      1  0.5790240000000  0.4441330000000  0.5001660000000 1.0
C      1  0.5218670000000  0.4348520000000  0.5827140000000 1.0
C      1  0.4570330000000  0.5974460000000  0.4502880000000 1.0
C      1  0.5869320000000  0.5622950000000  0.5237650000000 1.0
C      1  0.5481030000000  0.4860380000000  0.4847450000000 1.0
C      1  0.5987800000000  0.4871940000000  0.4376890000000 1.0
C      1  0.5025000000000  0.5707030000000  0.5450620000000 1.0
C      1  0.4133160000000  0.4650820000000  0.5508040000000 1.0
C      1  0.5843380000000  0.5425160000000  0.4196450000000 1.0
C      1  0.4790930000000  0.6080570000000  0.4665420000000 1.0
C      1  0.5383930000000  0.5072380000000  0.5501710000000 1.0
C      1  0.5025780000000  0.5378970000000  0.5982600000000 1.0
C      1  0.4351270000000  0.4264830000000  0.5772500000000 1.0
C      1  0.5124300000000  0.3953670000000  0.5200650000000 1.0
C      1  0.4186500000000  0.5194220000000  0.4295980000000 1.0
C      1  0.5348490000000  0.5880550000000  0.5316340000000 1.0
C      1  0.5048560000000  0.3971350000000  0.4428430000000 1.0
C      1  0.5953240000000  0.5444150000000  0.4695110000000 1.0
C      1  0.5345710000000  0.6018000000000  0.4795400000000 1.0
C      1  0.4627540000000  0.5106830000000  0.5936620000000 1.0
C      1  0.4936430000000  0.4740840000000  0.4757310000000 1.0
C      1  0.5722890000000  0.4809000000000  0.5528060000000 1.0
C      1  0.3972370000000  0.4708460000000  0.4883440000000 1.0
C      1  0.4430370000000  0.4439520000000  0.5343770000000 1.0
C      1  0.5315910000000  0.5353330000000  0.5098510000000 1.0
C      1  0.4357720000000  0.5483140000000  0.4319760000000 1.0
C      1  0.5309920000000  0.4381950000000  0.4639960000000 1.0
C      1  0.4841830000000  0.5776540000000  0.5798440000000 1.0
C      1  0.5599870000000  0.4883850000000  0.5227130000000 1.0
C      1  0.5604960000000  0.4565010000000  0.5212270000000 1.0
C      1  0.6054070000000  0.5373030000000  0.5310050000000 1.0
C      1  0.4658450000000  0.4546390000000  0.4719730000000 1.0
C      1  0.4335080000000  0.5637080000000  0.5560620000000 1.0
C      1  0.5392150000000  0.4173370000000  0.4396150000000 1.0
C      1  0.5671100000000  0.5697840000000  0.4570920000000 1.0
C      1  0.4650310000000  0.5994400000000  0.5386890000000 1.0
C      1  0.4023600000000  0.4730640000000  0.5221210000000 1.0
C      1  0.4707130000000  0.5200640000000  0.5009300000000 1.0
C      1  0.5011710000000  0.4954700000000  0.5084580000000 1.0
C      1  0.5859590000000  0.5095070000000  0.4186710000000 1.0
C      1  0.4362290000000  0.5858730000000  0.5046840000000 1.0
C      1  0.4016080000000  0.5057670000000  0.4551580000000 1.0
C      1  0.5226120000000  0.4703920000000  0.4862230000000 1.0
C      1  0.5461040000000  0.4061900000000  0.5447340000000 1.0
C      1  0.4571510000000  0.4288380000000  0.4513720000000 1.0
C      1  0.5954300000000  0.4697040000000  0.5072560000000 1.0
C      1  0.5411610000000  0.5785300000000  0.4222660000000 1.0
C      1  0.5206590000000  0.4437880000000  0.5296730000000 1.0
C      1  0.4850660000000  0.5462260000000  0.5552590000000 1.0
C      1  0.4299720000000  0.5005380000000  0.4087810000000 1.0
C      1  0.5568930000000  0.4994090000000  0.4170000000000 1.0
C      1  0.5664080000000  0.5361530000000  0.6167060000000 1.0
C      1  0.5645910000000  0.4398050000000  0.4430140000000 1.0
C      1  0.4794650000000  0.4048480000000  0.4458680000000 1.0
C      1  0.4209380000000  0.4291800000000  0.4994090000000 1.0
C      1  0.3916280000000  0.4994620000000  0.5035170000000 1.0
C      1  0.5737860000000  0.5367730000000  0.5670580000000 1.0
C      1  0.4604050000000  0.5092190000000  0.5398820000000 1.0
C      1  0.4676560000000  0.4662640000000  0.5394440000000 1.0
C      1  0.4011150000000  0.5253090000000  0.4833210000000 1.0
C      1  0.5007440000000  0.4363550000000  0.4651490000000 1.0
C      1  0.4763640000000  0.4737430000000  0.5107070000000 1.0
C      1  0.4446990000000  0.4766940000000  0.5570380000000 1.0
C      1  0.4237590000000  0.5671930000000  0.5232330000000 1.0
C      1  0.4164810000000  0.4331720000000  0.5521960000000 1.0
C      1  0.4147400000000  0.5145250000000  0.5189560000000 1.0
C      1  0.5032090000000  0.4190990000000  0.5382950000000 1.0
C      1  0.4590170000000  0.4980860000000  0.4423650000000 1.0
C      1  0.5350800000000  0.5651670000000  0.4594030000000 1.0
C      1  0.5491200000000  0.5710570000000  0.5103120000000 1.0
C      1  0.4183540000000  0.4136190000000  0.5264510000000 1.0
C      1  0.5680020000000  0.5598370000000  0.5517190000000 1.0
C      1  0.4953180000000  0.4314370000000  0.4163020000000 1.0
C      1  0.5958890000000  0.5230980000000  0.5545710000000 1.0
C      1  0.4527670000000  0.4298020000000  0.4907030000000 1.0
C      1  0.5676440000000  0.4530350000000  0.5968610000000 1.0
C      1  0.4863550000000  0.4600500000000  0.4041370000000 1.0
C      1  0.4907860000000  0.4476780000000  0.4417290000000 1.0
C      1  0.5822660000000  0.5690850000000  0.4338720000000 1.0
C      1  0.4944870000000  0.4260890000000  0.4904980000000 1.0
C      1  0.5031210000000  0.5210900000000  0.5621480000000 1.0
C      1  0.4954690000000  0.5960700000000  0.4398720000000 1.0
C      1  0.4283720000000  0.4584840000000  0.5101120000000 1.0
C      1  0.5339230000000  0.5351170000000  0.5652350000000 1.0
C      1  0.5242760000000  0.4863890000000  0.5926840000000 1.0
C      1  0.4842480000000  0.5954160000000  0.4937020000000 1.0
C      1  0.4983520000000  0.5345870000000  0.5146240000000 1.0
C      1  0.5619420000000  0.5877130000000  0.4843680000000 1.0
C      1  0.5624560000000  0.5404230000000  0.5170070000000 1.0
C      1  0.4405400000000  0.5354470000000  0.5405830000000 1.0
C      1  0.4542250000000  0.5121730000000  0.3933620000000 1.0
C      1  0.4472630000000  0.4786170000000  0.4978590000000 1.0
C      1  0.5960500000000  0.4915800000000  0.4643190000000 1.0
C      1  0.5156300000000  0.4992640000000  0.4547630000000 1.0
C      1  0.5062290000000  0.5677850000000  0.5124850000000 1.0
C      1  0.4627400000000  0.5681380000000  0.5437340000000 1.0
C      1  0.5445620000000  0.5176920000000  0.4744010000000 1.0
C      1  0.4554350000000  0.5608450000000  0.5823150000000 1.0
C      1  0.4912980000000  0.4934840000000  0.5716920000000 1.0
C      1  0.4934690000000  0.5031250000000  0.4231650000000 1.0
C      1  0.5263640000000  0.5946800000000  0.4488340000000 1.0
C      1  0.4749090000000  0.5022410000000  0.4722340000000 1.0
C      1  0.4275300000000  0.4338780000000  0.4478890000000 1.0
C      1  0.5262890000000  0.4470480000000  0.5027010000000 1.0
C      1  0.4991440000000  0.5540750000000  0.4078040000000 1.0
C      1  0.5341180000000  0.4649490000000  0.4484050000000 1.0
C      1  0.5280420000000  0.5447500000000  0.4376330000000 1.0
C      1  0.5084000000000  0.5624070000000  0.5837410000000 1.0
C      1  0.4577440000000  0.5313710000000  0.4652060000000 1.0
C      1  0.5122680000000  0.4024090000000  0.4920590000000 1.0
C      1  0.6107820000000  0.5170040000000  0.4756500000000 1.0
C      1  0.4953460000000  0.4372260000000  0.5661170000000 1.0
C      1  0.4844030000000  0.4419510000000  0.5114750000000 1.0
C      1  0.5838740000000  0.5637700000000  0.4926510000000 1.0
C      1  0.4364940000000  0.4745550000000  0.4191560000000 1.0
C      1  0.5535570000000  0.5304470000000  0.5926050000000 1.0
C      1  0.5111180000000  0.5151760000000  0.4823480000000 1.0
C      1  0.6079590000000  0.4893950000000  0.5227400000000 1.0
C      1  0.4593640000000  0.6011920000000  0.5116750000000 1.0
C      1  0.4681440000000  0.5762710000000  0.4324530000000 1.0
C      1  0.5244600000000  0.4264280000000  0.4136240000000 1.0
C      1  0.4591260000000  0.4005900000000  0.5070880000000 1.0
C      1  0.4634460000000  0.4023210000000  0.4741890000000 1.0
C      1  0.5502070000000  0.4082340000000  0.5177730000000 1.0
C      1  0.5114800000000  0.5783440000000  0.4158450000000 1.0
C      1  0.4874910000000  0.5965690000000  0.5568520000000 1.0
C      1  0.4551070000000  0.4064790000000  0.5586240000000 1.0
C      1  0.5095780000000  0.5290300000000  0.3975410000000 1.0
C      1  0.4430450000000  0.5056370000000  0.5127900000000 1.0
C      1  0.4795010000000  0.5617740000000  0.4920890000000 1.0
C      1  0.4912040000000  0.4674030000000  0.5569350000000 1.0
C      1  0.4801760000000  0.4882000000000  0.5989390000000 1.0
C      1  0.4453650000000  0.5058390000000  0.5695010000000 1.0
C      1  0.5395940000000  0.4169030000000  0.5694740000000 1.0
C      1  0.4578930000000  0.5246450000000  0.4239110000000 1.0
C      1  0.5208210000000  0.4631180000000  0.5494760000000 1.0
C      1  0.5624530000000  0.5415200000000  0.4763610000000 1.0
C      1  0.4327600000000  0.5370150000000  0.5911230000000 1.0
C      1  0.5308970000000  0.5048690000000  0.5192420000000 1.0
C      1  0.5552140000000  0.4658810000000  0.4229560000000 1.0
C      1  0.5367790000000  0.5227220000000  0.4047170000000 1.0
C      1  0.5701960000000  0.4374020000000  0.4717820000000 1.0
C      1  0.4110900000000  0.5452860000000  0.5091760000000 1.0
C      1  0.5569240000000  0.4445600000000  0.5464460000000 1.0
C      1  0.6024780000000  0.5264930000000  0.4434390000000 1.0
C      1  0.4215930000000  0.4596860000000  0.4383750000000 1.0
C      1  0.5313640000000  0.5676890000000  0.5588860000000 1.0
C      1  0.4609530000000  0.5485510000000  0.5164160000000 1.0
END
