TITL C-2778424-3986-1085 -0.000137942249392143 125000 -1013.63546635167 0 0 174 (C1) n - 1
REM
REM in /home/nfs/bkarasulu/CARBON/AIRSS/Generating-Clusters/REBO/Only-C1/SD-CG/HFTN-CG
REM
REM
REM
REM
REM
REM ./C.cell (11c1c37f851c82e70ff6c80c92926a4b)
REM
REM compiler GCC version 9.2.1 20190827 (Red Hat 9.2.1-1)
REM options -cpp -mtune=generic -march=x86-64 -g -O0 -fpre-include=/usr/include/finclude/math-vector-fortran.h
REM seed 823922176 -727378982 -2097184287 868222378 -1205796022 -476364665 861421819 -1913059711 -839606145 1473972526 -1056414578 1505207236 21771080 -1607385357 2054745068 -126134841 2081446286 1900260224 -600547952 -349738077 -1299199661 -1133045277 104422105 -919518386 2033493966 1962909531 1085261257 -69492390 -1102432032 1929864725 -1510323610 638099022 276090332
REM
CELL 1.54180   50.00000   50.00000   50.00000   90.00000   90.00000   90.00000
LATT -1
SFAC C  
C      1  0.4513530000000  0.5537310000000  0.5649530000000 1.0
C      1  0.5369990000000  0.3881080000000  0.4952910000000 1.0
C      1  0.4920180000000  0.5966590000000  0.5143600000000 1.0
C      1  0.4329720000000  0.5293740000000  0.4204950000000 1.0
C      1  0.5080670000000  0.5551090000000  0.4868230000000 1.0
C      1  0.5426020000000  0.5867590000000  0.5566910000000 1.0
C      1  0.4029150000000  0.5268380000000  0.4656210000000 1.0
C      1  0.5683240000000  0.5921360000000  0.4897390000000 1.0
C      1  0.4516040000000  0.4968490000000  0.4661330000000 1.0
C      1  0.5051280000000  0.5358840000000  0.6015230000000 1.0
C      1  0.5166560000000  0.5468780000000  0.5392180000000 1.0
C      1  0.5031720000000  0.4435060000000  0.5295140000000 1.0
C      1  0.5806820000000  0.4911560000000  0.5528510000000 1.0
C      1  0.4520650000000  0.5742570000000  0.5308390000000 1.0
C      1  0.4607110000000  0.5369360000000  0.4969870000000 1.0
C      1  0.5859120000000  0.4818620000000  0.4663300000000 1.0
C      1  0.5221110000000  0.4186950000000  0.5198110000000 1.0
C      1  0.5132220000000  0.6123160000000  0.4688690000000 1.0
C      1  0.5369760000000  0.5131690000000  0.5947190000000 1.0
C      1  0.4566300000000  0.5312390000000  0.5438760000000 1.0
C      1  0.4850870000000  0.4934750000000  0.4039980000000 1.0
C      1  0.5851490000000  0.4744680000000  0.5291660000000 1.0
C      1  0.5383430000000  0.4238110000000  0.4456690000000 1.0
C      1  0.4298280000000  0.5781770000000  0.4630990000000 1.0
C      1  0.4969100000000  0.3987260000000  0.5268760000000 1.0
C      1  0.4725880000000  0.4838600000000  0.4347460000000 1.0
C      1  0.4320090000000  0.5103650000000  0.5053030000000 1.0
C      1  0.4778250000000  0.5187900000000  0.5208260000000 1.0
C      1  0.4761590000000  0.5093290000000  0.5596150000000 1.0
C      1  0.5276990000000  0.5081320000000  0.4440600000000 1.0
C      1  0.5218260000000  0.4102820000000  0.5767250000000 1.0
C      1  0.5933750000000  0.5209900000000  0.5483660000000 1.0
C      1  0.5570840000000  0.4626110000000  0.5166790000000 1.0
C      1  0.5558030000000  0.4907620000000  0.4542760000000 1.0
C      1  0.5920090000000  0.5311460000000  0.4904820000000 1.0
C      1  0.3971100000000  0.5331290000000  0.4958640000000 1.0
C      1  0.5151510000000  0.5096330000000  0.3976590000000 1.0
C      1  0.5270560000000  0.4751170000000  0.5058160000000 1.0
C      1  0.5545250000000  0.5453570000000  0.5903850000000 1.0
C      1  0.4644660000000  0.4655650000000  0.4622450000000 1.0
C      1  0.5546790000000  0.5448980000000  0.4897650000000 1.0
C      1  0.5752050000000  0.5419320000000  0.4533560000000 1.0
C      1  0.4715130000000  0.5525850000000  0.4712760000000 1.0
C      1  0.5348920000000  0.4536820000000  0.4614750000000 1.0
C      1  0.4730970000000  0.4478270000000  0.5428200000000 1.0
C      1  0.4849780000000  0.4533930000000  0.5052380000000 1.0
C      1  0.5471590000000  0.5111940000000  0.4094520000000 1.0
C      1  0.5847160000000  0.4574960000000  0.4490340000000 1.0
C      1  0.4787660000000  0.4031220000000  0.4751860000000 1.0
C      1  0.5173020000000  0.4045440000000  0.4648010000000 1.0
C      1  0.4391900000000  0.5866170000000  0.4911330000000 1.0
C      1  0.5328180000000  0.4525030000000  0.5381460000000 1.0
C      1  0.5492650000000  0.5141830000000  0.5035880000000 1.0
C      1  0.3935380000000  0.4788130000000  0.5115020000000 1.0
C      1  0.6093120000000  0.5228960000000  0.5184480000000 1.0
C      1  0.4564670000000  0.5524080000000  0.4267090000000 1.0
C      1  0.5426450000000  0.5929600000000  0.5067940000000 1.0
C      1  0.5626000000000  0.4459050000000  0.5764630000000 1.0
C      1  0.3898990000000  0.4554740000000  0.4616810000000 1.0
C      1  0.5239100000000  0.5929430000000  0.4490920000000 1.0
C      1  0.4764960000000  0.5184380000000  0.5926600000000 1.0
C      1  0.4967250000000  0.5338020000000  0.4038430000000 1.0
C      1  0.4217770000000  0.4941730000000  0.4527170000000 1.0
C      1  0.4750990000000  0.5733510000000  0.4217690000000 1.0
C      1  0.4504590000000  0.4251770000000  0.5787860000000 1.0
C      1  0.5978800000000  0.4448750000000  0.5361180000000 1.0
C      1  0.4526180000000  0.5046310000000  0.4076090000000 1.0
C      1  0.4800410000000  0.4812040000000  0.5441990000000 1.0
C      1  0.4289720000000  0.5257460000000  0.5329950000000 1.0
C      1  0.5087220000000  0.6134000000000  0.5367010000000 1.0
C      1  0.4631150000000  0.5814290000000  0.5586320000000 1.0
C      1  0.5434520000000  0.5416580000000  0.4587540000000 1.0
C      1  0.3948570000000  0.4716300000000  0.5427890000000 1.0
C      1  0.4513050000000  0.4303570000000  0.4316910000000 1.0
C      1  0.5062400000000  0.4998010000000  0.5170830000000 1.0
C      1  0.4998430000000  0.4587570000000  0.4433670000000 1.0
C      1  0.4715940000000  0.4149310000000  0.5331800000000 1.0
C      1  0.5556010000000  0.5433740000000  0.4185320000000 1.0
C      1  0.5444360000000  0.4010290000000  0.5356500000000 1.0
C      1  0.4813900000000  0.4622790000000  0.5791750000000 1.0
C      1  0.5511220000000  0.4803820000000  0.4227440000000 1.0
C      1  0.5480680000000  0.5462560000000  0.5289610000000 1.0
C      1  0.4974470000000  0.5337840000000  0.5624120000000 1.0
C      1  0.4021450000000  0.4334450000000  0.4631720000000 1.0
C      1  0.5047750000000  0.4826770000000  0.5677790000000 1.0
C      1  0.4426730000000  0.4427700000000  0.5428610000000 1.0
C      1  0.5847750000000  0.5750370000000  0.5236930000000 1.0
C      1  0.5656880000000  0.5710950000000  0.4279390000000 1.0
C      1  0.4726550000000  0.5262720000000  0.4221320000000 1.0
C      1  0.4866700000000  0.5557870000000  0.5832770000000 1.0
C      1  0.4831610000000  0.4435730000000  0.4760430000000 1.0
C      1  0.4563620000000  0.5442820000000  0.5932770000000 1.0
C      1  0.5048430000000  0.5682930000000  0.4479740000000 1.0
C      1  0.4518480000000  0.4072120000000  0.5582600000000 1.0
C      1  0.4401620000000  0.4815800000000  0.4294420000000 1.0
C      1  0.4328090000000  0.4717240000000  0.5759810000000 1.0
C      1  0.4317570000000  0.4121010000000  0.5327910000000 1.0
C      1  0.5903770000000  0.4434220000000  0.5053860000000 1.0
C      1  0.4939170000000  0.3929220000000  0.4465670000000 1.0
C      1  0.5189080000000  0.3956590000000  0.5521130000000 1.0
C      1  0.4379930000000  0.4623640000000  0.4808010000000 1.0
C      1  0.5174140000000  0.6092540000000  0.4981660000000 1.0
C      1  0.5350740000000  0.5050990000000  0.5307980000000 1.0
C      1  0.4113100000000  0.4319520000000  0.5133140000000 1.0
C      1  0.5047680000000  0.3930890000000  0.4948040000000 1.0
C      1  0.5121570000000  0.4316000000000  0.4269070000000 1.0
C      1  0.5610490000000  0.4329860000000  0.5000410000000 1.0
C      1  0.4357300000000  0.4514970000000  0.4247910000000 1.0
C      1  0.4303040000000  0.4296310000000  0.4761500000000 1.0
C      1  0.4267510000000  0.4678690000000  0.5306810000000 1.0
C      1  0.4139090000000  0.5468300000000  0.5145480000000 1.0
C      1  0.4138020000000  0.5136090000000  0.5566680000000 1.0
C      1  0.4930370000000  0.4090760000000  0.4229090000000 1.0
C      1  0.5309080000000  0.5158960000000  0.4770730000000 1.0
C      1  0.3916960000000  0.5030500000000  0.4954950000000 1.0
C      1  0.5349670000000  0.6040580000000  0.5360900000000 1.0
C      1  0.4714400000000  0.5580140000000  0.5181180000000 1.0
C      1  0.4319640000000  0.4096150000000  0.4998680000000 1.0
C      1  0.5586050000000  0.4760970000000  0.5718860000000 1.0
C      1  0.5126070000000  0.4906630000000  0.4238700000000 1.0
C      1  0.4014700000000  0.4825210000000  0.4719110000000 1.0
C      1  0.4674250000000  0.4159430000000  0.4138080000000 1.0
C      1  0.5062570000000  0.5045180000000  0.5882070000000 1.0
C      1  0.5514130000000  0.5909820000000  0.4431890000000 1.0
C      1  0.5321430000000  0.4796830000000  0.5534400000000 1.0
C      1  0.5262580000000  0.5393860000000  0.4306960000000 1.0
C      1  0.5402880000000  0.4295670000000  0.5842020000000 1.0
C      1  0.4795740000000  0.4986050000000  0.4854570000000 1.0
C      1  0.4578060000000  0.4261840000000  0.4613360000000 1.0
C      1  0.5117760000000  0.4346210000000  0.4732580000000 1.0
C      1  0.4880650000000  0.5116060000000  0.4475150000000 1.0
C      1  0.4080720000000  0.5192840000000  0.4371470000000 1.0
C      1  0.4127380000000  0.4873300000000  0.5632040000000 1.0
C      1  0.4999520000000  0.4838910000000  0.4634700000000 1.0
C      1  0.5774940000000  0.5354720000000  0.5218100000000 1.0
C      1  0.4948220000000  0.5846530000000  0.4763810000000 1.0
C      1  0.4402610000000  0.4809980000000  0.5078850000000 1.0
C      1  0.4333270000000  0.5470480000000  0.4503400000000 1.0
C      1  0.5719260000000  0.4980730000000  0.5000300000000 1.0
C      1  0.5571340000000  0.4025400000000  0.4966350000000 1.0
C      1  0.5331310000000  0.5628420000000  0.5039140000000 1.0
C      1  0.5550030000000  0.4919040000000  0.5976700000000 1.0
C      1  0.4334490000000  0.5295960000000  0.4796110000000 1.0
C      1  0.5706470000000  0.5413430000000  0.5635980000000 1.0
C      1  0.5647440000000  0.5673840000000  0.5473460000000 1.0
C      1  0.4967680000000  0.5385740000000  0.4584080000000 1.0
C      1  0.4912750000000  0.5845440000000  0.5710080000000 1.0
C      1  0.4626570000000  0.4057260000000  0.5039050000000 1.0
C      1  0.5802130000000  0.4332100000000  0.5551220000000 1.0
C      1  0.5285380000000  0.4417840000000  0.4988790000000 1.0
C      1  0.5054740000000  0.5614290000000  0.4162900000000 1.0
C      1  0.5674310000000  0.6023020000000  0.4643180000000 1.0
C      1  0.5540330000000  0.4280340000000  0.5418440000000 1.0
C      1  0.4989760000000  0.5660460000000  0.5241140000000 1.0
C      1  0.5582470000000  0.4510380000000  0.4388480000000 1.0
C      1  0.4270240000000  0.5725500000000  0.5145900000000 1.0
C      1  0.5216740000000  0.5785290000000  0.5749450000000 1.0
C      1  0.5245330000000  0.4612200000000  0.4199960000000 1.0
C      1  0.5814210000000  0.5629600000000  0.4932670000000 1.0
C      1  0.5737100000000  0.5171810000000  0.4306420000000 1.0
C      1  0.4670720000000  0.5932390000000  0.4941060000000 1.0
C      1  0.5278790000000  0.5565310000000  0.5924240000000 1.0
C      1  0.4717420000000  0.4805310000000  0.5113070000000 1.0
C      1  0.4090870000000  0.4565710000000  0.4966650000000 1.0
C      1  0.5289440000000  0.5276180000000  0.5648710000000 1.0
C      1  0.5924360000000  0.5668140000000  0.4405610000000 1.0
C      1  0.4603920000000  0.5747090000000  0.4594670000000 1.0
C      1  0.5553670000000  0.5121490000000  0.5549200000000 1.0
C      1  0.5879120000000  0.5131810000000  0.4618110000000 1.0
C      1  0.4083640000000  0.4416890000000  0.5450530000000 1.0
C      1  0.5296660000000  0.4823580000000  0.4744810000000 1.0
C      1  0.5925580000000  0.4739420000000  0.4955730000000 1.0
C      1  0.4544310000000  0.4534380000000  0.5804700000000 1.0
C      1  0.4986610000000  0.5250040000000  0.4955670000000 1.0
END
