TITL C-2778431-5191-1394 -0.00168296550441648 125000 -631.231308138378 0 0 109 (C1) n - 1
REM
REM in /home/nfs/bkarasulu/CARBON/AIRSS/Generating-Clusters/REBO/Only-C1/SD-CG/HFTN-CG
REM
REM
REM
REM
REM
REM ./C.cell (11c1c37f851c82e70ff6c80c92926a4b)
REM
REM compiler GCC version 9.2.1 20190827 (Red Hat 9.2.1-1)
REM options -cpp -mtune=generic -march=x86-64 -g -O0 -fpre-include=/usr/include/finclude/math-vector-fortran.h
REM seed -259427619 210602814 560696183 1488643439 -424262944 527492097 1690794557 242652230 -162016397 -1068107551 -1145632397 2102144500 -401304149 2038908495 264468037 -236951631 -916303659 130678892 377759679 1521764120 -1556417635 -1760578103 -1671629213 578507092 -42593751 1737628176 -680207045 1561744580 1046652285 1144959846 -944087926 -1480184057 -1993517644
REM
CELL 1.54180   50.00000   50.00000   50.00000   90.00000   90.00000   90.00000
LATT -1
SFAC C  
C      1  0.5356760000000  0.5297020000000  0.4504010000000 1.0
C      1  0.5560740000000  0.5066520000000  0.5751450000000 1.0
C      1  0.5349350000000  0.4645650000000  0.4896520000000 1.0
C      1  0.5094100000000  0.4553030000000  0.5337720000000 1.0
C      1  0.5580110000000  0.4766050000000  0.5580910000000 1.0
C      1  0.4776670000000  0.5048660000000  0.4125990000000 1.0
C      1  0.4587160000000  0.5765560000000  0.4934300000000 1.0
C      1  0.5640500000000  0.5464190000000  0.5172430000000 1.0
C      1  0.4421390000000  0.4527950000000  0.4551140000000 1.0
C      1  0.5219410000000  0.5195120000000  0.5047740000000 1.0
C      1  0.4717070000000  0.4891840000000  0.4561110000000 1.0
C      1  0.5601210000000  0.4998830000000  0.4941910000000 1.0
C      1  0.5834480000000  0.5187150000000  0.4895770000000 1.0
C      1  0.5215160000000  0.4225500000000  0.4963920000000 1.0
C      1  0.5136110000000  0.4580950000000  0.4244270000000 1.0
C      1  0.5930230000000  0.5088180000000  0.5358880000000 1.0
C      1  0.4440920000000  0.5248270000000  0.4766960000000 1.0
C      1  0.5366360000000  0.4315780000000  0.4671130000000 1.0
C      1  0.5061680000000  0.5099150000000  0.4130130000000 1.0
C      1  0.5232830000000  0.5122700000000  0.5530880000000 1.0
C      1  0.4922310000000  0.4640290000000  0.4612940000000 1.0
C      1  0.5153710000000  0.5348720000000  0.4250610000000 1.0
C      1  0.4522130000000  0.4364880000000  0.5239100000000 1.0
C      1  0.5104570000000  0.4418630000000  0.5788960000000 1.0
C      1  0.4854790000000  0.4547380000000  0.4231070000000 1.0
C      1  0.5382920000000  0.4849560000000  0.5159010000000 1.0
C      1  0.4978580000000  0.5564610000000  0.4330050000000 1.0
C      1  0.4973550000000  0.5253240000000  0.5439510000000 1.0
C      1  0.5221390000000  0.4812640000000  0.4628720000000 1.0
C      1  0.4347730000000  0.5115620000000  0.5477760000000 1.0
C      1  0.5549150000000  0.4260080000000  0.4939120000000 1.0
C      1  0.5830200000000  0.4636890000000  0.5144760000000 1.0
C      1  0.3974590000000  0.5189860000000  0.4695420000000 1.0
C      1  0.5447810000000  0.4784450000000  0.4390080000000 1.0
C      1  0.4795440000000  0.4656100000000  0.5246030000000 1.0
C      1  0.5679100000000  0.4684510000000  0.4871430000000 1.0
C      1  0.4300310000000  0.5378100000000  0.5365120000000 1.0
C      1  0.4362090000000  0.5636000000000  0.4733800000000 1.0
C      1  0.5077800000000  0.4713040000000  0.5749290000000 1.0
C      1  0.4840570000000  0.5413000000000  0.5909500000000 1.0
C      1  0.4174620000000  0.4896780000000  0.5316670000000 1.0
C      1  0.4559630000000  0.4668310000000  0.5067860000000 1.0
C      1  0.4718130000000  0.5146850000000  0.4787370000000 1.0
C      1  0.5653710000000  0.5255300000000  0.4463390000000 1.0
C      1  0.5153850000000  0.4255840000000  0.5276410000000 1.0
C      1  0.5794760000000  0.5377340000000  0.4672780000000 1.0
C      1  0.4745780000000  0.4561780000000  0.5533360000000 1.0
C      1  0.5280940000000  0.4286590000000  0.5944080000000 1.0
C      1  0.4236520000000  0.5029920000000  0.4835050000000 1.0
C      1  0.5060190000000  0.4497150000000  0.4853620000000 1.0
C      1  0.4287020000000  0.4581880000000  0.5354670000000 1.0
C      1  0.5482110000000  0.4336290000000  0.5237820000000 1.0
C      1  0.5728390000000  0.4703800000000  0.4565120000000 1.0
C      1  0.4934190000000  0.5589320000000  0.5024660000000 1.0
C      1  0.4422720000000  0.5416510000000  0.4490610000000 1.0
C      1  0.4786760000000  0.4172480000000  0.4686940000000 1.0
C      1  0.6033480000000  0.4821540000000  0.5207250000000 1.0
C      1  0.5461340000000  0.5397800000000  0.5708220000000 1.0
C      1  0.4932660000000  0.4925820000000  0.4892400000000 1.0
C      1  0.4955330000000  0.5523190000000  0.5543550000000 1.0
C      1  0.5047050000000  0.5311060000000  0.4630700000000 1.0
C      1  0.5051370000000  0.4802470000000  0.5111750000000 1.0
C      1  0.4471520000000  0.4791080000000  0.4389690000000 1.0
C      1  0.5485950000000  0.5684240000000  0.4961890000000 1.0
C      1  0.4929870000000  0.5731420000000  0.5320030000000 1.0
C      1  0.4969230000000  0.5215830000000  0.5162440000000 1.0
C      1  0.4392770000000  0.4732370000000  0.5605370000000 1.0
C      1  0.5184970000000  0.5904830000000  0.5326430000000 1.0
C      1  0.4101120000000  0.4897560000000  0.4569930000000 1.0
C      1  0.5730280000000  0.5629920000000  0.4759070000000 1.0
C      1  0.4684350000000  0.5691640000000  0.4615790000000 1.0
C      1  0.5937840000000  0.5352900000000  0.5164790000000 1.0
C      1  0.5422730000000  0.5778460000000  0.5275730000000 1.0
C      1  0.4518680000000  0.4420890000000  0.4846150000000 1.0
C      1  0.4813040000000  0.4248650000000  0.5294120000000 1.0
C      1  0.6115720000000  0.5086360000000  0.5038410000000 1.0
C      1  0.4702630000000  0.4778580000000  0.4178240000000 1.0
C      1  0.5439850000000  0.5227210000000  0.5277640000000 1.0
C      1  0.5266770000000  0.4807320000000  0.5481320000000 1.0
C      1  0.4722390000000  0.4400610000000  0.4482310000000 1.0
C      1  0.4442510000000  0.5619140000000  0.5369520000000 1.0
C      1  0.5344400000000  0.5093570000000  0.4777550000000 1.0
C      1  0.4285010000000  0.5034440000000  0.4321590000000 1.0
C      1  0.4628620000000  0.5760850000000  0.5212970000000 1.0
C      1  0.4783650000000  0.4788210000000  0.5717760000000 1.0
C      1  0.4154100000000  0.5417210000000  0.4875370000000 1.0
C      1  0.4543110000000  0.5235750000000  0.4227210000000 1.0
C      1  0.4306620000000  0.4827300000000  0.5041320000000 1.0
C      1  0.4658870000000  0.5253750000000  0.5863710000000 1.0
C      1  0.5648630000000  0.4539340000000  0.5346790000000 1.0
C      1  0.5536840000000  0.5563170000000  0.5474020000000 1.0
C      1  0.5710360000000  0.4987150000000  0.4404340000000 1.0
C      1  0.3959210000000  0.5112920000000  0.5216630000000 1.0
C      1  0.4996220000000  0.5043150000000  0.4519810000000 1.0
C      1  0.4191790000000  0.4638290000000  0.4776840000000 1.0
C      1  0.4902580000000  0.4314560000000  0.5607390000000 1.0
C      1  0.4557470000000  0.5013920000000  0.5702730000000 1.0
C      1  0.5652450000000  0.5060760000000  0.5446110000000 1.0
C      1  0.5224700000000  0.4863190000000  0.4170740000000 1.0
C      1  0.5284690000000  0.4421770000000  0.4430360000000 1.0
C      1  0.5024780000000  0.5708580000000  0.4595250000000 1.0
C      1  0.4882230000000  0.5419460000000  0.4831230000000 1.0
C      1  0.5226130000000  0.5718000000000  0.4774580000000 1.0
C      1  0.5266810000000  0.5166250000000  0.5865560000000 1.0
C      1  0.4670290000000  0.5536500000000  0.4309420000000 1.0
C      1  0.4089210000000  0.5356820000000  0.5167870000000 1.0
C      1  0.5144420000000  0.5478280000000  0.5810140000000 1.0
C      1  0.4241470000000  0.4433770000000  0.5048870000000 1.0
C      1  0.4811610000000  0.4300300000000  0.4971230000000 1.0
END
