TITL C-2778437-8639-1470 -0.00369376021877185 125000 -219.183000614244 0 0 39 (C1) n - 1
REM
REM in /home/nfs/bkarasulu/CARBON/AIRSS/Generating-Clusters/REBO/Only-C1/SD-CG/HFTN-CG
REM
REM
REM
REM
REM
REM ./C.cell (11c1c37f851c82e70ff6c80c92926a4b)
REM
REM compiler GCC version 9.2.1 20190827 (Red Hat 9.2.1-1)
REM options -cpp -mtune=generic -march=x86-64 -g -O0 -fpre-include=/usr/include/finclude/math-vector-fortran.h
REM seed 898553211 402903601 1735000922 -1065695348 590104046 -1982318471 585734663 1388766886 -883157434 315305928 -109316939 1315290378 -948535886 -25081671 1943118938 -331653149 166171345 -2004479980 -1980153350 1719159129 1723696913 -623063328 -1687220254 -1052778086 -1273093159 1328733896 974624159 -1810150708 1297484071 -1742468894 1375044582 -1565203300 763043276
REM
CELL 1.54180   50.00000   50.00000   50.00000   90.00000   90.00000   90.00000
LATT -1
SFAC C  
C      1  0.4549270000000  0.4759970000000  0.5437050000000 1.0
C      1  0.4832980000000  0.4690010000000  0.4484810000000 1.0
C      1  0.5251580000000  0.5517930000000  0.4727700000000 1.0
C      1  0.5110910000000  0.5078270000000  0.5587110000000 1.0
C      1  0.5210620000000  0.5003500000000  0.4341050000000 1.0
C      1  0.4793060000000  0.4630600000000  0.5411240000000 1.0
C      1  0.4374120000000  0.4913400000000  0.5208980000000 1.0
C      1  0.5003890000000  0.4569220000000  0.5231840000000 1.0
C      1  0.4474570000000  0.5125120000000  0.4781000000000 1.0
C      1  0.4910800000000  0.4458410000000  0.4991150000000 1.0
C      1  0.5283630000000  0.4658860000000  0.5328290000000 1.0
C      1  0.5472090000000  0.5185960000000  0.4739370000000 1.0
C      1  0.4735620000000  0.4507370000000  0.4699250000000 1.0
C      1  0.4650060000000  0.5264930000000  0.5491670000000 1.0
C      1  0.5403040000000  0.4481520000000  0.5509850000000 1.0
C      1  0.4445600000000  0.5062420000000  0.5488260000000 1.0
C      1  0.5730830000000  0.5241630000000  0.4654620000000 1.0
C      1  0.5382200000000  0.5741330000000  0.4684850000000 1.0
C      1  0.5091480000000  0.5438040000000  0.4989490000000 1.0
C      1  0.4711950000000  0.5364590000000  0.5230030000000 1.0
C      1  0.4673310000000  0.5325000000000  0.4718930000000 1.0
C      1  0.5732090000000  0.5170740000000  0.5325630000000 1.0
C      1  0.5368310000000  0.5277920000000  0.5025190000000 1.0
C      1  0.5409980000000  0.4903130000000  0.4873670000000 1.0
C      1  0.5468010000000  0.5153780000000  0.5259640000000 1.0
C      1  0.5161970000000  0.4806200000000  0.4776510000000 1.0
C      1  0.4447240000000  0.4629650000000  0.4834390000000 1.0
C      1  0.4810310000000  0.4961280000000  0.4626730000000 1.0
C      1  0.5483070000000  0.4785250000000  0.5105910000000 1.0
C      1  0.4894300000000  0.5232940000000  0.4523970000000 1.0
C      1  0.4920220000000  0.4934420000000  0.4912850000000 1.0
C      1  0.5295480000000  0.4973020000000  0.5405100000000 1.0
C      1  0.5128940000000  0.4767860000000  0.4484120000000 1.0
C      1  0.4593740000000  0.4378990000000  0.4978760000000 1.0
C      1  0.4769600000000  0.5482640000000  0.4940750000000 1.0
C      1  0.4929960000000  0.5153610000000  0.5089510000000 1.0
C      1  0.4393070000000  0.4892080000000  0.4927000000000 1.0
C      1  0.5222350000000  0.5272150000000  0.4524920000000 1.0
C      1  0.4879770000000  0.5206250000000  0.5648830000000 1.0
END
