TITL C-2778425-5191-256 0.00216258363577194 125000 -982.551957743315 0 0 165 (C1) n - 1
REM
REM in /home/nfs/bkarasulu/CARBON/AIRSS/Generating-Clusters/REBO/Only-C1/SD-CG/HFTN-CG
REM
REM
REM
REM
REM
REM ./C.cell (11c1c37f851c82e70ff6c80c92926a4b)
REM
REM compiler GCC version 9.2.1 20190827 (Red Hat 9.2.1-1)
REM options -cpp -mtune=generic -march=x86-64 -g -O0 -fpre-include=/usr/include/finclude/math-vector-fortran.h
REM seed -2121755084 1592218271 1526290037 -1743235645 -1036989490 1510488078 -95221924 -1422689193 -1911226104 1208937159 -2073891562 -1191891213 -454162395 511332326 1263756964 1685709448 625523628 268258928 -663999611 1099219648 -838465037 -192409054 601595948 671454391 811190450 -1331429957 -1657213803 -115789445 -917457049 1303880613 -382595238 1724423397 -1151488384
REM
CELL 1.54180   50.00000   50.00000   50.00000   90.00000   90.00000   90.00000
LATT -1
SFAC C  
C      1  0.4998610000000  0.4727840000000  0.5918800000000 1.0
C      1  0.5219000000000  0.5028210000000  0.4462880000000 1.0
C      1  0.4873540000000  0.4901070000000  0.4761290000000 1.0
C      1  0.5337250000000  0.4439960000000  0.5766160000000 1.0
C      1  0.4957350000000  0.3818120000000  0.4685060000000 1.0
C      1  0.6085140000000  0.4630710000000  0.4751560000000 1.0
C      1  0.4674520000000  0.5806070000000  0.5796930000000 1.0
C      1  0.4444750000000  0.4180160000000  0.5347720000000 1.0
C      1  0.4908160000000  0.4238580000000  0.4220830000000 1.0
C      1  0.5044990000000  0.5240770000000  0.5466370000000 1.0
C      1  0.5730670000000  0.5109350000000  0.4555040000000 1.0
C      1  0.5790420000000  0.5593920000000  0.5446970000000 1.0
C      1  0.5846910000000  0.5261590000000  0.5075230000000 1.0
C      1  0.5599430000000  0.4117370000000  0.4900720000000 1.0
C      1  0.5974200000000  0.4618920000000  0.5312990000000 1.0
C      1  0.4557350000000  0.5663740000000  0.6027150000000 1.0
C      1  0.4136120000000  0.5542670000000  0.4911410000000 1.0
C      1  0.5159680000000  0.5547680000000  0.5240020000000 1.0
C      1  0.4526560000000  0.5861410000000  0.5534310000000 1.0
C      1  0.5778170000000  0.4886840000000  0.4356070000000 1.0
C      1  0.5562400000000  0.5556110000000  0.4247070000000 1.0
C      1  0.5798840000000  0.5572930000000  0.5165960000000 1.0
C      1  0.5316310000000  0.4322610000000  0.4538790000000 1.0
C      1  0.5871810000000  0.5293780000000  0.4743510000000 1.0
C      1  0.5068700000000  0.5487650000000  0.5876600000000 1.0
C      1  0.4357590000000  0.4232070000000  0.5078200000000 1.0
C      1  0.4029540000000  0.5038760000000  0.5166880000000 1.0
C      1  0.4770540000000  0.4960890000000  0.5533610000000 1.0
C      1  0.5317840000000  0.5869580000000  0.5415510000000 1.0
C      1  0.5765330000000  0.4613610000000  0.5584360000000 1.0
C      1  0.4937640000000  0.5835220000000  0.4610670000000 1.0
C      1  0.5020850000000  0.5376140000000  0.3994400000000 1.0
C      1  0.5415760000000  0.3909930000000  0.4841230000000 1.0
C      1  0.5461040000000  0.5119180000000  0.4625330000000 1.0
C      1  0.5791390000000  0.5594930000000  0.4347570000000 1.0
C      1  0.5436590000000  0.4597820000000  0.5114760000000 1.0
C      1  0.4443640000000  0.5814440000000  0.5222120000000 1.0
C      1  0.5328150000000  0.5087580000000  0.5352570000000 1.0
C      1  0.4646940000000  0.5935780000000  0.4517630000000 1.0
C      1  0.5294240000000  0.4984640000000  0.4190510000000 1.0
C      1  0.5430810000000  0.4927100000000  0.3891560000000 1.0
C      1  0.5934150000000  0.4888770000000  0.5499110000000 1.0
C      1  0.5004890000000  0.4733060000000  0.5432600000000 1.0
C      1  0.4901030000000  0.5299850000000  0.4763450000000 1.0
C      1  0.4714990000000  0.4526510000000  0.4646490000000 1.0
C      1  0.4808740000000  0.5696560000000  0.4337730000000 1.0
C      1  0.5711880000000  0.4429900000000  0.5237130000000 1.0
C      1  0.4277670000000  0.5625340000000  0.5529940000000 1.0
C      1  0.4462850000000  0.4904260000000  0.5474030000000 1.0
C      1  0.4594120000000  0.5217190000000  0.4836980000000 1.0
C      1  0.5936420000000  0.5381830000000  0.5559620000000 1.0
C      1  0.4796930000000  0.5644340000000  0.5081110000000 1.0
C      1  0.4845040000000  0.4783180000000  0.5071140000000 1.0
C      1  0.4206930000000  0.5151780000000  0.4341610000000 1.0
C      1  0.4794120000000  0.5946750000000  0.5341620000000 1.0
C      1  0.4233900000000  0.5824070000000  0.4745610000000 1.0
C      1  0.4986980000000  0.4489420000000  0.5044490000000 1.0
C      1  0.5414630000000  0.5745580000000  0.4960010000000 1.0
C      1  0.5302640000000  0.5559430000000  0.4442170000000 1.0
C      1  0.4711660000000  0.4903220000000  0.4176120000000 1.0
C      1  0.4218640000000  0.5636210000000  0.5194520000000 1.0
C      1  0.4106220000000  0.5111320000000  0.4664770000000 1.0
C      1  0.4596070000000  0.5477520000000  0.4270380000000 1.0
C      1  0.4535490000000  0.4770210000000  0.5194210000000 1.0
C      1  0.5643710000000  0.4840650000000  0.5769690000000 1.0
C      1  0.5069250000000  0.4068840000000  0.5512440000000 1.0
C      1  0.4075250000000  0.5238140000000  0.4900560000000 1.0
C      1  0.5392730000000  0.5525030000000  0.5829580000000 1.0
C      1  0.4730500000000  0.5418000000000  0.5873680000000 1.0
C      1  0.4380430000000  0.4400240000000  0.5528120000000 1.0
C      1  0.4982290000000  0.4608470000000  0.3905010000000 1.0
C      1  0.5136880000000  0.5021310000000  0.4940780000000 1.0
C      1  0.4477250000000  0.5958350000000  0.4742700000000 1.0
C      1  0.5051940000000  0.4607380000000  0.4447050000000 1.0
C      1  0.5135880000000  0.5094890000000  0.3934920000000 1.0
C      1  0.5331760000000  0.4514430000000  0.4275130000000 1.0
C      1  0.4471500000000  0.5203540000000  0.4531570000000 1.0
C      1  0.5812540000000  0.5127670000000  0.5709970000000 1.0
C      1  0.4717220000000  0.3732900000000  0.4595090000000 1.0
C      1  0.4614480000000  0.4908080000000  0.4588060000000 1.0
C      1  0.4850120000000  0.4181260000000  0.4993680000000 1.0
C      1  0.5898130000000  0.4665660000000  0.4526610000000 1.0
C      1  0.5801870000000  0.5604360000000  0.4670160000000 1.0
C      1  0.4610000000000  0.5376820000000  0.5085180000000 1.0
C      1  0.5087580000000  0.4293090000000  0.5757660000000 1.0
C      1  0.5017900000000  0.5771330000000  0.5453390000000 1.0
C      1  0.5320260000000  0.4756640000000  0.5835450000000 1.0
C      1  0.4273050000000  0.5087190000000  0.5688910000000 1.0
C      1  0.4597670000000  0.5118330000000  0.5781830000000 1.0
C      1  0.5675600000000  0.4694080000000  0.4939260000000 1.0
C      1  0.5692240000000  0.5713280000000  0.4950020000000 1.0
C      1  0.5232440000000  0.4256030000000  0.5080190000000 1.0
C      1  0.4310270000000  0.4847890000000  0.4447220000000 1.0
C      1  0.4349530000000  0.4368380000000  0.4530880000000 1.0
C      1  0.4136160000000  0.4883430000000  0.5450550000000 1.0
C      1  0.4726880000000  0.5185080000000  0.4323780000000 1.0
C      1  0.4707970000000  0.4093080000000  0.5361280000000 1.0
C      1  0.5528440000000  0.5258190000000  0.5143450000000 1.0
C      1  0.5044870000000  0.5192020000000  0.5776350000000 1.0
C      1  0.4626750000000  0.4483400000000  0.5694590000000 1.0
C      1  0.4130680000000  0.4475460000000  0.5106000000000 1.0
C      1  0.4201360000000  0.4495810000000  0.4780490000000 1.0
C      1  0.5226640000000  0.3992890000000  0.4571730000000 1.0
C      1  0.5073420000000  0.4639390000000  0.4778590000000 1.0
C      1  0.5538830000000  0.5222820000000  0.5820890000000 1.0
C      1  0.4990200000000  0.5219560000000  0.4487510000000 1.0
C      1  0.4563510000000  0.4163880000000  0.4889030000000 1.0
C      1  0.5575060000000  0.3993790000000  0.5337090000000 1.0
C      1  0.4012690000000  0.4763760000000  0.5000430000000 1.0
C      1  0.4185030000000  0.4570980000000  0.5406470000000 1.0
C      1  0.5367120000000  0.5254670000000  0.4873670000000 1.0
C      1  0.5319320000000  0.5056950000000  0.5691130000000 1.0
C      1  0.4083850000000  0.4791300000000  0.4686310000000 1.0
C      1  0.5536630000000  0.4766460000000  0.4174490000000 1.0
C      1  0.4795940000000  0.5450790000000  0.5364990000000 1.0
C      1  0.5946350000000  0.4654670000000  0.5004000000000 1.0
C      1  0.5138350000000  0.6022340000000  0.4761260000000 1.0
C      1  0.5567640000000  0.5418590000000  0.6090410000000 1.0
C      1  0.5730860000000  0.4141140000000  0.5149110000000 1.0
C      1  0.5231400000000  0.4818740000000  0.5193480000000 1.0
C      1  0.4869770000000  0.4980450000000  0.5916960000000 1.0
C      1  0.4337780000000  0.5529280000000  0.4343310000000 1.0
C      1  0.4766920000000  0.5392180000000  0.3876680000000 1.0
C      1  0.5615310000000  0.4698420000000  0.4665450000000 1.0
C      1  0.5420330000000  0.5499210000000  0.5306920000000 1.0
C      1  0.4101600000000  0.5367600000000  0.5656260000000 1.0
C      1  0.4421350000000  0.5067690000000  0.4096230000000 1.0
C      1  0.4507750000000  0.4599150000000  0.4816120000000 1.0
C      1  0.4762480000000  0.4640770000000  0.4331600000000 1.0
C      1  0.4967890000000  0.5612110000000  0.4819830000000 1.0
C      1  0.4630640000000  0.5928980000000  0.4996950000000 1.0
C      1  0.4575660000000  0.5468800000000  0.5591380000000 1.0
C      1  0.5125890000000  0.3857230000000  0.4933920000000 1.0
C      1  0.4960110000000  0.3947680000000  0.5206350000000 1.0
C      1  0.5315890000000  0.4075320000000  0.5322550000000 1.0
C      1  0.5979880000000  0.5162190000000  0.5349200000000 1.0
C      1  0.4503320000000  0.4911350000000  0.4911890000000 1.0
C      1  0.5029250000000  0.5313700000000  0.5075010000000 1.0
C      1  0.5041480000000  0.5479350000000  0.4289840000000 1.0
C      1  0.4958830000000  0.6008560000000  0.5050060000000 1.0
C      1  0.4630110000000  0.5135290000000  0.3866350000000 1.0
C      1  0.5073980000000  0.4429430000000  0.4090580000000 1.0
C      1  0.5520850000000  0.5776670000000  0.4577560000000 1.0
C      1  0.5273070000000  0.5538520000000  0.4781870000000 1.0
C      1  0.4425710000000  0.5319620000000  0.5324080000000 1.0
C      1  0.4903390000000  0.4347720000000  0.5408210000000 1.0
C      1  0.5208730000000  0.4473360000000  0.5393160000000 1.0
C      1  0.4184550000000  0.5574470000000  0.4570940000000 1.0
C      1  0.5658720000000  0.5457470000000  0.6326400000000 1.0
C      1  0.5087850000000  0.4219870000000  0.4770780000000 1.0
C      1  0.4442090000000  0.4579760000000  0.4360230000000 1.0
C      1  0.5510020000000  0.5668020000000  0.5574250000000 1.0
C      1  0.4745280000000  0.4134930000000  0.4412760000000 1.0
C      1  0.4537610000000  0.4171060000000  0.4604560000000 1.0
C      1  0.5268490000000  0.5914800000000  0.5125440000000 1.0
C      1  0.4878160000000  0.5057540000000  0.5240480000000 1.0
C      1  0.4149920000000  0.5270630000000  0.5357150000000 1.0
C      1  0.5394530000000  0.6009490000000  0.4661320000000 1.0
C      1  0.5510590000000  0.4440300000000  0.5499170000000 1.0
C      1  0.4883430000000  0.4909020000000  0.3899050000000 1.0
C      1  0.4877030000000  0.4474780000000  0.5840820000000 1.0
C      1  0.4702760000000  0.4594760000000  0.5393820000000 1.0
C      1  0.5328460000000  0.4743810000000  0.4601900000000 1.0
C      1  0.4939780000000  0.5729150000000  0.5736950000000 1.0
C      1  0.5441850000000  0.4385940000000  0.4842550000000 1.0
END
