TITL C-2778426-5645-553 -0.142533467892367 125000 -321.813187487802 0 0 58 (C1) n - 1
REM
REM in /home/nfs/bkarasulu/CARBON/AIRSS/Generating-Clusters/REBO/Only-C1/SD-CG/HFTN-CG
REM
REM
REM
REM
REM
REM ./C.cell (11c1c37f851c82e70ff6c80c92926a4b)
REM
REM compiler GCC version 9.2.1 20190827 (Red Hat 9.2.1-1)
REM options -cpp -mtune=generic -march=x86-64 -g -O0 -fpre-include=/usr/include/finclude/math-vector-fortran.h
REM seed 2060197052 -739015319 -1726339429 1405304727 -475518799 -1458379032 -440281963 1777700792 -1264260892 31543618 -1067301329 241468069 -719691792 -1931188132 1562411885 470532263 -629943852 1690160201 1034379156 933460491 781915839 -316532399 1576238673 777372657 -93397048 813667382 -1225051486 -255822898 -303825918 -123368653 1026611028 -917185212 678916592
REM
CELL 1.54180   50.00000   50.00000   50.00000   90.00000   90.00000   90.00000
LATT -1
SFAC C  
C      1  0.4121350000000  0.5166830000000  0.4442450000000 1.0
C      1  0.5114780000000  0.4827310000000  0.4380390000000 1.0
C      1  0.4426430000000  0.5452140000000  0.4978200000000 1.0
C      1  0.4737300000000  0.5548030000000  0.4897790000000 1.0
C      1  0.4707660000000  0.5101150000000  0.4674710000000 1.0
C      1  0.5569960000000  0.5313300000000  0.5081980000000 1.0
C      1  0.4506390000000  0.4718510000000  0.4808810000000 1.0
C      1  0.5214140000000  0.5499490000000  0.4966380000000 1.0
C      1  0.5813840000000  0.5226430000000  0.5299590000000 1.0
C      1  0.4699360000000  0.4674310000000  0.4629110000000 1.0
C      1  0.4558380000000  0.5333870000000  0.5472530000000 1.0
C      1  0.4401590000000  0.5058880000000  0.5421970000000 1.0
C      1  0.5159600000000  0.4606170000000  0.5927870000000 1.0
C      1  0.4247420000000  0.4438800000000  0.5128790000000 1.0
C      1  0.5350580000000  0.4335710000000  0.4842160000000 1.0
C      1  0.4380440000000  0.5211550000000  0.4477150000000 1.0
C      1  0.4751000000000  0.5339220000000  0.4427340000000 1.0
C      1  0.5813220000000  0.5093700000000  0.4993770000000 1.0
C      1  0.5644050000000  0.4744960000000  0.4654850000000 1.0
C      1  0.5596800000000  0.5222740000000  0.4683370000000 1.0
C      1  0.5250120000000  0.5223210000000  0.5494160000000 1.0
C      1  0.5715430000000  0.4836710000000  0.4915650000000 1.0
C      1  0.4742750000000  0.5213830000000  0.4927160000000 1.0
C      1  0.4955260000000  0.4606200000000  0.4540780000000 1.0
C      1  0.5329150000000  0.5246130000000  0.4771990000000 1.0
C      1  0.5116750000000  0.4441790000000  0.5057060000000 1.0
C      1  0.5302220000000  0.5110180000000  0.5083670000000 1.0
C      1  0.4519850000000  0.5452110000000  0.4651260000000 1.0
C      1  0.4805800000000  0.5050680000000  0.5145110000000 1.0
C      1  0.5141810000000  0.4663860000000  0.5662240000000 1.0
C      1  0.4647070000000  0.4656480000000  0.5582130000000 1.0
C      1  0.4410660000000  0.5276540000000  0.5186050000000 1.0
C      1  0.5007720000000  0.5635970000000  0.4814380000000 1.0
C      1  0.5333060000000  0.4834400000000  0.5536020000000 1.0
C      1  0.5093460000000  0.4402980000000  0.4651600000000 1.0
C      1  0.4950800000000  0.5149470000000  0.5368640000000 1.0
C      1  0.4427720000000  0.4650970000000  0.5116410000000 1.0
C      1  0.4746460000000  0.4769870000000  0.5122190000000 1.0
C      1  0.4941170000000  0.4581780000000  0.5222250000000 1.0
C      1  0.5054270000000  0.5571460000000  0.4539040000000 1.0
C      1  0.4996490000000  0.5179050000000  0.5689720000000 1.0
C      1  0.5138060000000  0.5307230000000  0.4522530000000 1.0
C      1  0.4782310000000  0.5479930000000  0.5536210000000 1.0
C      1  0.4972570000000  0.5079510000000  0.4376570000000 1.0
C      1  0.5480980000000  0.4481580000000  0.4592450000000 1.0
C      1  0.4635480000000  0.5027270000000  0.4348190000000 1.0
C      1  0.5204140000000  0.5531130000000  0.5243080000000 1.0
C      1  0.5027050000000  0.5551490000000  0.5447060000000 1.0
C      1  0.4915130000000  0.4585050000000  0.5508990000000 1.0
C      1  0.5452200000000  0.4839170000000  0.4424040000000 1.0
C      1  0.5513150000000  0.4426500000000  0.5100860000000 1.0
C      1  0.3865320000000  0.5122650000000  0.4408160000000 1.0
C      1  0.4465220000000  0.4787790000000  0.5405430000000 1.0
C      1  0.5558690000000  0.4705520000000  0.5123300000000 1.0
C      1  0.5306550000000  0.4547530000000  0.4345930000000 1.0
C      1  0.5357470000000  0.4876480000000  0.5246170000000 1.0
C      1  0.5519530000000  0.4954700000000  0.5697060000000 1.0
C      1  0.5503850000000  0.5229720000000  0.5407240000000 1.0
END
