TITL C-2778423-5760-1047 -0.00131996233969845 125000 -1150.78831088482 0 0 195 (C1) n - 1
REM
REM in /home/nfs/bkarasulu/CARBON/AIRSS/Generating-Clusters/REBO/Only-C1/SD-CG/HFTN-CG
REM
REM
REM
REM
REM
REM ./C.cell (11c1c37f851c82e70ff6c80c92926a4b)
REM
REM compiler GCC version 9.2.1 20190827 (Red Hat 9.2.1-1)
REM options -cpp -mtune=generic -march=x86-64 -g -O0 -fpre-include=/usr/include/finclude/math-vector-fortran.h
REM seed 859247826 1662289513 1712033279 -1744505982 -911131206 192400468 636814606 1117882744 -1581942086 1448645415 1800473348 1120518517 803931492 1142342582 387580897 1288611557 1936932838 1978069858 1801971980 -599937019 -1088698582 489898627 -1028599166 -1939837173 1962112196 565153168 -188553550 -1398732904 -1429571302 57889582 -429942438 1046358067 1722173437
REM
CELL 1.54180   50.00000   50.00000   50.00000   90.00000   90.00000   90.00000
LATT -1
SFAC C  
C      1  0.5497650000000  0.4358840000000  0.4642340000000 1.0
C      1  0.5626780000000  0.5244350000000  0.5821920000000 1.0
C      1  0.5157340000000  0.5678440000000  0.4968920000000 1.0
C      1  0.4696690000000  0.5958950000000  0.4867680000000 1.0
C      1  0.4275860000000  0.5081590000000  0.4768230000000 1.0
C      1  0.4956390000000  0.5637500000000  0.4474470000000 1.0
C      1  0.5914730000000  0.5150790000000  0.4408030000000 1.0
C      1  0.4883960000000  0.4506500000000  0.4579310000000 1.0
C      1  0.5015000000000  0.5702200000000  0.5845190000000 1.0
C      1  0.4511450000000  0.4446770000000  0.5598190000000 1.0
C      1  0.5106450000000  0.5287670000000  0.3737060000000 1.0
C      1  0.4138240000000  0.5218500000000  0.5622100000000 1.0
C      1  0.5320090000000  0.4951680000000  0.4047400000000 1.0
C      1  0.4275860000000  0.5382340000000  0.5819450000000 1.0
C      1  0.5318740000000  0.5252030000000  0.3905440000000 1.0
C      1  0.5004010000000  0.4575470000000  0.5101270000000 1.0
C      1  0.4644670000000  0.5468740000000  0.3997770000000 1.0
C      1  0.5473160000000  0.4413430000000  0.4113310000000 1.0
C      1  0.4952260000000  0.4349070000000  0.6038950000000 1.0
C      1  0.4403760000000  0.4196800000000  0.4905390000000 1.0
C      1  0.5469510000000  0.5608210000000  0.5594260000000 1.0
C      1  0.4184870000000  0.4900290000000  0.5148160000000 1.0
C      1  0.4808350000000  0.5026750000000  0.5766760000000 1.0
C      1  0.5093330000000  0.4676390000000  0.5531650000000 1.0
C      1  0.5170630000000  0.4332560000000  0.4151760000000 1.0
C      1  0.4606850000000  0.5110600000000  0.6161610000000 1.0
C      1  0.5012890000000  0.4239280000000  0.4747440000000 1.0
C      1  0.5463130000000  0.4386570000000  0.4954690000000 1.0
C      1  0.4087460000000  0.4563890000000  0.4684220000000 1.0
C      1  0.4409900000000  0.6102140000000  0.5399700000000 1.0
C      1  0.3893280000000  0.5011190000000  0.4843850000000 1.0
C      1  0.5855260000000  0.5607290000000  0.4857830000000 1.0
C      1  0.5119310000000  0.4924790000000  0.5347090000000 1.0
C      1  0.4761590000000  0.4543230000000  0.5301800000000 1.0
C      1  0.5036590000000  0.5327760000000  0.4413900000000 1.0
C      1  0.4850980000000  0.4734490000000  0.3950030000000 1.0
C      1  0.5552210000000  0.4634540000000  0.5086640000000 1.0
C      1  0.4386280000000  0.5274350000000  0.4041900000000 1.0
C      1  0.3977340000000  0.5022230000000  0.5395380000000 1.0
C      1  0.4965930000000  0.4851740000000  0.6004400000000 1.0
C      1  0.4473280000000  0.4992370000000  0.4520970000000 1.0
C      1  0.4190770000000  0.5347440000000  0.5311210000000 1.0
C      1  0.5509650000000  0.4050780000000  0.5350840000000 1.0
C      1  0.5900940000000  0.5443270000000  0.5147590000000 1.0
C      1  0.4861790000000  0.5672870000000  0.4167250000000 1.0
C      1  0.4553400000000  0.5875380000000  0.5556510000000 1.0
C      1  0.5838840000000  0.5531470000000  0.5465410000000 1.0
C      1  0.5732460000000  0.5240790000000  0.4212710000000 1.0
C      1  0.4849550000000  0.5184450000000  0.4186400000000 1.0
C      1  0.4838850000000  0.5316650000000  0.6169820000000 1.0
C      1  0.4707890000000  0.4497380000000  0.4039460000000 1.0
C      1  0.5278810000000  0.5104220000000  0.4764270000000 1.0
C      1  0.4615380000000  0.4498180000000  0.4755600000000 1.0
C      1  0.5191780000000  0.5676870000000  0.4156150000000 1.0
C      1  0.5189180000000  0.5153200000000  0.5556750000000 1.0
C      1  0.4739540000000  0.5727370000000  0.5381530000000 1.0
C      1  0.5122130000000  0.3946640000000  0.4882050000000 1.0
C      1  0.5034950000000  0.3903230000000  0.5446600000000 1.0
C      1  0.5950840000000  0.5048630000000  0.5475710000000 1.0
C      1  0.5552250000000  0.5398670000000  0.5338270000000 1.0
C      1  0.4819480000000  0.4732430000000  0.5652980000000 1.0
C      1  0.4323900000000  0.4381620000000  0.4647980000000 1.0
C      1  0.4778310000000  0.4109870000000  0.4369350000000 1.0
C      1  0.4479210000000  0.5479360000000  0.4966410000000 1.0
C      1  0.4973840000000  0.5616180000000  0.5517230000000 1.0
C      1  0.4757890000000  0.4525720000000  0.5902520000000 1.0
C      1  0.5176930000000  0.6019090000000  0.4699400000000 1.0
C      1  0.4485230000000  0.5198760000000  0.4964330000000 1.0
C      1  0.4347440000000  0.4895810000000  0.5449310000000 1.0
C      1  0.4741360000000  0.5566960000000  0.5996350000000 1.0
C      1  0.5150900000000  0.4315550000000  0.5030650000000 1.0
C      1  0.6057440000000  0.4598110000000  0.4735160000000 1.0
C      1  0.5361480000000  0.4711780000000  0.5719780000000 1.0
C      1  0.5565800000000  0.4097390000000  0.5043830000000 1.0
C      1  0.5207910000000  0.5279750000000  0.4995110000000 1.0
C      1  0.4570760000000  0.5688230000000  0.5150270000000 1.0
C      1  0.4031900000000  0.5304940000000  0.4796440000000 1.0
C      1  0.4893950000000  0.4877970000000  0.4980930000000 1.0
C      1  0.5209260000000  0.4401000000000  0.4551320000000 1.0
C      1  0.5793630000000  0.4516110000000  0.4165850000000 1.0
C      1  0.4416480000000  0.5939790000000  0.4826130000000 1.0
C      1  0.5836790000000  0.4739330000000  0.5521020000000 1.0
C      1  0.4326330000000  0.4516570000000  0.5331320000000 1.0
C      1  0.4135670000000  0.4956320000000  0.4311100000000 1.0
C      1  0.4852420000000  0.5320780000000  0.4699640000000 1.0
C      1  0.4869430000000  0.4800960000000  0.4450820000000 1.0
C      1  0.5123390000000  0.5294330000000  0.6151060000000 1.0
C      1  0.5144730000000  0.5950870000000  0.5650710000000 1.0
C      1  0.4284010000000  0.4775760000000  0.4124450000000 1.0
C      1  0.5865760000000  0.4716110000000  0.5191650000000 1.0
C      1  0.4328620000000  0.5857640000000  0.5226560000000 1.0
C      1  0.5539530000000  0.4742190000000  0.4173080000000 1.0
C      1  0.4293790000000  0.4275070000000  0.4163870000000 1.0
C      1  0.6061100000000  0.4106500000000  0.4788680000000 1.0
C      1  0.5927650000000  0.4433590000000  0.5899030000000 1.0
C      1  0.4443440000000  0.4986910000000  0.3958080000000 1.0
C      1  0.5694580000000  0.5557280000000  0.4168770000000 1.0
C      1  0.4435140000000  0.4715520000000  0.5075970000000 1.0
C      1  0.4717140000000  0.4953880000000  0.3828110000000 1.0
C      1  0.4151780000000  0.5518080000000  0.4378670000000 1.0
C      1  0.4188750000000  0.5255530000000  0.4254770000000 1.0
C      1  0.4313300000000  0.5673950000000  0.4804800000000 1.0
C      1  0.4188360000000  0.5656270000000  0.5389980000000 1.0
C      1  0.4112180000000  0.5543160000000  0.4657010000000 1.0
C      1  0.4645910000000  0.4972860000000  0.5123240000000 1.0
C      1  0.4278210000000  0.4272540000000  0.5168820000000 1.0
C      1  0.5183730000000  0.4427220000000  0.6104060000000 1.0
C      1  0.4291920000000  0.5732960000000  0.4251010000000 1.0
C      1  0.5466570000000  0.5733920000000  0.4352580000000 1.0
C      1  0.5772210000000  0.5842610000000  0.5482490000000 1.0
C      1  0.4561580000000  0.4803460000000  0.4772780000000 1.0
C      1  0.4457310000000  0.4665790000000  0.5850080000000 1.0
C      1  0.4056750000000  0.4690270000000  0.5453950000000 1.0
C      1  0.4650240000000  0.5248590000000  0.4454340000000 1.0
C      1  0.4568340000000  0.5184450000000  0.5632120000000 1.0
C      1  0.5366540000000  0.4811730000000  0.4770890000000 1.0
C      1  0.5470810000000  0.4627560000000  0.5406280000000 1.0
C      1  0.5028850000000  0.5201570000000  0.5193820000000 1.0
C      1  0.3953140000000  0.5214520000000  0.5112970000000 1.0
C      1  0.5440120000000  0.3924670000000  0.4836070000000 1.0
C      1  0.5590190000000  0.5327430000000  0.4649770000000 1.0
C      1  0.5795170000000  0.5083750000000  0.4782240000000 1.0
C      1  0.5496300000000  0.4315730000000  0.5647850000000 1.0
C      1  0.4706240000000  0.4065330000000  0.5125380000000 1.0
C      1  0.5625640000000  0.5760470000000  0.4656870000000 1.0
C      1  0.4638980000000  0.4921360000000  0.4232450000000 1.0
C      1  0.3929640000000  0.4516720000000  0.4904690000000 1.0
C      1  0.5356410000000  0.5492630000000  0.4780470000000 1.0
C      1  0.5578430000000  0.4957880000000  0.4984130000000 1.0
C      1  0.3948860000000  0.4655730000000  0.5133160000000 1.0
C      1  0.4933480000000  0.5325760000000  0.5674430000000 1.0
C      1  0.4338820000000  0.4178120000000  0.4407700000000 1.0
C      1  0.5531370000000  0.4046280000000  0.4596610000000 1.0
C      1  0.4472070000000  0.5348320000000  0.6022410000000 1.0
C      1  0.4837900000000  0.4351010000000  0.5536970000000 1.0
C      1  0.4634480000000  0.5502560000000  0.5693500000000 1.0
C      1  0.5263610000000  0.4710730000000  0.6010270000000 1.0
C      1  0.5043950000000  0.6156120000000  0.4855870000000 1.0
C      1  0.4915820000000  0.3910460000000  0.4543560000000 1.0
C      1  0.4517570000000  0.4134280000000  0.5620840000000 1.0
C      1  0.5435480000000  0.4726330000000  0.4499120000000 1.0
C      1  0.5450080000000  0.5916300000000  0.5562850000000 1.0
C      1  0.5236980000000  0.5511540000000  0.5999730000000 1.0
C      1  0.6014810000000  0.4869640000000  0.4936000000000 1.0
C      1  0.5045720000000  0.4832020000000  0.4158990000000 1.0
C      1  0.4874390000000  0.4282320000000  0.4163880000000 1.0
C      1  0.4836090000000  0.4994940000000  0.4700440000000 1.0
C      1  0.4832030000000  0.5736830000000  0.4746790000000 1.0
C      1  0.5785740000000  0.5767240000000  0.5149720000000 1.0
C      1  0.5987740000000  0.5352700000000  0.4673230000000 1.0
C      1  0.5205630000000  0.4828500000000  0.5044230000000 1.0
C      1  0.5280040000000  0.4058800000000  0.5589380000000 1.0
C      1  0.5617720000000  0.5125090000000  0.5244960000000 1.0
C      1  0.5789020000000  0.5535790000000  0.4473860000000 1.0
C      1  0.5944390000000  0.5122910000000  0.5151650000000 1.0
C      1  0.5852830000000  0.5268600000000  0.5642280000000 1.0
C      1  0.5483860000000  0.5488130000000  0.5867720000000 1.0
C      1  0.5474780000000  0.5127830000000  0.4250630000000 1.0
C      1  0.5210070000000  0.5024330000000  0.6132940000000 1.0
C      1  0.4857610000000  0.6096040000000  0.5115800000000 1.0
C      1  0.4336120000000  0.5661710000000  0.5672590000000 1.0
C      1  0.4764170000000  0.5343630000000  0.5211490000000 1.0
C      1  0.4838450000000  0.5244070000000  0.3863780000000 1.0
C      1  0.4561130000000  0.4061780000000  0.4633680000000 1.0
C      1  0.5234370000000  0.5738340000000  0.4581400000000 1.0
C      1  0.4415680000000  0.4517260000000  0.4085210000000 1.0
C      1  0.4536010000000  0.5744820000000  0.4139750000000 1.0
C      1  0.5192000000000  0.4612000000000  0.4314600000000 1.0
C      1  0.4877830000000  0.5499480000000  0.4956530000000 1.0
C      1  0.5458280000000  0.5837270000000  0.4911590000000 1.0
C      1  0.5829020000000  0.4874780000000  0.4515610000000 1.0
C      1  0.4080770000000  0.4857450000000  0.4605070000000 1.0
C      1  0.6009540000000  0.4352870000000  0.4890460000000 1.0
C      1  0.5309940000000  0.5232290000000  0.4481480000000 1.0
C      1  0.4766030000000  0.4036390000000  0.5427400000000 1.0
C      1  0.5206330000000  0.4024950000000  0.5199150000000 1.0
C      1  0.5434730000000  0.5038070000000  0.5717440000000 1.0
C      1  0.4634070000000  0.4817560000000  0.5404940000000 1.0
C      1  0.5184310000000  0.5936230000000  0.5158200000000 1.0
C      1  0.4785000000000  0.3930690000000  0.4857130000000 1.0
C      1  0.5656120000000  0.4348030000000  0.5345930000000 1.0
C      1  0.5009590000000  0.6017560000000  0.5408350000000 1.0
C      1  0.5507540000000  0.5948780000000  0.5228120000000 1.0
C      1  0.5873040000000  0.4401500000000  0.5130590000000 1.0
C      1  0.5402360000000  0.5484780000000  0.4046660000000 1.0
C      1  0.4523610000000  0.5288290000000  0.5350870000000 1.0
C      1  0.5571600000000  0.4928410000000  0.5461150000000 1.0
C      1  0.4649750000000  0.4375100000000  0.5062590000000 1.0
C      1  0.5705950000000  0.4567140000000  0.4549360000000 1.0
C      1  0.5160750000000  0.4368370000000  0.5613710000000 1.0
C      1  0.4653030000000  0.4824410000000  0.6074170000000 1.0
C      1  0.5231850000000  0.5448870000000  0.5438670000000 1.0
C      1  0.5767370000000  0.4499440000000  0.5697830000000 1.0
C      1  0.4281010000000  0.4860590000000  0.5735670000000 1.0
C      1  0.6002390000000  0.4543000000000  0.4408900000000 1.0
END
