TITL C-2778436-5916-756 -0.00184137767560307 125000 -311.628639920993 0 0 56 (C1) n - 1
REM
REM in /home/nfs/bkarasulu/CARBON/AIRSS/Generating-Clusters/REBO/Only-C1/SD-CG/HFTN-CG
REM
REM
REM
REM
REM
REM ./C.cell (11c1c37f851c82e70ff6c80c92926a4b)
REM
REM compiler GCC version 9.2.1 20190827 (Red Hat 9.2.1-1)
REM options -cpp -mtune=generic -march=x86-64 -g -O0 -fpre-include=/usr/include/finclude/math-vector-fortran.h
REM seed -21590846 2016549376 1200463242 1069445895 348569105 75876882 1868327612 -1582181941 126304119 349153549 -26835380 420491233 -839193553 761367113 307524109 1620495008 -1075874850 -1234665597 -1956481882 -975694546 1086440194 -900254817 1648434117 127122381 -497951588 -1348869121 -1244250548 -680529418 -74439320 2026591334 709120783 -1267263459 -206151517
REM
CELL 1.54180   50.00000   50.00000   50.00000   90.00000   90.00000   90.00000
LATT -1
SFAC C  
C      1  0.5445440000000  0.4858050000000  0.4485280000000 1.0
C      1  0.4643420000000  0.5287910000000  0.4446950000000 1.0
C      1  0.5217840000000  0.4972750000000  0.4978000000000 1.0
C      1  0.4852530000000  0.5326680000000  0.5217990000000 1.0
C      1  0.5350100000000  0.5511000000000  0.4659930000000 1.0
C      1  0.5103470000000  0.5607260000000  0.5372380000000 1.0
C      1  0.5144860000000  0.4906030000000  0.5860150000000 1.0
C      1  0.5472920000000  0.5006090000000  0.5469230000000 1.0
C      1  0.5740260000000  0.4825440000000  0.4944010000000 1.0
C      1  0.4958610000000  0.5314690000000  0.5723780000000 1.0
C      1  0.5250920000000  0.4876420000000  0.5601220000000 1.0
C      1  0.4453940000000  0.5178360000000  0.4561270000000 1.0
C      1  0.4513210000000  0.4507840000000  0.5227880000000 1.0
C      1  0.4369230000000  0.4988090000000  0.4766320000000 1.0
C      1  0.5350870000000  0.5493460000000  0.5177520000000 1.0
C      1  0.4403570000000  0.4736450000000  0.5030830000000 1.0
C      1  0.4824690000000  0.4405900000000  0.4558360000000 1.0
C      1  0.4767680000000  0.4547120000000  0.4924730000000 1.0
C      1  0.4972430000000  0.4327710000000  0.5180190000000 1.0
C      1  0.5103240000000  0.5635570000000  0.4759420000000 1.0
C      1  0.4812910000000  0.4774440000000  0.4757290000000 1.0
C      1  0.5174230000000  0.5278700000000  0.5462000000000 1.0
C      1  0.4883510000000  0.5302390000000  0.4766220000000 1.0
C      1  0.5078100000000  0.5441850000000  0.5012890000000 1.0
C      1  0.4438410000000  0.4969150000000  0.5392130000000 1.0
C      1  0.5295210000000  0.5061070000000  0.4349380000000 1.0
C      1  0.4397120000000  0.4667350000000  0.4710860000000 1.0
C      1  0.4995770000000  0.4316940000000  0.4839110000000 1.0
C      1  0.5508630000000  0.5314250000000  0.5421620000000 1.0
C      1  0.5315010000000  0.4630320000000  0.5208690000000 1.0
C      1  0.5006100000000  0.4957090000000  0.4315020000000 1.0
C      1  0.4408500000000  0.5595560000000  0.5033150000000 1.0
C      1  0.5529520000000  0.5092810000000  0.4948440000000 1.0
C      1  0.4963980000000  0.5262240000000  0.4443890000000 1.0
C      1  0.4539730000000  0.4415130000000  0.4624950000000 1.0
C      1  0.5273440000000  0.4352590000000  0.5023100000000 1.0
C      1  0.5520200000000  0.5409210000000  0.4894920000000 1.0
C      1  0.4926470000000  0.5012480000000  0.4867860000000 1.0
C      1  0.5286040000000  0.5346560000000  0.4443560000000 1.0
C      1  0.5072450000000  0.4742090000000  0.5367550000000 1.0
C      1  0.4838110000000  0.5485450000000  0.5501370000000 1.0
C      1  0.4499240000000  0.4359230000000  0.4941320000000 1.0
C      1  0.4988690000000  0.5124240000000  0.5923650000000 1.0
C      1  0.4830100000000  0.4558650000000  0.5341750000000 1.0
C      1  0.4588770000000  0.5326390000000  0.5074210000000 1.0
C      1  0.4438960000000  0.5071120000000  0.5084190000000 1.0
C      1  0.4852030000000  0.5689200000000  0.4663290000000 1.0
C      1  0.4559190000000  0.4730080000000  0.5457600000000 1.0
C      1  0.5548410000000  0.4545530000000  0.4971260000000 1.0
C      1  0.4616430000000  0.5502400000000  0.4783190000000 1.0
C      1  0.5055860000000  0.5055800000000  0.5254470000000 1.0
C      1  0.5375280000000  0.4756690000000  0.4799380000000 1.0
C      1  0.5245990000000  0.4611770000000  0.4531870000000 1.0
C      1  0.5528470000000  0.4867240000000  0.5206460000000 1.0
C      1  0.4948140000000  0.4694370000000  0.4471270000000 1.0
C      1  0.5721810000000  0.5366800000000  0.5166650000000 1.0
END
