TITL C-2778433-5640-1168 -0.00179175015330373 125000 -340.410961495421 0 0 60 (C1) n - 1
REM
REM in /home/nfs/bkarasulu/CARBON/AIRSS/Generating-Clusters/REBO/Only-C1/SD-CG/HFTN-CG
REM
REM
REM
REM
REM
REM ./C.cell (11c1c37f851c82e70ff6c80c92926a4b)
REM
REM compiler GCC version 9.2.1 20190827 (Red Hat 9.2.1-1)
REM options -cpp -mtune=generic -march=x86-64 -g -O0 -fpre-include=/usr/include/finclude/math-vector-fortran.h
REM seed 1311880947 -1901566192 1211545912 -911586077 296135847 1382615804 -1025662582 1775680583 1990907708 1355172617 -668830088 1250980619 -185625585 -1324894091 -1789953174 -1272390257 1423293965 -1087449698 -1181573543 381918876 1844031032 1785420201 1056391415 285457452 1369749966 -1604289558 -2137312049 -251409596 824922407 1485108833 -498458757 114814150 387046228
REM
CELL 1.54180   50.00000   50.00000   50.00000   90.00000   90.00000   90.00000
LATT -1
SFAC C  
C      1  0.4673590000000  0.4606810000000  0.4344430000000 1.0
C      1  0.5392390000000  0.4165450000000  0.5088140000000 1.0
C      1  0.4532040000000  0.4577050000000  0.5248140000000 1.0
C      1  0.4460730000000  0.5549010000000  0.5377710000000 1.0
C      1  0.4633780000000  0.5459620000000  0.5126710000000 1.0
C      1  0.4705800000000  0.4393870000000  0.5078680000000 1.0
C      1  0.4889650000000  0.4209940000000  0.5023510000000 1.0
C      1  0.5053600000000  0.4459220000000  0.4757210000000 1.0
C      1  0.5350870000000  0.4383210000000  0.4755490000000 1.0
C      1  0.4463630000000  0.5013390000000  0.5414240000000 1.0
C      1  0.5025230000000  0.4710130000000  0.5206860000000 1.0
C      1  0.5686130000000  0.5010410000000  0.4524580000000 1.0
C      1  0.4784540000000  0.5218720000000  0.5106630000000 1.0
C      1  0.5576510000000  0.4602300000000  0.4901890000000 1.0
C      1  0.4851230000000  0.5208760000000  0.5605470000000 1.0
C      1  0.5204910000000  0.5154660000000  0.4204850000000 1.0
C      1  0.5170970000000  0.5459050000000  0.5262700000000 1.0
C      1  0.4431060000000  0.4980000000000  0.4879940000000 1.0
C      1  0.5430750000000  0.5147270000000  0.4376670000000 1.0
C      1  0.5191540000000  0.4853630000000  0.4707910000000 1.0
C      1  0.4559950000000  0.5222550000000  0.5586370000000 1.0
C      1  0.4415200000000  0.4705280000000  0.4384780000000 1.0
C      1  0.4947080000000  0.5479070000000  0.4605350000000 1.0
C      1  0.4333680000000  0.4439070000000  0.5392210000000 1.0
C      1  0.4447680000000  0.5758970000000  0.4938170000000 1.0
C      1  0.4814710000000  0.5250340000000  0.4501150000000 1.0
C      1  0.5436820000000  0.5087470000000  0.5419430000000 1.0
C      1  0.4766950000000  0.5731540000000  0.4984480000000 1.0
C      1  0.5356920000000  0.4642810000000  0.4573590000000 1.0
C      1  0.4842470000000  0.5872690000000  0.5259590000000 1.0
C      1  0.5487330000000  0.4900960000000  0.4974070000000 1.0
C      1  0.5229630000000  0.4859830000000  0.5442250000000 1.0
C      1  0.5653230000000  0.5356520000000  0.5021960000000 1.0
C      1  0.4927160000000  0.4489230000000  0.4499890000000 1.0
C      1  0.4973280000000  0.5472720000000  0.5540120000000 1.0
C      1  0.5651330000000  0.4727370000000  0.4586120000000 1.0
C      1  0.4717350000000  0.5680610000000  0.5475590000000 1.0
C      1  0.5639270000000  0.5134870000000  0.4823270000000 1.0
C      1  0.5595130000000  0.5260340000000  0.5284790000000 1.0
C      1  0.5239710000000  0.5607030000000  0.4989260000000 1.0
C      1  0.4909500000000  0.4344650000000  0.5608000000000 1.0
C      1  0.5096270000000  0.5756720000000  0.5395360000000 1.0
C      1  0.4701340000000  0.4805510000000  0.5418330000000 1.0
C      1  0.5064310000000  0.5190910000000  0.5151230000000 1.0
C      1  0.5007830000000  0.5642780000000  0.4827090000000 1.0
C      1  0.5517680000000  0.5592570000000  0.4939030000000 1.0
C      1  0.4373990000000  0.4909490000000  0.4570300000000 1.0
C      1  0.4585290000000  0.5144770000000  0.4634480000000 1.0
C      1  0.5054270000000  0.4500880000000  0.5449000000000 1.0
C      1  0.5134970000000  0.4098020000000  0.5028450000000 1.0
C      1  0.4931420000000  0.4944770000000  0.5516890000000 1.0
C      1  0.5256730000000  0.5005560000000  0.5071900000000 1.0
C      1  0.4953640000000  0.5069590000000  0.4318480000000 1.0
C      1  0.5331210000000  0.5108070000000  0.4672150000000 1.0
C      1  0.5487070000000  0.4424770000000  0.5149310000000 1.0
C      1  0.4297600000000  0.5674440000000  0.5155330000000 1.0
C      1  0.4937150000000  0.4797020000000  0.4396090000000 1.0
C      1  0.4432960000000  0.4877720000000  0.5134600000000 1.0
C      1  0.5358940000000  0.4557030000000  0.5359170000000 1.0
C      1  0.5023990000000  0.4712970000000  0.4930620000000 1.0
END
