TITL C-2778434-4341-696 0.00315960715511844 125000 -134.243740460425 0 0 25 (C1) n - 1
REM
REM in /home/nfs/bkarasulu/CARBON/AIRSS/Generating-Clusters/REBO/Only-C1/SD-CG/HFTN-CG
REM
REM
REM
REM
REM
REM ./C.cell (11c1c37f851c82e70ff6c80c92926a4b)
REM
REM compiler GCC version 9.2.1 20190827 (Red Hat 9.2.1-1)
REM options -cpp -mtune=generic -march=x86-64 -g -O0 -fpre-include=/usr/include/finclude/math-vector-fortran.h
REM seed 9760196 -164173947 1971223280 976777023 -1844797984 -1446577135 -235305403 -692789959 1415274836 387998459 1512108923 -2096804878 -1765918838 -1783262210 1029370729 -1237007124 147156490 1314233641 1890427358 -1765491634 1148822399 -897032854 -947723654 -1744650186 -1149199777 -472541966 1131537605 -283722207 -574113069 424049354 -304451052 541681985 -140660172
REM
CELL 1.54180   50.00000   50.00000   50.00000   90.00000   90.00000   90.00000
LATT -1
SFAC C  
C      1  0.4963870000000  0.4895640000000  0.5452930000000 1.0
C      1  0.5586620000000  0.5027830000000  0.4762070000000 1.0
C      1  0.5346000000000  0.4842620000000  0.5548810000000 1.0
C      1  0.4938550000000  0.4851480000000  0.4490070000000 1.0
C      1  0.4967330000000  0.5435980000000  0.4924600000000 1.0
C      1  0.5279290000000  0.4756430000000  0.5020190000000 1.0
C      1  0.4705690000000  0.5510480000000  0.4785550000000 1.0
C      1  0.5174180000000  0.4656920000000  0.5356680000000 1.0
C      1  0.5102270000000  0.5080720000000  0.4526700000000 1.0
C      1  0.5159350000000  0.4530840000000  0.4805880000000 1.0
C      1  0.4762710000000  0.5027900000000  0.5216770000000 1.0
C      1  0.4661740000000  0.4890620000000  0.4543870000000 1.0
C      1  0.5052730000000  0.4601510000000  0.4561450000000 1.0
C      1  0.4900010000000  0.5340810000000  0.5213830000000 1.0
C      1  0.4452620000000  0.4670820000000  0.5082970000000 1.0
C      1  0.4523280000000  0.5312250000000  0.4740910000000 1.0
C      1  0.4546990000000  0.5030140000000  0.4764020000000 1.0
C      1  0.4836670000000  0.5209470000000  0.5497960000000 1.0
C      1  0.5385460000000  0.5011190000000  0.4934650000000 1.0
C      1  0.5279820000000  0.5305170000000  0.5345550000000 1.0
C      1  0.5223340000000  0.5111730000000  0.5527430000000 1.0
C      1  0.5164010000000  0.4449550000000  0.5114630000000 1.0
C      1  0.5254030000000  0.5282670000000  0.5041390000000 1.0
C      1  0.4577230000000  0.4911170000000  0.5023680000000 1.0
C      1  0.5156230000000  0.5256080000000  0.4717400000000 1.0
END
