TITL C-2778435-5768-500 0.00356461885038042 125000 -1035.16798846846 0 0 177 (C1) n - 1
REM
REM in /home/nfs/bkarasulu/CARBON/AIRSS/Generating-Clusters/REBO/Only-C1/SD-CG/HFTN-CG
REM
REM
REM
REM
REM
REM ./C.cell (11c1c37f851c82e70ff6c80c92926a4b)
REM
REM compiler GCC version 9.2.1 20190827 (Red Hat 9.2.1-1)
REM options -cpp -mtune=generic -march=x86-64 -g -O0 -fpre-include=/usr/include/finclude/math-vector-fortran.h
REM seed -508017786 -1574384144 545196994 -958326086 830728890 -1622235898 -1717295718 -385983059 -829765116 -241091876 -1707218052 -1652661305 2096409487 -892399560 -1058404569 343732285 -1446068828 1347229848 -1074128681 -572890684 -820010755 -827535152 -444496789 -244723593 -877057322 -1106669092 1916536767 -1119462085 -1545965888 -1246620262 -1566229979 1834813315 454815353
REM
CELL 1.54180   50.00000   50.00000   50.00000   90.00000   90.00000   90.00000
LATT -1
SFAC C  
C      1  0.5631480000000  0.5497970000000  0.3907040000000 1.0
C      1  0.4838170000000  0.4540900000000  0.5810550000000 1.0
C      1  0.4539100000000  0.4477730000000  0.4905080000000 1.0
C      1  0.5014260000000  0.5565990000000  0.4102180000000 1.0
C      1  0.4479330000000  0.5276340000000  0.4827090000000 1.0
C      1  0.5573270000000  0.5467740000000  0.5138240000000 1.0
C      1  0.5829280000000  0.5018940000000  0.5030660000000 1.0
C      1  0.4794760000000  0.4990150000000  0.4732200000000 1.0
C      1  0.5071290000000  0.5308070000000  0.5509210000000 1.0
C      1  0.4744390000000  0.4366760000000  0.4681450000000 1.0
C      1  0.5333160000000  0.4962270000000  0.5679300000000 1.0
C      1  0.5300760000000  0.5174970000000  0.4815610000000 1.0
C      1  0.4481600000000  0.4158260000000  0.4618670000000 1.0
C      1  0.5136080000000  0.5779110000000  0.5740560000000 1.0
C      1  0.5255070000000  0.4232360000000  0.4148940000000 1.0
C      1  0.5070040000000  0.5473280000000  0.4498600000000 1.0
C      1  0.5363160000000  0.4925350000000  0.5007500000000 1.0
C      1  0.4574910000000  0.4829010000000  0.5413760000000 1.0
C      1  0.4617150000000  0.5902430000000  0.4252100000000 1.0
C      1  0.5506160000000  0.4585310000000  0.4372810000000 1.0
C      1  0.5166580000000  0.4447400000000  0.5812230000000 1.0
C      1  0.5094000000000  0.4940670000000  0.5997290000000 1.0
C      1  0.5634530000000  0.5009270000000  0.4079610000000 1.0
C      1  0.6047800000000  0.4898260000000  0.5368910000000 1.0
C      1  0.4869970000000  0.5615110000000  0.4651140000000 1.0
C      1  0.5811500000000  0.5498980000000  0.4758920000000 1.0
C      1  0.4864490000000  0.5504800000000  0.5230600000000 1.0
C      1  0.4925470000000  0.4054260000000  0.5702010000000 1.0
C      1  0.5784280000000  0.5837760000000  0.4787330000000 1.0
C      1  0.4221310000000  0.5434260000000  0.4778930000000 1.0
C      1  0.5782480000000  0.4155230000000  0.4813760000000 1.0
C      1  0.5604180000000  0.4739150000000  0.4855950000000 1.0
C      1  0.4721880000000  0.4245590000000  0.5748420000000 1.0
C      1  0.4416710000000  0.5668780000000  0.5635120000000 1.0
C      1  0.5373130000000  0.5639940000000  0.4696910000000 1.0
C      1  0.5642350000000  0.4640240000000  0.5342300000000 1.0
C      1  0.4314730000000  0.5418790000000  0.5165810000000 1.0
C      1  0.5043600000000  0.4276340000000  0.4756730000000 1.0
C      1  0.5099430000000  0.5790880000000  0.4257340000000 1.0
C      1  0.5176140000000  0.4586940000000  0.5094470000000 1.0
C      1  0.5599770000000  0.4461170000000  0.4989680000000 1.0
C      1  0.4174350000000  0.5501120000000  0.4284130000000 1.0
C      1  0.5999460000000  0.4372390000000  0.4799370000000 1.0
C      1  0.4971090000000  0.4559720000000  0.5433950000000 1.0
C      1  0.6100690000000  0.4812610000000  0.5066680000000 1.0
C      1  0.5250350000000  0.4868860000000  0.4689490000000 1.0
C      1  0.4055690000000  0.4369900000000  0.4354000000000 1.0
C      1  0.5856650000000  0.5338450000000  0.4072180000000 1.0
C      1  0.4510100000000  0.5622870000000  0.5073950000000 1.0
C      1  0.5314860000000  0.5930810000000  0.5404260000000 1.0
C      1  0.5758590000000  0.4887160000000  0.5399280000000 1.0
C      1  0.5390340000000  0.4435970000000  0.5238960000000 1.0
C      1  0.4775420000000  0.5311640000000  0.5971010000000 1.0
C      1  0.4742260000000  0.5274810000000  0.5441330000000 1.0
C      1  0.4556690000000  0.4088560000000  0.5333520000000 1.0
C      1  0.5346570000000  0.4850830000000  0.4412500000000 1.0
C      1  0.5638260000000  0.5760560000000  0.4514270000000 1.0
C      1  0.4724200000000  0.5106380000000  0.4059010000000 1.0
C      1  0.5194780000000  0.5463750000000  0.5761470000000 1.0
C      1  0.5837380000000  0.5399760000000  0.5684700000000 1.0
C      1  0.5739720000000  0.5707860000000  0.5092030000000 1.0
C      1  0.4482090000000  0.4503750000000  0.4269850000000 1.0
C      1  0.5422970000000  0.4199020000000  0.4871080000000 1.0
C      1  0.4105050000000  0.5239810000000  0.4361680000000 1.0
C      1  0.4496630000000  0.4226320000000  0.5579020000000 1.0
C      1  0.4385070000000  0.5679580000000  0.4283870000000 1.0
C      1  0.6048700000000  0.4511270000000  0.5045520000000 1.0
C      1  0.5143300000000  0.4864110000000  0.5244650000000 1.0
C      1  0.6061810000000  0.5309460000000  0.4342950000000 1.0
C      1  0.5163300000000  0.4173850000000  0.5636520000000 1.0
C      1  0.4255150000000  0.4034040000000  0.5037860000000 1.0
C      1  0.4332930000000  0.4291440000000  0.4389130000000 1.0
C      1  0.3918840000000  0.5241340000000  0.5333840000000 1.0
C      1  0.3991050000000  0.4652680000000  0.4760890000000 1.0
C      1  0.5443890000000  0.5728830000000  0.5604850000000 1.0
C      1  0.4668880000000  0.5667490000000  0.5436380000000 1.0
C      1  0.4781530000000  0.6076470000000  0.5180380000000 1.0
C      1  0.5724430000000  0.4662270000000  0.4563060000000 1.0
C      1  0.5646720000000  0.4278350000000  0.5502430000000 1.0
C      1  0.5021170000000  0.4728720000000  0.4215990000000 1.0
C      1  0.3798930000000  0.4734250000000  0.5449430000000 1.0
C      1  0.4338090000000  0.5200930000000  0.5691050000000 1.0
C      1  0.4453790000000  0.4970630000000  0.4087920000000 1.0
C      1  0.6007590000000  0.5033780000000  0.4530600000000 1.0
C      1  0.5353410000000  0.3886130000000  0.4625840000000 1.0
C      1  0.4035410000000  0.4949630000000  0.5386850000000 1.0
C      1  0.5325790000000  0.5462060000000  0.4935440000000 1.0
C      1  0.4289500000000  0.4568710000000  0.4736200000000 1.0
C      1  0.5728950000000  0.5135050000000  0.5831830000000 1.0
C      1  0.4591390000000  0.5127260000000  0.4546850000000 1.0
C      1  0.4871620000000  0.4745510000000  0.4673970000000 1.0
C      1  0.4291380000000  0.3966460000000  0.4797250000000 1.0
C      1  0.4676790000000  0.5611230000000  0.5838180000000 1.0
C      1  0.4340350000000  0.5056200000000  0.4362880000000 1.0
C      1  0.5453850000000  0.4444540000000  0.5632530000000 1.0
C      1  0.4451770000000  0.5871760000000  0.4767690000000 1.0
C      1  0.4917430000000  0.5949670000000  0.4696050000000 1.0
C      1  0.4778800000000  0.5492910000000  0.4920670000000 1.0
C      1  0.3781280000000  0.4802360000000  0.5119940000000 1.0
C      1  0.4435550000000  0.5874050000000  0.5185940000000 1.0
C      1  0.4804920000000  0.4134590000000  0.5104350000000 1.0
C      1  0.4332240000000  0.4931790000000  0.4898360000000 1.0
C      1  0.4762050000000  0.5964370000000  0.5442000000000 1.0
C      1  0.4307740000000  0.4432750000000  0.5628940000000 1.0
C      1  0.5269770000000  0.4695370000000  0.5517570000000 1.0
C      1  0.5562540000000  0.4112010000000  0.4573060000000 1.0
C      1  0.5604440000000  0.5993610000000  0.5014990000000 1.0
C      1  0.4765860000000  0.4921680000000  0.4332530000000 1.0
C      1  0.5482140000000  0.4275380000000  0.4335300000000 1.0
C      1  0.5184720000000  0.5453550000000  0.5227430000000 1.0
C      1  0.4862090000000  0.3833600000000  0.4727740000000 1.0
C      1  0.6106990000000  0.5069220000000  0.4841480000000 1.0
C      1  0.5395020000000  0.5021670000000  0.4208670000000 1.0
C      1  0.4891450000000  0.5944040000000  0.4374690000000 1.0
C      1  0.5149420000000  0.4677380000000  0.6034460000000 1.0
C      1  0.5104090000000  0.3967020000000  0.4680260000000 1.0
C      1  0.4840680000000  0.5161150000000  0.4968250000000 1.0
C      1  0.4666130000000  0.6021460000000  0.4896900000000 1.0
C      1  0.5143080000000  0.4153850000000  0.5060420000000 1.0
C      1  0.4361810000000  0.4694530000000  0.5724070000000 1.0
C      1  0.3922920000000  0.4816700000000  0.4529040000000 1.0
C      1  0.5731730000000  0.5025900000000  0.4715970000000 1.0
C      1  0.4595320000000  0.5732980000000  0.4538180000000 1.0
C      1  0.5211520000000  0.4538030000000  0.4205430000000 1.0
C      1  0.5868730000000  0.4412420000000  0.5279510000000 1.0
C      1  0.5441880000000  0.5451190000000  0.5432100000000 1.0
C      1  0.5336190000000  0.5808120000000  0.4400590000000 1.0
C      1  0.3971320000000  0.5235170000000  0.4828580000000 1.0
C      1  0.5581510000000  0.5478740000000  0.4226880000000 1.0
C      1  0.6172740000000  0.5114170000000  0.5500230000000 1.0
C      1  0.5851010000000  0.5526010000000  0.4423330000000 1.0
C      1  0.5933770000000  0.5030630000000  0.4198050000000 1.0
C      1  0.4299730000000  0.4713590000000  0.5148830000000 1.0
C      1  0.5407120000000  0.5178650000000  0.5934100000000 1.0
C      1  0.4577990000000  0.5237380000000  0.5152970000000 1.0
C      1  0.5011740000000  0.5027710000000  0.5678790000000 1.0
C      1  0.5722880000000  0.4161570000000  0.5128880000000 1.0
C      1  0.3802330000000  0.4494230000000  0.5239170000000 1.0
C      1  0.4290850000000  0.4939130000000  0.5538460000000 1.0
C      1  0.4318150000000  0.4320470000000  0.5111560000000 1.0
C      1  0.5563270000000  0.4003620000000  0.5354060000000 1.0
C      1  0.3927570000000  0.5110280000000  0.4550490000000 1.0
C      1  0.4684380000000  0.4007340000000  0.4845110000000 1.0
C      1  0.4041670000000  0.5376180000000  0.5130160000000 1.0
C      1  0.4613630000000  0.4782540000000  0.5021890000000 1.0
C      1  0.6033660000000  0.5365260000000  0.5483130000000 1.0
C      1  0.4219690000000  0.5711160000000  0.4814240000000 1.0
C      1  0.5101730000000  0.4584190000000  0.4804080000000 1.0
C      1  0.5078670000000  0.5820020000000  0.5248000000000 1.0
C      1  0.4031240000000  0.4665780000000  0.4292350000000 1.0
C      1  0.4031170000000  0.4987740000000  0.5044130000000 1.0
C      1  0.5533790000000  0.5174160000000  0.5555840000000 1.0
C      1  0.4586290000000  0.4746230000000  0.5894880000000 1.0
C      1  0.4837900000000  0.4804500000000  0.5592210000000 1.0
C      1  0.5362150000000  0.6064830000000  0.5124690000000 1.0
C      1  0.4592810000000  0.5316090000000  0.5690880000000 1.0
C      1  0.5567610000000  0.5291940000000  0.4667070000000 1.0
C      1  0.4524010000000  0.4513510000000  0.5302640000000 1.0
C      1  0.5366170000000  0.5412390000000  0.4428980000000 1.0
C      1  0.4638700000000  0.5004050000000  0.5977020000000 1.0
C      1  0.4875750000000  0.5340750000000  0.4035910000000 1.0
C      1  0.4317210000000  0.4842670000000  0.4587770000000 1.0
C      1  0.5287010000000  0.4163510000000  0.5362360000000 1.0
C      1  0.5055170000000  0.6028950000000  0.4980390000000 1.0
C      1  0.5533130000000  0.5476350000000  0.5817020000000 1.0
C      1  0.6020570000000  0.5449420000000  0.5210480000000 1.0
C      1  0.5966430000000  0.4538120000000  0.4573380000000 1.0
C      1  0.4717620000000  0.4597080000000  0.4431990000000 1.0
C      1  0.5654560000000  0.5169510000000  0.5245990000000 1.0
C      1  0.4055320000000  0.4519140000000  0.5055000000000 1.0
C      1  0.4308410000000  0.4712460000000  0.4162570000000 1.0
C      1  0.4865290000000  0.5848510000000  0.5728240000000 1.0
C      1  0.6006850000000  0.5367670000000  0.4950730000000 1.0
C      1  0.4835690000000  0.4939580000000  0.5216940000000 1.0
C      1  0.4331690000000  0.5882360000000  0.5443270000000 1.0
C      1  0.5080240000000  0.5269440000000  0.5990020000000 1.0
C      1  0.4805930000000  0.4398190000000  0.5305820000000 1.0
END
