TITL C-2778437-8639-116 -0.00283646498808368 125000 -640.966360126109 0 0 109 (C1) n - 1
REM
REM in /home/nfs/bkarasulu/CARBON/AIRSS/Generating-Clusters/REBO/Only-C1/SD-CG/HFTN-CG
REM
REM
REM
REM
REM
REM ./C.cell (11c1c37f851c82e70ff6c80c92926a4b)
REM
REM compiler GCC version 9.2.1 20190827 (Red Hat 9.2.1-1)
REM options -cpp -mtune=generic -march=x86-64 -g -O0 -fpre-include=/usr/include/finclude/math-vector-fortran.h
REM seed 1395070117 425022826 8835760 1289755551 -1835706798 1831868859 -408499538 -1767017101 564817525 787118317 1509072398 -54391815 -2044348851 1555467352 299088310 1116560212 457289611 734100148 -407877043 81135251 1698116649 -726473636 -959132645 1087587289 -641125481 -480991769 1356246736 -526622646 1082968191 -670122646 266131662 -964900242 559623304
REM
CELL 1.54180   50.00000   50.00000   50.00000   90.00000   90.00000   90.00000
LATT -1
SFAC C  
C      1  0.4465620000000  0.5544180000000  0.5222630000000 1.0
C      1  0.4252660000000  0.4619440000000  0.4783400000000 1.0
C      1  0.5756790000000  0.5164930000000  0.4347270000000 1.0
C      1  0.5501390000000  0.4431480000000  0.4861380000000 1.0
C      1  0.5201390000000  0.5633610000000  0.5409920000000 1.0
C      1  0.5828480000000  0.5252260000000  0.5357900000000 1.0
C      1  0.4765600000000  0.4245190000000  0.5604420000000 1.0
C      1  0.4571210000000  0.4553970000000  0.5756350000000 1.0
C      1  0.5235910000000  0.5334620000000  0.5317730000000 1.0
C      1  0.5925610000000  0.5173790000000  0.4849520000000 1.0
C      1  0.4467550000000  0.4382720000000  0.5504920000000 1.0
C      1  0.5089530000000  0.4695520000000  0.5739480000000 1.0
C      1  0.4719230000000  0.4983750000000  0.5844170000000 1.0
C      1  0.5363690000000  0.5609080000000  0.4483270000000 1.0
C      1  0.5549230000000  0.4505860000000  0.4369000000000 1.0
C      1  0.5701360000000  0.4866800000000  0.5623280000000 1.0
C      1  0.5153730000000  0.4784700000000  0.5447550000000 1.0
C      1  0.4188060000000  0.5190580000000  0.4920730000000 1.0
C      1  0.4691040000000  0.5578810000000  0.5476680000000 1.0
C      1  0.4454900000000  0.5302490000000  0.4547650000000 1.0
C      1  0.4877110000000  0.4513190000000  0.5787910000000 1.0
C      1  0.5317780000000  0.4111140000000  0.4540870000000 1.0
C      1  0.5156650000000  0.5154590000000  0.5942450000000 1.0
C      1  0.5248300000000  0.5310570000000  0.5018040000000 1.0
C      1  0.4668410000000  0.4735800000000  0.5305380000000 1.0
C      1  0.5061390000000  0.4074680000000  0.4652460000000 1.0
C      1  0.4359470000000  0.4393140000000  0.4918200000000 1.0
C      1  0.4505910000000  0.4460560000000  0.5183740000000 1.0
C      1  0.5059900000000  0.3991370000000  0.4930140000000 1.0
C      1  0.5800350000000  0.5074980000000  0.4610900000000 1.0
C      1  0.5429950000000  0.5054190000000  0.4947140000000 1.0
C      1  0.4994630000000  0.4570770000000  0.4045650000000 1.0
C      1  0.5624160000000  0.5422060000000  0.4912530000000 1.0
C      1  0.5370520000000  0.4596180000000  0.5325970000000 1.0
C      1  0.5229980000000  0.5112840000000  0.4606690000000 1.0
C      1  0.4692780000000  0.5002570000000  0.5503810000000 1.0
C      1  0.4843680000000  0.4493240000000  0.5391390000000 1.0
C      1  0.5613230000000  0.4643360000000  0.5469950000000 1.0
C      1  0.5343850000000  0.4392700000000  0.5103240000000 1.0
C      1  0.5033460000000  0.5404240000000  0.4392580000000 1.0
C      1  0.4828270000000  0.5266460000000  0.4969350000000 1.0
C      1  0.4619330000000  0.5495040000000  0.4857060000000 1.0
C      1  0.5464710000000  0.5767180000000  0.5042350000000 1.0
C      1  0.5571900000000  0.4892240000000  0.4707770000000 1.0
C      1  0.5268230000000  0.5237870000000  0.4230450000000 1.0
C      1  0.4724840000000  0.4551780000000  0.4954770000000 1.0
C      1  0.4953790000000  0.4890300000000  0.5225430000000 1.0
C      1  0.4176860000000  0.4763230000000  0.5246160000000 1.0
C      1  0.4477050000000  0.4818240000000  0.5783780000000 1.0
C      1  0.5458010000000  0.4769320000000  0.4194190000000 1.0
C      1  0.4879950000000  0.5655050000000  0.5737810000000 1.0
C      1  0.5921860000000  0.5009010000000  0.5535740000000 1.0
C      1  0.4816830000000  0.5288880000000  0.5594770000000 1.0
C      1  0.4239190000000  0.4868010000000  0.4957970000000 1.0
C      1  0.4078320000000  0.5036320000000  0.4468790000000 1.0
C      1  0.5253430000000  0.4880050000000  0.5886880000000 1.0
C      1  0.4771840000000  0.5401350000000  0.4230210000000 1.0
C      1  0.5155150000000  0.5620490000000  0.5686260000000 1.0
C      1  0.4896970000000  0.5056780000000  0.4535450000000 1.0
C      1  0.4218280000000  0.4596080000000  0.5424070000000 1.0
C      1  0.4937610000000  0.5781980000000  0.4767730000000 1.0
C      1  0.4304650000000  0.4947160000000  0.5595160000000 1.0
C      1  0.4896910000000  0.4735740000000  0.4956180000000 1.0
C      1  0.4993890000000  0.5444930000000  0.4728920000000 1.0
C      1  0.5146550000000  0.4183320000000  0.5127630000000 1.0
C      1  0.4717730000000  0.5741160000000  0.5192480000000 1.0
C      1  0.4559210000000  0.5676330000000  0.4699630000000 1.0
C      1  0.5046770000000  0.4765960000000  0.4531240000000 1.0
C      1  0.4937730000000  0.5834760000000  0.5057520000000 1.0
C      1  0.5731310000000  0.5066940000000  0.5105110000000 1.0
C      1  0.4946040000000  0.3755120000000  0.5004030000000 1.0
C      1  0.5668040000000  0.4655900000000  0.4879710000000 1.0
C      1  0.5086630000000  0.5731740000000  0.4469040000000 1.0
C      1  0.5045440000000  0.5036670000000  0.4238800000000 1.0
C      1  0.4579400000000  0.4417740000000  0.4476730000000 1.0
C      1  0.4661920000000  0.5654960000000  0.4231480000000 1.0
C      1  0.4186250000000  0.5246680000000  0.4635920000000 1.0
C      1  0.5516890000000  0.5097780000000  0.4211100000000 1.0
C      1  0.4858150000000  0.4235440000000  0.4551470000000 1.0
C      1  0.4538380000000  0.4999610000000  0.4906440000000 1.0
C      1  0.4343810000000  0.4627630000000  0.4512810000000 1.0
C      1  0.5530690000000  0.5488140000000  0.5236030000000 1.0
C      1  0.4758120000000  0.5829700000000  0.4481000000000 1.0
C      1  0.5085950000000  0.5061830000000  0.4892170000000 1.0
C      1  0.5267550000000  0.5588870000000  0.4870480000000 1.0
C      1  0.5416560000000  0.5362060000000  0.4659070000000 1.0
C      1  0.5326400000000  0.5375170000000  0.5776770000000 1.0
C      1  0.4291300000000  0.5328620000000  0.5158320000000 1.0
C      1  0.4976920000000  0.4210010000000  0.5344610000000 1.0
C      1  0.5920710000000  0.5414820000000  0.5089790000000 1.0
C      1  0.5137690000000  0.4784720000000  0.4142180000000 1.0
C      1  0.4640660000000  0.5167430000000  0.4158630000000 1.0
C      1  0.5480590000000  0.5063720000000  0.5728280000000 1.0
C      1  0.4889290000000  0.4546090000000  0.4509980000000 1.0
C      1  0.4491110000000  0.4232610000000  0.4733840000000 1.0
C      1  0.5186130000000  0.5813900000000  0.5190720000000 1.0
C      1  0.4875640000000  0.5177350000000  0.5973250000000 1.0
C      1  0.5356960000000  0.4832300000000  0.4495290000000 1.0
C      1  0.4270920000000  0.4851120000000  0.4357160000000 1.0
C      1  0.5567220000000  0.5335340000000  0.5539050000000 1.0
C      1  0.5779230000000  0.4757100000000  0.5110730000000 1.0
C      1  0.4765290000000  0.5441740000000  0.5910310000000 1.0
C      1  0.5784580000000  0.5708880000000  0.5012910000000 1.0
C      1  0.4463400000000  0.4965800000000  0.4184530000000 1.0
C      1  0.4333720000000  0.5109480000000  0.5370650000000 1.0
C      1  0.4638060000000  0.5112580000000  0.4655110000000 1.0
C      1  0.5478960000000  0.4336860000000  0.4588630000000 1.0
C      1  0.5066890000000  0.5121280000000  0.5435950000000 1.0
C      1  0.4626870000000  0.5115320000000  0.5189870000000 1.0
END
