TITL C-2778429-3646-77 -0.00381087190151288 125000 -922.345721988767 0 0 158 (C1) n - 1
REM
REM in /home/nfs/bkarasulu/CARBON/AIRSS/Generating-Clusters/REBO/Only-C1/SD-CG/HFTN-CG
REM
REM
REM
REM
REM
REM ./C.cell (11c1c37f851c82e70ff6c80c92926a4b)
REM
REM compiler GCC version 9.2.1 20190827 (Red Hat 9.2.1-1)
REM options -cpp -mtune=generic -march=x86-64 -g -O0 -fpre-include=/usr/include/finclude/math-vector-fortran.h
REM seed -76763450 -540073245 -1218783998 1062686413 1837272048 2037945272 1268257954 -1877342423 2081107384 895350821 -48657301 -2065189336 1983629093 -1387182313 -1659651239 -2040760034 2120493963 1635965388 -332538859 526872874 830902351 -1214128878 633145885 192400254 1176166656 -666209145 16434061 805428081 -822172757 -96112900 1780439589 1574978108 -1052261684
REM
CELL 1.54180   50.00000   50.00000   50.00000   90.00000   90.00000   90.00000
LATT -1
SFAC C  
C      1  0.5010840000000  0.5996340000000  0.5188740000000 1.0
C      1  0.5797190000000  0.5076450000000  0.5678930000000 1.0
C      1  0.4074540000000  0.4507330000000  0.4606690000000 1.0
C      1  0.4485160000000  0.4695230000000  0.4294270000000 1.0
C      1  0.5449700000000  0.5051030000000  0.4886580000000 1.0
C      1  0.5285240000000  0.5439420000000  0.4005000000000 1.0
C      1  0.5766370000000  0.5544970000000  0.5689960000000 1.0
C      1  0.5121360000000  0.3849500000000  0.4685690000000 1.0
C      1  0.4532850000000  0.5558180000000  0.5157260000000 1.0
C      1  0.4579560000000  0.4399760000000  0.4441190000000 1.0
C      1  0.3996070000000  0.5020460000000  0.5449700000000 1.0
C      1  0.4711470000000  0.4235190000000  0.4695470000000 1.0
C      1  0.4198310000000  0.5223810000000  0.5631400000000 1.0
C      1  0.4666770000000  0.5662460000000  0.4195140000000 1.0
C      1  0.5165760000000  0.3976040000000  0.5157680000000 1.0
C      1  0.5221350000000  0.5544850000000  0.5565970000000 1.0
C      1  0.4633200000000  0.5072430000000  0.4882000000000 1.0
C      1  0.4718430000000  0.5992470000000  0.5013220000000 1.0
C      1  0.5250950000000  0.4912310000000  0.5911600000000 1.0
C      1  0.5699780000000  0.4131140000000  0.4656060000000 1.0
C      1  0.4815440000000  0.5217330000000  0.4051990000000 1.0
C      1  0.5832150000000  0.5326850000000  0.5477890000000 1.0
C      1  0.3916480000000  0.5290610000000  0.5357980000000 1.0
C      1  0.4644730000000  0.5387530000000  0.5880790000000 1.0
C      1  0.4721360000000  0.5489360000000  0.4511360000000 1.0
C      1  0.5079430000000  0.5067890000000  0.4156400000000 1.0
C      1  0.4281510000000  0.4733520000000  0.5648340000000 1.0
C      1  0.4411060000000  0.4989950000000  0.4324630000000 1.0
C      1  0.4077870000000  0.4756390000000  0.5458760000000 1.0
C      1  0.4505980000000  0.4752870000000  0.4855290000000 1.0
C      1  0.4709920000000  0.4922880000000  0.5849040000000 1.0
C      1  0.5878740000000  0.4376090000000  0.4643560000000 1.0
C      1  0.4863080000000  0.4924270000000  0.4436830000000 1.0
C      1  0.5725690000000  0.4591910000000  0.5743670000000 1.0
C      1  0.5285620000000  0.4188670000000  0.4975000000000 1.0
C      1  0.4961090000000  0.5574880000000  0.4725030000000 1.0
C      1  0.5330050000000  0.5457760000000  0.4814500000000 1.0
C      1  0.4726630000000  0.4714610000000  0.4634380000000 1.0
C      1  0.5378010000000  0.4917210000000  0.4210860000000 1.0
C      1  0.4382920000000  0.4960840000000  0.5172260000000 1.0
C      1  0.4998920000000  0.4751890000000  0.4969220000000 1.0
C      1  0.5788610000000  0.5581030000000  0.4792190000000 1.0
C      1  0.5455370000000  0.5196300000000  0.5448870000000 1.0
C      1  0.4802770000000  0.5190670000000  0.4639870000000 1.0
C      1  0.5095840000000  0.4443380000000  0.5734510000000 1.0
C      1  0.5676670000000  0.5214860000000  0.4946930000000 1.0
C      1  0.4431360000000  0.4998890000000  0.5701120000000 1.0
C      1  0.5479500000000  0.5456030000000  0.4263550000000 1.0
C      1  0.5185630000000  0.5134970000000  0.5322000000000 1.0
C      1  0.5365980000000  0.4640970000000  0.4097240000000 1.0
C      1  0.4324750000000  0.5466440000000  0.4499310000000 1.0
C      1  0.4182090000000  0.4814910000000  0.4942720000000 1.0
C      1  0.4392140000000  0.4474950000000  0.4693240000000 1.0
C      1  0.3936100000000  0.4782330000000  0.4708200000000 1.0
C      1  0.5040250000000  0.4621560000000  0.4422710000000 1.0
C      1  0.4411760000000  0.4637220000000  0.5273730000000 1.0
C      1  0.5922550000000  0.4936730000000  0.5392660000000 1.0
C      1  0.5097190000000  0.5944570000000  0.4793850000000 1.0
C      1  0.3909840000000  0.4977890000000  0.4483360000000 1.0
C      1  0.4608500000000  0.5892050000000  0.5528040000000 1.0
C      1  0.5428150000000  0.4676070000000  0.5277750000000 1.0
C      1  0.5370020000000  0.4044220000000  0.4675540000000 1.0
C      1  0.5031480000000  0.5385990000000  0.3920440000000 1.0
C      1  0.4975970000000  0.5003860000000  0.6014060000000 1.0
C      1  0.5257250000000  0.4900010000000  0.5101630000000 1.0
C      1  0.4921790000000  0.4675110000000  0.5915470000000 1.0
C      1  0.5061670000000  0.4751470000000  0.4051340000000 1.0
C      1  0.4328690000000  0.5184690000000  0.4592100000000 1.0
C      1  0.5001540000000  0.3823820000000  0.4978700000000 1.0
C      1  0.4329890000000  0.5182650000000  0.4915580000000 1.0
C      1  0.5031710000000  0.5772310000000  0.5395300000000 1.0
C      1  0.5958990000000  0.5002760000000  0.4760250000000 1.0
C      1  0.5937290000000  0.4304510000000  0.5122940000000 1.0
C      1  0.5733000000000  0.4661920000000  0.5427730000000 1.0
C      1  0.5492490000000  0.4470960000000  0.4618570000000 1.0
C      1  0.4556410000000  0.5206650000000  0.4153840000000 1.0
C      1  0.4285760000000  0.5481700000000  0.4992090000000 1.0
C      1  0.4708970000000  0.3938120000000  0.4957250000000 1.0
C      1  0.5072020000000  0.4902100000000  0.4703950000000 1.0
C      1  0.4720350000000  0.4556360000000  0.5673220000000 1.0
C      1  0.5531720000000  0.5323660000000  0.5740750000000 1.0
C      1  0.5429140000000  0.4997570000000  0.4551310000000 1.0
C      1  0.5420120000000  0.4469810000000  0.5699080000000 1.0
C      1  0.4040740000000  0.5511890000000  0.5162460000000 1.0
C      1  0.5007830000000  0.5483690000000  0.5240820000000 1.0
C      1  0.4130830000000  0.5525970000000  0.5486200000000 1.0
C      1  0.4338780000000  0.4297080000000  0.5481790000000 1.0
C      1  0.5142230000000  0.4544770000000  0.5277170000000 1.0
C      1  0.4423890000000  0.5668660000000  0.5459830000000 1.0
C      1  0.5280080000000  0.6084310000000  0.5115930000000 1.0
C      1  0.4109960000000  0.4520620000000  0.5241730000000 1.0
C      1  0.5257530000000  0.5245630000000  0.4385490000000 1.0
C      1  0.4559080000000  0.5880840000000  0.4761890000000 1.0
C      1  0.4596610000000  0.4247270000000  0.5015820000000 1.0
C      1  0.5988440000000  0.4461120000000  0.4892180000000 1.0
C      1  0.5455020000000  0.5721100000000  0.4412070000000 1.0
C      1  0.5683040000000  0.4296630000000  0.5578440000000 1.0
C      1  0.4951850000000  0.5308390000000  0.5985540000000 1.0
C      1  0.4742210000000  0.5595900000000  0.4970050000000 1.0
C      1  0.4348700000000  0.5655760000000  0.4733290000000 1.0
C      1  0.5378130000000  0.4232950000000  0.4404210000000 1.0
C      1  0.4320680000000  0.4261070000000  0.5160500000000 1.0
C      1  0.5407260000000  0.5939250000000  0.4873180000000 1.0
C      1  0.4939100000000  0.4726540000000  0.5476130000000 1.0
C      1  0.4735340000000  0.5120920000000  0.5595190000000 1.0
C      1  0.5245830000000  0.5439970000000  0.5875600000000 1.0
C      1  0.4678120000000  0.4844840000000  0.5316080000000 1.0
C      1  0.5753640000000  0.4608870000000  0.4449290000000 1.0
C      1  0.5835110000000  0.5292660000000  0.4665730000000 1.0
C      1  0.5691740000000  0.5244790000000  0.4379490000000 1.0
C      1  0.5498880000000  0.4924650000000  0.6020270000000 1.0
C      1  0.5109740000000  0.5521550000000  0.4441580000000 1.0
C      1  0.5131130000000  0.5674230000000  0.4987570000000 1.0
C      1  0.4624620000000  0.5340180000000  0.5360060000000 1.0
C      1  0.3939670000000  0.4577780000000  0.4975410000000 1.0
C      1  0.4988590000000  0.5291840000000  0.5516810000000 1.0
C      1  0.4684830000000  0.4447590000000  0.5350280000000 1.0
C      1  0.4422670000000  0.4497120000000  0.5647940000000 1.0
C      1  0.4160450000000  0.4336590000000  0.4891100000000 1.0
C      1  0.5591990000000  0.4958780000000  0.5358110000000 1.0
C      1  0.5561640000000  0.4316860000000  0.4889980000000 1.0
C      1  0.5761580000000  0.4934250000000  0.4504380000000 1.0
C      1  0.4966670000000  0.5630550000000  0.4229750000000 1.0
C      1  0.4470430000000  0.5409380000000  0.5657660000000 1.0
C      1  0.5817860000000  0.4237620000000  0.5356310000000 1.0
C      1  0.4958290000000  0.5625620000000  0.5855370000000 1.0
C      1  0.5723880000000  0.4867310000000  0.5873920000000 1.0
C      1  0.5223210000000  0.4744820000000  0.5664360000000 1.0
C      1  0.5241810000000  0.5890100000000  0.4356390000000 1.0
C      1  0.5692450000000  0.5640250000000  0.5270700000000 1.0
C      1  0.4793710000000  0.4619890000000  0.4186980000000 1.0
C      1  0.4748880000000  0.5113540000000  0.5170950000000 1.0
C      1  0.4978440000000  0.4328820000000  0.5472930000000 1.0
C      1  0.5493170000000  0.5523330000000  0.5399540000000 1.0
C      1  0.5541270000000  0.4461780000000  0.4227000000000 1.0
C      1  0.5166430000000  0.5283730000000  0.5046150000000 1.0
C      1  0.5832570000000  0.5272660000000  0.5199910000000 1.0
C      1  0.5833490000000  0.5790650000000  0.5766630000000 1.0
C      1  0.4825890000000  0.3940280000000  0.4643580000000 1.0
C      1  0.4219950000000  0.4536930000000  0.4338340000000 1.0
C      1  0.4738560000000  0.5832560000000  0.4518580000000 1.0
C      1  0.5070570000000  0.4046450000000  0.5401650000000 1.0
C      1  0.4724300000000  0.4562940000000  0.5037830000000 1.0
C      1  0.4086410000000  0.5030760000000  0.4315550000000 1.0
C      1  0.5095060000000  0.4197850000000  0.4283100000000 1.0
C      1  0.5109430000000  0.5206050000000  0.4749340000000 1.0
C      1  0.5515990000000  0.5688900000000  0.4711060000000 1.0
C      1  0.5095900000000  0.4430030000000  0.4973100000000 1.0
C      1  0.4445910000000  0.5467720000000  0.4225750000000 1.0
C      1  0.4927130000000  0.4463450000000  0.4702120000000 1.0
C      1  0.5852030000000  0.5642860000000  0.5049860000000 1.0
C      1  0.4634610000000  0.6065020000000  0.5301240000000 1.0
C      1  0.4855050000000  0.5795090000000  0.5651630000000 1.0
C      1  0.5014670000000  0.5930580000000  0.4528610000000 1.0
C      1  0.4848510000000  0.4304990000000  0.4271200000000 1.0
C      1  0.5299440000000  0.4693010000000  0.4595220000000 1.0
C      1  0.6042260000000  0.4729020000000  0.4918810000000 1.0
C      1  0.6015300000000  0.5007830000000  0.5096000000000 1.0
END
