TITL C-2778428-5639-545 -0.00323344868952351 125000 -461.001723559916 0 0 78 (C1) n - 1
REM
REM in /home/nfs/bkarasulu/CARBON/AIRSS/Generating-Clusters/REBO/Only-C1/SD-CG/HFTN-CG
REM
REM
REM
REM
REM
REM ./C.cell (11c1c37f851c82e70ff6c80c92926a4b)
REM
REM compiler GCC version 9.2.1 20190827 (Red Hat 9.2.1-1)
REM options -cpp -mtune=generic -march=x86-64 -g -O0 -fpre-include=/usr/include/finclude/math-vector-fortran.h
REM seed 775227678 -656575995 945226346 -593738512 -556439282 1305609224 2140715706 1831678689 -1003807977 -514980200 -2017322188 880290876 -472563076 -1783239600 -1186638079 -1836823227 -967387791 871538768 776697114 -101105095 -750467331 -1224904596 1159696283 -218230697 -444584036 -1559898834 -1845740699 1957412313 -828730818 609585154 -10843712 922470905 -1164133554
REM
CELL 1.54180   50.00000   50.00000   50.00000   90.00000   90.00000   90.00000
LATT -1
SFAC C  
C      1  0.4169400000000  0.4917010000000  0.4635640000000 1.0
C      1  0.4957800000000  0.4200680000000  0.5138210000000 1.0
C      1  0.5436430000000  0.4327910000000  0.5003850000000 1.0
C      1  0.4555960000000  0.5189180000000  0.5598690000000 1.0
C      1  0.5693650000000  0.5501550000000  0.4477810000000 1.0
C      1  0.4617430000000  0.4465520000000  0.4632000000000 1.0
C      1  0.4540920000000  0.4648270000000  0.4365120000000 1.0
C      1  0.5182550000000  0.5034830000000  0.5668400000000 1.0
C      1  0.5234800000000  0.4967080000000  0.5279800000000 1.0
C      1  0.5704640000000  0.5131520000000  0.5391710000000 1.0
C      1  0.5555790000000  0.5506200000000  0.4993620000000 1.0
C      1  0.4176540000000  0.4892410000000  0.4913590000000 1.0
C      1  0.4847730000000  0.5661180000000  0.4867970000000 1.0
C      1  0.5542970000000  0.4431690000000  0.4757140000000 1.0
C      1  0.4741620000000  0.5343180000000  0.5774330000000 1.0
C      1  0.5163300000000  0.5267110000000  0.4348280000000 1.0
C      1  0.4452950000000  0.5284230000000  0.4652530000000 1.0
C      1  0.4734870000000  0.4798560000000  0.5367450000000 1.0
C      1  0.5190480000000  0.4855120000000  0.4978560000000 1.0
C      1  0.5599300000000  0.4962690000000  0.4390900000000 1.0
C      1  0.4694900000000  0.4729150000000  0.5095720000000 1.0
C      1  0.4888640000000  0.5262380000000  0.4373330000000 1.0
C      1  0.4733490000000  0.4907100000000  0.4882350000000 1.0
C      1  0.5227730000000  0.5306360000000  0.5860750000000 1.0
C      1  0.5473910000000  0.5006090000000  0.5512000000000 1.0
C      1  0.5110220000000  0.4693270000000  0.4766850000000 1.0
C      1  0.5323420000000  0.4486490000000  0.5444930000000 1.0
C      1  0.4648400000000  0.4798170000000  0.4643670000000 1.0
C      1  0.5012150000000  0.5542520000000  0.4629610000000 1.0
C      1  0.5173520000000  0.5543130000000  0.5706560000000 1.0
C      1  0.5653230000000  0.5407580000000  0.5285390000000 1.0
C      1  0.4824760000000  0.5168510000000  0.4907420000000 1.0
C      1  0.4965550000000  0.5245910000000  0.5184140000000 1.0
C      1  0.5584030000000  0.5231570000000  0.4793230000000 1.0
C      1  0.5268340000000  0.5410750000000  0.4734640000000 1.0
C      1  0.5495080000000  0.4502660000000  0.5220760000000 1.0
C      1  0.4781770000000  0.5048540000000  0.4219410000000 1.0
C      1  0.4805620000000  0.4259800000000  0.4911980000000 1.0
C      1  0.4579240000000  0.5492280000000  0.5231140000000 1.0
C      1  0.4259800000000  0.4750990000000  0.5190150000000 1.0
C      1  0.4926290000000  0.4676710000000  0.5695800000000 1.0
C      1  0.5693240000000  0.5209040000000  0.4492960000000 1.0
C      1  0.4947820000000  0.5003580000000  0.5422380000000 1.0
C      1  0.5055300000000  0.4482810000000  0.5534520000000 1.0
C      1  0.5528110000000  0.5606310000000  0.4670910000000 1.0
C      1  0.4306370000000  0.5088420000000  0.5161620000000 1.0
C      1  0.5222460000000  0.5195510000000  0.4956230000000 1.0
C      1  0.5815400000000  0.4967490000000  0.5187020000000 1.0
C      1  0.4525300000000  0.4941830000000  0.4292630000000 1.0
C      1  0.4593860000000  0.4658550000000  0.5644590000000 1.0
C      1  0.4977300000000  0.4592900000000  0.4176060000000 1.0
C      1  0.4580250000000  0.4434560000000  0.5426030000000 1.0
C      1  0.5229680000000  0.4145910000000  0.5072630000000 1.0
C      1  0.4464690000000  0.5263980000000  0.5350570000000 1.0
C      1  0.5655400000000  0.4710270000000  0.5146750000000 1.0
C      1  0.5097060000000  0.4512440000000  0.4412400000000 1.0
C      1  0.5131710000000  0.5468300000000  0.5386770000000 1.0
C      1  0.4324750000000  0.5276990000000  0.4894730000000 1.0
C      1  0.5291640000000  0.4983440000000  0.4270410000000 1.0
C      1  0.4948010000000  0.4410040000000  0.4669570000000 1.0
C      1  0.4857490000000  0.4331180000000  0.5378010000000 1.0
C      1  0.4951740000000  0.5126530000000  0.5904020000000 1.0
C      1  0.5279430000000  0.5668290000000  0.5067860000000 1.0
C      1  0.4392550000000  0.4501320000000  0.5217830000000 1.0
C      1  0.5582180000000  0.4733880000000  0.4642310000000 1.0
C      1  0.5012220000000  0.5711020000000  0.5094360000000 1.0
C      1  0.5648350000000  0.4936910000000  0.4890860000000 1.0
C      1  0.4756410000000  0.5336130000000  0.4654380000000 1.0
C      1  0.4722480000000  0.4946040000000  0.5747780000000 1.0
C      1  0.4557170000000  0.4447920000000  0.4960680000000 1.0
C      1  0.4871520000000  0.5573290000000  0.5667810000000 1.0
C      1  0.5352860000000  0.5286820000000  0.5256970000000 1.0
C      1  0.5001860000000  0.4876340000000  0.4135700000000 1.0
C      1  0.4588640000000  0.5571030000000  0.4951800000000 1.0
C      1  0.5286200000000  0.4750180000000  0.4502210000000 1.0
C      1  0.5037010000000  0.5692340000000  0.4395970000000 1.0
C      1  0.4354660000000  0.5078400000000  0.4482020000000 1.0
C      1  0.4829640000000  0.5624130000000  0.5355210000000 1.0
END
