TITL C-2778432-5617-32 0.000594537514176297 125000 -334.311082714689 0 0 59 (C1) n - 1
REM
REM in /home/nfs/bkarasulu/CARBON/AIRSS/Generating-Clusters/REBO/Only-C1/SD-CG/HFTN-CG
REM
REM
REM
REM
REM
REM ./C.cell (11c1c37f851c82e70ff6c80c92926a4b)
REM
REM compiler GCC version 9.2.1 20190827 (Red Hat 9.2.1-1)
REM options -cpp -mtune=generic -march=x86-64 -g -O0 -fpre-include=/usr/include/finclude/math-vector-fortran.h
REM seed 26790319 522217339 1096739399 951743449 -710250436 -643565178 -1073796421 -2043150097 2053309798 -1369434389 1230683073 -258149405 -701748092 232608478 -1094533601 -1870700750 -806212552 1759723601 1313633750 -76933317 2037832677 764687229 -1153435267 1396434110 807047468 -1427464868 -721619296 -1602916898 303269334 -2074148749 -1241409556 1717063065 1055485271
REM
CELL 1.54180   50.00000   50.00000   50.00000   90.00000   90.00000   90.00000
LATT -1
SFAC C  
C      1  0.5124270000000  0.5347770000000  0.4443990000000 1.0
C      1  0.5356290000000  0.4782320000000  0.5895020000000 1.0
C      1  0.5093300000000  0.4461720000000  0.4308780000000 1.0
C      1  0.4716800000000  0.4798190000000  0.4293610000000 1.0
C      1  0.4907910000000  0.4824600000000  0.5247300000000 1.0
C      1  0.4570910000000  0.5419580000000  0.4859530000000 1.0
C      1  0.4657180000000  0.4925940000000  0.5067620000000 1.0
C      1  0.4773280000000  0.5055350000000  0.4179930000000 1.0
C      1  0.5387310000000  0.5549460000000  0.5001190000000 1.0
C      1  0.4739220000000  0.4615430000000  0.4953240000000 1.0
C      1  0.5605150000000  0.4863580000000  0.4911810000000 1.0
C      1  0.5283220000000  0.4873220000000  0.4446900000000 1.0
C      1  0.5193140000000  0.4727230000000  0.4684810000000 1.0
C      1  0.4634930000000  0.5493000000000  0.5576530000000 1.0
C      1  0.5506910000000  0.4957910000000  0.5351010000000 1.0
C      1  0.5153750000000  0.5473250000000  0.5484190000000 1.0
C      1  0.5051430000000  0.4349070000000  0.5415620000000 1.0
C      1  0.4913930000000  0.5737520000000  0.4719120000000 1.0
C      1  0.5291420000000  0.4868470000000  0.5159850000000 1.0
C      1  0.4709760000000  0.4834560000000  0.5644410000000 1.0
C      1  0.5110620000000  0.5047050000000  0.5381620000000 1.0
C      1  0.4805880000000  0.5321020000000  0.4346200000000 1.0
C      1  0.5248530000000  0.4413510000000  0.4925860000000 1.0
C      1  0.4664230000000  0.5037620000000  0.4754320000000 1.0
C      1  0.5565540000000  0.5337810000000  0.5054610000000 1.0
C      1  0.5109730000000  0.5569560000000  0.5183970000000 1.0
C      1  0.5558790000000  0.5241530000000  0.5326020000000 1.0
C      1  0.4951060000000  0.5280480000000  0.5203180000000 1.0
C      1  0.4804410000000  0.4502000000000  0.4274900000000 1.0
C      1  0.5160630000000  0.4995850000000  0.5714570000000 1.0
C      1  0.4117520000000  0.5437170000000  0.5736870000000 1.0
C      1  0.4852190000000  0.5324940000000  0.5527760000000 1.0
C      1  0.4835080000000  0.4609120000000  0.5455190000000 1.0
C      1  0.4652200000000  0.4367730000000  0.4490680000000 1.0
C      1  0.5494610000000  0.4618750000000  0.4923730000000 1.0
C      1  0.5359590000000  0.5146520000000  0.4434570000000 1.0
C      1  0.4935860000000  0.5616080000000  0.4460020000000 1.0
C      1  0.5139200000000  0.5716990000000  0.4887360000000 1.0
C      1  0.5414990000000  0.5397920000000  0.5522650000000 1.0
C      1  0.4608030000000  0.4816310000000  0.4563760000000 1.0
C      1  0.4840770000000  0.4163670000000  0.5130690000000 1.0
C      1  0.4614820000000  0.5299620000000  0.4592730000000 1.0
C      1  0.4257170000000  0.5372540000000  0.5524730000000 1.0
C      1  0.5071090000000  0.4771010000000  0.4949320000000 1.0
C      1  0.4399120000000  0.5306840000000  0.5309100000000 1.0
C      1  0.4926180000000  0.4389470000000  0.5020270000000 1.0
C      1  0.4665270000000  0.5689390000000  0.4858300000000 1.0
C      1  0.4920270000000  0.5182880000000  0.4915550000000 1.0
C      1  0.5456800000000  0.4884900000000  0.5616230000000 1.0
C      1  0.5133000000000  0.5243120000000  0.4748810000000 1.0
C      1  0.5164000000000  0.4433630000000  0.4596940000000 1.0
C      1  0.5249630000000  0.4694180000000  0.4220660000000 1.0
C      1  0.5626640000000  0.5141500000000  0.4853110000000 1.0
C      1  0.5246550000000  0.4299720000000  0.5239710000000 1.0
C      1  0.4601720000000  0.4564770000000  0.4694320000000 1.0
C      1  0.4860140000000  0.5065680000000  0.5690360000000 1.0
C      1  0.4535900000000  0.5232730000000  0.5078420000000 1.0
C      1  0.5589940000000  0.5216280000000  0.4581620000000 1.0
C      1  0.4782180000000  0.4291940000000  0.5566820000000 1.0
END
