TITL C-2778427-5640-1470 0.00304608578538672 125000 -306.14747010703 0 0 54 (C1) n - 1
REM
REM in /home/nfs/bkarasulu/CARBON/AIRSS/Generating-Clusters/REBO/Only-C1/SD-CG/HFTN-CG
REM
REM
REM
REM
REM
REM ./C.cell (11c1c37f851c82e70ff6c80c92926a4b)
REM
REM compiler GCC version 9.2.1 20190827 (Red Hat 9.2.1-1)
REM options -cpp -mtune=generic -march=x86-64 -g -O0 -fpre-include=/usr/include/finclude/math-vector-fortran.h
REM seed 2120620360 -1339387108 -475769219 -82124406 1192459886 1904143208 2064386509 -1789979866 -1821922273 417318741 542306180 -272555836 775708471 810615552 -599247723 -1893429589 987812833 572304485 -1962469115 -2002044908 -606055438 133457589 -1360367213 -323936554 -114968184 1586737943 -1043218312 324005044 -1139131567 -1485546870 1331367023 1660183312 -447681522
REM
CELL 1.54180   50.00000   50.00000   50.00000   90.00000   90.00000   90.00000
LATT -1
SFAC C  
C      1  0.5321460000000  0.5648660000000  0.5178510000000 1.0
C      1  0.4751690000000  0.4713000000000  0.5697100000000 1.0
C      1  0.4653430000000  0.5012380000000  0.5685850000000 1.0
C      1  0.4866530000000  0.4680140000000  0.4327350000000 1.0
C      1  0.4470490000000  0.5135100000000  0.4611630000000 1.0
C      1  0.4923160000000  0.4169550000000  0.5299420000000 1.0
C      1  0.5119100000000  0.5595530000000  0.5373250000000 1.0
C      1  0.5584430000000  0.5352680000000  0.4896160000000 1.0
C      1  0.4714420000000  0.4988510000000  0.4333150000000 1.0
C      1  0.4551590000000  0.4726520000000  0.5436790000000 1.0
C      1  0.4492240000000  0.4581480000000  0.4602140000000 1.0
C      1  0.4539550000000  0.5244210000000  0.5236670000000 1.0
C      1  0.4730490000000  0.4465810000000  0.4474320000000 1.0
C      1  0.5205270000000  0.5289190000000  0.5006390000000 1.0
C      1  0.5043920000000  0.4949760000000  0.4253330000000 1.0
C      1  0.5039280000000  0.4675550000000  0.5661710000000 1.0
C      1  0.4535160000000  0.4673270000000  0.4875470000000 1.0
C      1  0.4739050000000  0.5414050000000  0.4771580000000 1.0
C      1  0.4798000000000  0.5177880000000  0.5426350000000 1.0
C      1  0.4698410000000  0.5305040000000  0.4459300000000 1.0
C      1  0.5202900000000  0.4735360000000  0.4465090000000 1.0
C      1  0.4667300000000  0.4629780000000  0.5159430000000 1.0
C      1  0.4870380000000  0.4382760000000  0.5164220000000 1.0
C      1  0.5352270000000  0.4884140000000  0.5346540000000 1.0
C      1  0.4620930000000  0.4971660000000  0.4842360000000 1.0
C      1  0.5626790000000  0.5076030000000  0.4792770000000 1.0
C      1  0.4991550000000  0.5508060000000  0.4852320000000 1.0
C      1  0.4935630000000  0.5411480000000  0.4283310000000 1.0
C      1  0.5109950000000  0.4761950000000  0.5400220000000 1.0
C      1  0.5140830000000  0.5320690000000  0.5739090000000 1.0
C      1  0.5437060000000  0.4357130000000  0.4701570000000 1.0
C      1  0.5350330000000  0.5419810000000  0.4715150000000 1.0
C      1  0.4974290000000  0.5408250000000  0.5526360000000 1.0
C      1  0.4971440000000  0.4546120000000  0.4909310000000 1.0
C      1  0.5312840000000  0.5210520000000  0.5286690000000 1.0
C      1  0.5146820000000  0.5233200000000  0.4280540000000 1.0
C      1  0.4913620000000  0.4853600000000  0.4939560000000 1.0
C      1  0.4213950000000  0.5131950000000  0.4556860000000 1.0
C      1  0.4595910000000  0.5258440000000  0.4967240000000 1.0
C      1  0.4908210000000  0.4347810000000  0.4652900000000 1.0
C      1  0.5354980000000  0.5170450000000  0.5623900000000 1.0
C      1  0.5151020000000  0.5019170000000  0.4853920000000 1.0
C      1  0.4870850000000  0.4889320000000  0.5260270000000 1.0
C      1  0.5257690000000  0.4727560000000  0.5838670000000 1.0
C      1  0.5653850000000  0.5299570000000  0.5374310000000 1.0
C      1  0.5427570000000  0.4937330000000  0.5768500000000 1.0
C      1  0.5190930000000  0.5714520000000  0.4930690000000 1.0
C      1  0.5199520000000  0.4492560000000  0.4661170000000 1.0
C      1  0.5632770000000  0.4998760000000  0.5393510000000 1.0
C      1  0.4451040000000  0.4797040000000  0.4401550000000 1.0
C      1  0.4431640000000  0.5024930000000  0.5434980000000 1.0
C      1  0.5363480000000  0.4953000000000  0.4623830000000 1.0
C      1  0.5568790000000  0.5484730000000  0.5152050000000 1.0
C      1  0.5325210000000  0.5243990000000  0.4494660000000 1.0
END
