TITL C-2778425-5191-209 -0.00200046547384028 125000 -992.332372457008 0 0 170 (C1) n - 1
REM
REM in /home/nfs/bkarasulu/CARBON/AIRSS/Generating-Clusters/REBO/Only-C1/SD-CG/HFTN-CG
REM
REM
REM
REM
REM
REM ./C.cell (11c1c37f851c82e70ff6c80c92926a4b)
REM
REM compiler GCC version 9.2.1 20190827 (Red Hat 9.2.1-1)
REM options -cpp -mtune=generic -march=x86-64 -g -O0 -fpre-include=/usr/include/finclude/math-vector-fortran.h
REM seed 1133808224 -1118239444 -1951264770 -1893119488 554712637 -321162556 -1179244608 -127117169 -1449848857 133509937 -1673418515 -236470277 -55848156 -426665153 -1280965976 -728098223 637805616 -605179273 187026069 1879539052 -1139246026 1898603192 -1903141585 -794164515 -1459883502 105968144 1688054130 1859063526 204766915 -1333076201 247199434 -704301457 586443094
REM
CELL 1.54180   50.00000   50.00000   50.00000   90.00000   90.00000   90.00000
LATT -1
SFAC C  
C      1  0.5629090000000  0.4903020000000  0.4227930000000 1.0
C      1  0.5459270000000  0.4833740000000  0.4963020000000 1.0
C      1  0.5516250000000  0.4540250000000  0.5738940000000 1.0
C      1  0.4249100000000  0.4451070000000  0.5540160000000 1.0
C      1  0.4825650000000  0.5376370000000  0.4399230000000 1.0
C      1  0.4751130000000  0.4938820000000  0.4772430000000 1.0
C      1  0.4933710000000  0.5699710000000  0.4027960000000 1.0
C      1  0.4544660000000  0.5657870000000  0.5813060000000 1.0
C      1  0.5020860000000  0.4016440000000  0.5418890000000 1.0
C      1  0.5367250000000  0.5608560000000  0.5035840000000 1.0
C      1  0.4212250000000  0.5560410000000  0.4926600000000 1.0
C      1  0.5686800000000  0.4975920000000  0.5335130000000 1.0
C      1  0.5393740000000  0.4684600000000  0.4662110000000 1.0
C      1  0.5569850000000  0.4922930000000  0.5635880000000 1.0
C      1  0.5127160000000  0.6126600000000  0.4895230000000 1.0
C      1  0.4439510000000  0.5790050000000  0.5034830000000 1.0
C      1  0.5752410000000  0.4361270000000  0.5206630000000 1.0
C      1  0.4679960000000  0.4136270000000  0.5078150000000 1.0
C      1  0.4128170000000  0.4944040000000  0.5551580000000 1.0
C      1  0.5280090000000  0.4067320000000  0.4668840000000 1.0
C      1  0.5493550000000  0.5668880000000  0.5540930000000 1.0
C      1  0.4186790000000  0.5529940000000  0.4588260000000 1.0
C      1  0.5743690000000  0.4654420000000  0.5573280000000 1.0
C      1  0.4394430000000  0.5685960000000  0.4392150000000 1.0
C      1  0.4299720000000  0.5283400000000  0.4382160000000 1.0
C      1  0.5364820000000  0.5193440000000  0.5425570000000 1.0
C      1  0.4911550000000  0.4944180000000  0.5695280000000 1.0
C      1  0.4828660000000  0.5042220000000  0.4475100000000 1.0
C      1  0.5083070000000  0.3910610000000  0.4886080000000 1.0
C      1  0.4024580000000  0.5261180000000  0.5613440000000 1.0
C      1  0.4344450000000  0.4498100000000  0.4804770000000 1.0
C      1  0.5026070000000  0.4254110000000  0.4245200000000 1.0
C      1  0.5100880000000  0.4752040000000  0.4810390000000 1.0
C      1  0.4342280000000  0.4987390000000  0.4232310000000 1.0
C      1  0.5101350000000  0.4918490000000  0.4311250000000 1.0
C      1  0.4151600000000  0.5088800000000  0.5859180000000 1.0
C      1  0.4692330000000  0.5454520000000  0.5596050000000 1.0
C      1  0.5247680000000  0.6065020000000  0.5140680000000 1.0
C      1  0.4466990000000  0.4202580000000  0.5540680000000 1.0
C      1  0.5838830000000  0.5118950000000  0.5673460000000 1.0
C      1  0.4647080000000  0.4614560000000  0.4771890000000 1.0
C      1  0.4644860000000  0.5571320000000  0.4101060000000 1.0
C      1  0.4629190000000  0.4838810000000  0.5601670000000 1.0
C      1  0.4455870000000  0.5080810000000  0.5750430000000 1.0
C      1  0.4121260000000  0.4889770000000  0.5259820000000 1.0
C      1  0.4816400000000  0.5944450000000  0.4519870000000 1.0
C      1  0.5176720000000  0.5556230000000  0.4010960000000 1.0
C      1  0.4765130000000  0.4332080000000  0.5571420000000 1.0
C      1  0.4023340000000  0.5284460000000  0.4863170000000 1.0
C      1  0.5028650000000  0.5602600000000  0.5751800000000 1.0
C      1  0.5165630000000  0.5684790000000  0.5452040000000 1.0
C      1  0.5957310000000  0.4646170000000  0.4539400000000 1.0
C      1  0.5950050000000  0.4574840000000  0.4932200000000 1.0
C      1  0.4157840000000  0.4548020000000  0.4586590000000 1.0
C      1  0.4814120000000  0.5161450000000  0.4990290000000 1.0
C      1  0.4214970000000  0.4180710000000  0.5329130000000 1.0
C      1  0.3839730000000  0.4683680000000  0.4909820000000 1.0
C      1  0.4920310000000  0.4361640000000  0.5841090000000 1.0
C      1  0.4733300000000  0.4247610000000  0.4359720000000 1.0
C      1  0.5261470000000  0.5192140000000  0.3672600000000 1.0
C      1  0.4860340000000  0.5032000000000  0.3946710000000 1.0
C      1  0.4677620000000  0.5036910000000  0.6005310000000 1.0
C      1  0.5495360000000  0.5895410000000  0.5104790000000 1.0
C      1  0.4269130000000  0.4938590000000  0.4947580000000 1.0
C      1  0.4783670000000  0.5916390000000  0.5440670000000 1.0
C      1  0.5357310000000  0.5606210000000  0.4230160000000 1.0
C      1  0.4712380000000  0.4532530000000  0.5100800000000 1.0
C      1  0.5108420000000  0.5256170000000  0.3895640000000 1.0
C      1  0.5827100000000  0.5403630000000  0.5226060000000 1.0
C      1  0.4621820000000  0.4867530000000  0.5294790000000 1.0
C      1  0.4606140000000  0.5090140000000  0.4038470000000 1.0
C      1  0.5970410000000  0.5352420000000  0.4944220000000 1.0
C      1  0.5062690000000  0.5237470000000  0.4222520000000 1.0
C      1  0.5956950000000  0.5162330000000  0.5383440000000 1.0
C      1  0.5648830000000  0.5236030000000  0.4303970000000 1.0
C      1  0.5453320000000  0.5481950000000  0.4742560000000 1.0
C      1  0.4312630000000  0.4913880000000  0.4623860000000 1.0
C      1  0.4975780000000  0.4914490000000  0.6085640000000 1.0
C      1  0.5298290000000  0.4217100000000  0.4370570000000 1.0
C      1  0.4584320000000  0.5501570000000  0.4558350000000 1.0
C      1  0.5031740000000  0.4461220000000  0.4009210000000 1.0
C      1  0.5684170000000  0.5700930000000  0.5309970000000 1.0
C      1  0.5333290000000  0.5215350000000  0.5766470000000 1.0
C      1  0.5362750000000  0.4884810000000  0.5286130000000 1.0
C      1  0.4457360000000  0.5339330000000  0.5009500000000 1.0
C      1  0.4609600000000  0.5369050000000  0.5977880000000 1.0
C      1  0.6077170000000  0.4823500000000  0.4769310000000 1.0
C      1  0.5694100000000  0.5048070000000  0.4849670000000 1.0
C      1  0.5538550000000  0.5445320000000  0.5780140000000 1.0
C      1  0.5202000000000  0.5032030000000  0.4701480000000 1.0
C      1  0.4918900000000  0.4436370000000  0.5320020000000 1.0
C      1  0.5842090000000  0.5545880000000  0.4706890000000 1.0
C      1  0.5170110000000  0.3930900000000  0.5176730000000 1.0
C      1  0.4962430000000  0.5886530000000  0.4812120000000 1.0
C      1  0.5124330000000  0.4376280000000  0.4684300000000 1.0
C      1  0.4443230000000  0.4186300000000  0.4847980000000 1.0
C      1  0.5027450000000  0.4650580000000  0.4507720000000 1.0
C      1  0.4258850000000  0.4672860000000  0.4336440000000 1.0
C      1  0.6183650000000  0.5050560000000  0.5203590000000 1.0
C      1  0.5501130000000  0.5359630000000  0.5220900000000 1.0
C      1  0.5957290000000  0.5097460000000  0.4339980000000 1.0
C      1  0.4941570000000  0.4769660000000  0.3975810000000 1.0
C      1  0.4999340000000  0.4266660000000  0.5045800000000 1.0
C      1  0.6113210000000  0.5081080000000  0.4915900000000 1.0
C      1  0.5829050000000  0.4603890000000  0.5311880000000 1.0
C      1  0.5800650000000  0.5226250000000  0.4609100000000 1.0
C      1  0.4416740000000  0.4680610000000  0.5091340000000 1.0
C      1  0.4943670000000  0.5282630000000  0.5708080000000 1.0
C      1  0.4373160000000  0.5686350000000  0.5531620000000 1.0
C      1  0.5166760000000  0.4639090000000  0.5378670000000 1.0
C      1  0.5132360000000  0.4195860000000  0.5632540000000 1.0
C      1  0.4854060000000  0.4612980000000  0.4252970000000 1.0
C      1  0.5535540000000  0.4233860000000  0.5332980000000 1.0
C      1  0.4969420000000  0.4626330000000  0.6052280000000 1.0
C      1  0.4405260000000  0.5289770000000  0.4708890000000 1.0
C      1  0.4657810000000  0.5629880000000  0.4826130000000 1.0
C      1  0.5603130000000  0.5580510000000  0.4463810000000 1.0
C      1  0.4495650000000  0.5344520000000  0.4140520000000 1.0
C      1  0.4804000000000  0.4006420000000  0.4813780000000 1.0
C      1  0.5447550000000  0.5231350000000  0.4940150000000 1.0
C      1  0.4501370000000  0.4747540000000  0.5966130000000 1.0
C      1  0.5067310000000  0.5958760000000  0.5331230000000 1.0
C      1  0.4630160000000  0.5955360000000  0.4806130000000 1.0
C      1  0.5427320000000  0.4553660000000  0.5075300000000 1.0
C      1  0.4172190000000  0.4232280000000  0.5048140000000 1.0
C      1  0.4904360000000  0.4774380000000  0.5029500000000 1.0
C      1  0.5113450000000  0.5283000000000  0.4882950000000 1.0
C      1  0.4324920000000  0.4709670000000  0.5691920000000 1.0
C      1  0.5230010000000  0.4904620000000  0.5662550000000 1.0
C      1  0.5345680000000  0.4389820000000  0.5525760000000 1.0
C      1  0.4832020000000  0.5718860000000  0.4337780000000 1.0
C      1  0.3937370000000  0.4986100000000  0.5002370000000 1.0
C      1  0.4162760000000  0.4569430000000  0.5261860000000 1.0
C      1  0.5215250000000  0.5522310000000  0.4528560000000 1.0
C      1  0.4964120000000  0.4905390000000  0.5303250000000 1.0
C      1  0.5923570000000  0.4795710000000  0.4299920000000 1.0
C      1  0.5792510000000  0.5344950000000  0.5819410000000 1.0
C      1  0.4920090000000  0.5475630000000  0.5359910000000 1.0
C      1  0.5326230000000  0.4824870000000  0.4147120000000 1.0
C      1  0.4677430000000  0.4523260000000  0.6017350000000 1.0
C      1  0.5448780000000  0.4957310000000  0.4502960000000 1.0
C      1  0.4569570000000  0.5160690000000  0.5236020000000 1.0
C      1  0.5054000000000  0.5174420000000  0.5404120000000 1.0
C      1  0.4768710000000  0.5471680000000  0.5086300000000 1.0
C      1  0.4204920000000  0.5446300000000  0.5490960000000 1.0
C      1  0.5439910000000  0.4021670000000  0.5176220000000 1.0
C      1  0.5792820000000  0.4288120000000  0.4888140000000 1.0
C      1  0.4802520000000  0.5816990000000  0.5717260000000 1.0
C      1  0.5496160000000  0.4435710000000  0.4509230000000 1.0
C      1  0.4714020000000  0.4069220000000  0.5368290000000 1.0
C      1  0.3983300000000  0.4469490000000  0.5010150000000 1.0
C      1  0.5778580000000  0.4425740000000  0.4599430000000 1.0
C      1  0.4959800000000  0.6225750000000  0.4465200000000 1.0
C      1  0.4066120000000  0.5091620000000  0.4639910000000 1.0
C      1  0.4475950000000  0.5277840000000  0.5498270000000 1.0
C      1  0.4561730000000  0.4528150000000  0.4306710000000 1.0
C      1  0.4820000000000  0.4347650000000  0.4767010000000 1.0
C      1  0.4582810000000  0.4853230000000  0.4422120000000 1.0
C      1  0.5836820000000  0.4847950000000  0.5085170000000 1.0
C      1  0.5749630000000  0.5707870000000  0.4973840000000 1.0
C      1  0.5534020000000  0.4094080000000  0.4880800000000 1.0
C      1  0.4523420000000  0.5828080000000  0.5329850000000 1.0
C      1  0.5310830000000  0.5749520000000  0.5816100000000 1.0
C      1  0.5251350000000  0.5021730000000  0.6037180000000 1.0
C      1  0.5368790000000  0.4726130000000  0.5915520000000 1.0
C      1  0.5331530000000  0.5243350000000  0.4389290000000 1.0
C      1  0.5119480000000  0.6310960000000  0.4677980000000 1.0
C      1  0.4604420000000  0.4084170000000  0.4564930000000 1.0
C      1  0.5092730000000  0.5619030000000  0.4831630000000 1.0
C      1  0.5304070000000  0.4330910000000  0.4963800000000 1.0
END
