TITL C-2778428-5639-1480 0.134119447423331 125000 -803.793465650106 0 0 138 (C1) n - 1
REM
REM in /home/nfs/bkarasulu/CARBON/AIRSS/Generating-Clusters/REBO/Only-C1/SD-CG/HFTN-CG
REM
REM
REM
REM
REM
REM ./C.cell (11c1c37f851c82e70ff6c80c92926a4b)
REM
REM compiler GCC version 9.2.1 20190827 (Red Hat 9.2.1-1)
REM options -cpp -mtune=generic -march=x86-64 -g -O0 -fpre-include=/usr/include/finclude/math-vector-fortran.h
REM seed 1004525146 -1961794241 2082229666 987712069 1598040642 -1941456024 586520336 -1322976829 230974476 125559160 1513896739 -627720676 1241560845 -1034415713 220540400 162451631 674664457 919636773 -1047646285 -990475012 655407917 -1641370326 -374863051 -657255446 -153803387 -1279004082 -690057800 1578017762 -1750294332 -17495897 641460693 -1797009197 -962282919
REM
CELL 1.54180   50.00000   50.00000   50.00000   90.00000   90.00000   90.00000
LATT -1
SFAC C  
C      1  0.4359400000000  0.4676470000000  0.4365430000000 1.0
C      1  0.4924740000000  0.5979490000000  0.4806700000000 1.0
C      1  0.4366280000000  0.4679690000000  0.4703880000000 1.0
C      1  0.4523270000000  0.4903790000000  0.5759300000000 1.0
C      1  0.4611850000000  0.4780800000000  0.4207250000000 1.0
C      1  0.5307200000000  0.5274540000000  0.4748280000000 1.0
C      1  0.6148930000000  0.4501720000000  0.5161880000000 1.0
C      1  0.5033720000000  0.4668840000000  0.4647500000000 1.0
C      1  0.5542110000000  0.4749840000000  0.5010160000000 1.0
C      1  0.4494630000000  0.5509550000000  0.5449310000000 1.0
C      1  0.4532350000000  0.5740240000000  0.4420310000000 1.0
C      1  0.5019170000000  0.4846290000000  0.4109800000000 1.0
C      1  0.4806610000000  0.4794450000000  0.5632290000000 1.0
C      1  0.4792370000000  0.5268380000000  0.4794010000000 1.0
C      1  0.5182750000000  0.5593830000000  0.4384420000000 1.0
C      1  0.4694190000000  0.5969650000000  0.4615840000000 1.0
C      1  0.4999570000000  0.5712440000000  0.4603930000000 1.0
C      1  0.4822880000000  0.4199220000000  0.5367500000000 1.0
C      1  0.4963390000000  0.4906060000000  0.4864870000000 1.0
C      1  0.4640430000000  0.5067300000000  0.4125950000000 1.0
C      1  0.5210420000000  0.5026160000000  0.5924670000000 1.0
C      1  0.4229970000000  0.4901600000000  0.5488320000000 1.0
C      1  0.4386470000000  0.4385900000000  0.5617050000000 1.0
C      1  0.5035110000000  0.4800880000000  0.5154030000000 1.0
C      1  0.5584760000000  0.5227400000000  0.5031550000000 1.0
C      1  0.4083230000000  0.4836320000000  0.4478840000000 1.0
C      1  0.4754430000000  0.5138890000000  0.5381760000000 1.0
C      1  0.5661210000000  0.4599580000000  0.5456970000000 1.0
C      1  0.5183950000000  0.5848800000000  0.5230660000000 1.0
C      1  0.4299260000000  0.4540340000000  0.5333790000000 1.0
C      1  0.4860460000000  0.4490740000000  0.5951660000000 1.0
C      1  0.5333120000000  0.3774680000000  0.5069430000000 1.0
C      1  0.5623890000000  0.5307810000000  0.5781640000000 1.0
C      1  0.3931430000000  0.5511190000000  0.5230140000000 1.0
C      1  0.5238330000000  0.4300140000000  0.5503870000000 1.0
C      1  0.5298950000000  0.4608420000000  0.5127300000000 1.0
C      1  0.5755890000000  0.5279260000000  0.5502760000000 1.0
C      1  0.4520290000000  0.4283900000000  0.5331090000000 1.0
C      1  0.4774950000000  0.5213430000000  0.4400490000000 1.0
C      1  0.4752060000000  0.5291690000000  0.5845470000000 1.0
C      1  0.5345740000000  0.4672290000000  0.4598760000000 1.0
C      1  0.4432490000000  0.4365370000000  0.4474120000000 1.0
C      1  0.5034230000000  0.4469120000000  0.5680710000000 1.0
C      1  0.4521040000000  0.5301250000000  0.4590560000000 1.0
C      1  0.5982580000000  0.5227330000000  0.5060180000000 1.0
C      1  0.4939510000000  0.5971010000000  0.5088380000000 1.0
C      1  0.5620450000000  0.4889240000000  0.4284800000000 1.0
C      1  0.5840290000000  0.4820320000000  0.4492560000000 1.0
C      1  0.4954620000000  0.4271200000000  0.4307550000000 1.0
C      1  0.4888820000000  0.4697200000000  0.4386390000000 1.0
C      1  0.5648960000000  0.4838230000000  0.5653860000000 1.0
C      1  0.5428840000000  0.5548030000000  0.5671210000000 1.0
C      1  0.4549880000000  0.5590020000000  0.4159320000000 1.0
C      1  0.5671130000000  0.4953210000000  0.5156990000000 1.0
C      1  0.4525610000000  0.5215970000000  0.5623990000000 1.0
C      1  0.4484880000000  0.5739510000000  0.4997880000000 1.0
C      1  0.5214350000000  0.4375480000000  0.4155580000000 1.0
C      1  0.5471570000000  0.5640130000000  0.4462440000000 1.0
C      1  0.5963800000000  0.4688620000000  0.4946310000000 1.0
C      1  0.5650940000000  0.5726440000000  0.5189730000000 1.0
C      1  0.4451680000000  0.5372080000000  0.5136070000000 1.0
C      1  0.4753590000000  0.5534600000000  0.5065710000000 1.0
C      1  0.5820530000000  0.5306450000000  0.4563210000000 1.0
C      1  0.5688460000000  0.5923380000000  0.5374650000000 1.0
C      1  0.4805510000000  0.5430260000000  0.4148210000000 1.0
C      1  0.4532370000000  0.5769650000000  0.5299470000000 1.0
C      1  0.5392260000000  0.5728680000000  0.5024350000000 1.0
C      1  0.5702060000000  0.4374450000000  0.4596560000000 1.0
C      1  0.4230210000000  0.4189820000000  0.4627870000000 1.0
C      1  0.5275490000000  0.4926910000000  0.5543010000000 1.0
C      1  0.5127050000000  0.4599380000000  0.3968060000000 1.0
C      1  0.4790760000000  0.5884580000000  0.5336510000000 1.0
C      1  0.6027140000000  0.4990080000000  0.4897090000000 1.0
C      1  0.4267870000000  0.5100470000000  0.5043050000000 1.0
C      1  0.5770670000000  0.4988700000000  0.5416840000000 1.0
C      1  0.4816780000000  0.4533550000000  0.5427880000000 1.0
C      1  0.5281360000000  0.4696660000000  0.5711440000000 1.0
C      1  0.4051000000000  0.5181870000000  0.4808430000000 1.0
C      1  0.5082950000000  0.5208750000000  0.4956570000000 1.0
C      1  0.4991770000000  0.5089350000000  0.4586630000000 1.0
C      1  0.4269420000000  0.4160320000000  0.4876790000000 1.0
C      1  0.4446230000000  0.5824710000000  0.4740980000000 1.0
C      1  0.4961900000000  0.5411390000000  0.5665420000000 1.0
C      1  0.4962100000000  0.5150250000000  0.4053820000000 1.0
C      1  0.5587260000000  0.5109110000000  0.4716280000000 1.0
C      1  0.5427890000000  0.5190030000000  0.5455210000000 1.0
C      1  0.4681700000000  0.4454070000000  0.4286720000000 1.0
C      1  0.4727530000000  0.5562430000000  0.4633670000000 1.0
C      1  0.5140210000000  0.4179590000000  0.4850340000000 1.0
C      1  0.4529450000000  0.4523850000000  0.5882110000000 1.0
C      1  0.4959170000000  0.5709720000000  0.5529830000000 1.0
C      1  0.4424950000000  0.5310040000000  0.4161260000000 1.0
C      1  0.4793030000000  0.4488070000000  0.5095360000000 1.0
C      1  0.5849340000000  0.4591660000000  0.4668420000000 1.0
C      1  0.5063050000000  0.4476660000000  0.4928550000000 1.0
C      1  0.5967120000000  0.5037690000000  0.4615770000000 1.0
C      1  0.4202160000000  0.5191420000000  0.5529820000000 1.0
C      1  0.5415570000000  0.4473890000000  0.5373700000000 1.0
C      1  0.4279890000000  0.5271360000000  0.4409830000000 1.0
C      1  0.5312450000000  0.5303840000000  0.5164080000000 1.0
C      1  0.4661830000000  0.5444420000000  0.6089220000000 1.0
C      1  0.5054120000000  0.5622970000000  0.4928300000000 1.0
C      1  0.5214970000000  0.4215150000000  0.4520660000000 1.0
C      1  0.5867960000000  0.4604280000000  0.5263100000000 1.0
C      1  0.5117980000000  0.4704910000000  0.5988690000000 1.0
C      1  0.5286380000000  0.4862010000000  0.4254400000000 1.0
C      1  0.4886010000000  0.5012550000000  0.5886430000000 1.0
C      1  0.5188350000000  0.4009250000000  0.5088730000000 1.0
C      1  0.5345350000000  0.5577090000000  0.4749100000000 1.0
C      1  0.4870240000000  0.5437390000000  0.5340440000000 1.0
C      1  0.4707320000000  0.4780230000000  0.6018370000000 1.0
C      1  0.4592510000000  0.4677100000000  0.4913160000000 1.0
C      1  0.4519190000000  0.4296990000000  0.5011420000000 1.0
C      1  0.5002230000000  0.4935910000000  0.5423830000000 1.0
C      1  0.5282610000000  0.5547560000000  0.5361010000000 1.0
C      1  0.5460020000000  0.4596440000000  0.4214320000000 1.0
C      1  0.4028160000000  0.4673110000000  0.5233480000000 1.0
C      1  0.4153270000000  0.5370470000000  0.5308890000000 1.0
C      1  0.4389900000000  0.4842490000000  0.5215280000000 1.0
C      1  0.4703040000000  0.4877870000000  0.5166590000000 1.0
C      1  0.5472900000000  0.4342070000000  0.4413090000000 1.0
C      1  0.5525470000000  0.4814380000000  0.4739160000000 1.0
C      1  0.4071640000000  0.4721240000000  0.4769210000000 1.0
C      1  0.5805050000000  0.5414860000000  0.4848080000000 1.0
C      1  0.5231120000000  0.5282160000000  0.5717120000000 1.0
C      1  0.4285150000000  0.4692050000000  0.5710180000000 1.0
C      1  0.5184300000000  0.5356230000000  0.4193250000000 1.0
C      1  0.4894300000000  0.4265800000000  0.4635170000000 1.0
C      1  0.5262110000000  0.5823860000000  0.5562900000000 1.0
C      1  0.4041920000000  0.4844970000000  0.5021000000000 1.0
C      1  0.5272330000000  0.5089190000000  0.4474100000000 1.0
C      1  0.5522960000000  0.5036560000000  0.5837360000000 1.0
C      1  0.4647580000000  0.4396320000000  0.4720010000000 1.0
C      1  0.5829940000000  0.5517370000000  0.5153110000000 1.0
C      1  0.5652260000000  0.5438980000000  0.4354600000000 1.0
C      1  0.4078910000000  0.5121480000000  0.4529520000000 1.0
C      1  0.5487040000000  0.5203160000000  0.4235330000000 1.0
C      1  0.5089910000000  0.4111640000000  0.5340380000000 1.0
END
