TITL C-2778434-4341-700 -0.0339227263968822 125000 -252.350431527278 0 0 44 (C1) n - 1
REM
REM in /home/nfs/bkarasulu/CARBON/AIRSS/Generating-Clusters/REBO/Only-C1/SD-CG/HFTN-CG
REM
REM
REM
REM
REM
REM ./C.cell (11c1c37f851c82e70ff6c80c92926a4b)
REM
REM compiler GCC version 9.2.1 20190827 (Red Hat 9.2.1-1)
REM options -cpp -mtune=generic -march=x86-64 -g -O0 -fpre-include=/usr/include/finclude/math-vector-fortran.h
REM seed 2107225943 -953455043 -563401545 -682988556 1452145618 1134994957 -404853532 1920175158 1841309833 -1731329498 -1309224618 -2014357213 -201135979 -1165268835 311959116 -1642126684 -281953472 1156085358 -1746222859 331331709 -941600304 -1690862073 1882681296 280794193 -1970723866 -1751373707 -1461717962 595684725 -1725111756 279531450 405536652 980390352 1563164379
REM
CELL 1.54180   50.00000   50.00000   50.00000   90.00000   90.00000   90.00000
LATT -1
SFAC C  
C      1  0.5051170000000  0.4922000000000  0.4245520000000 1.0
C      1  0.4509760000000  0.4493730000000  0.5425080000000 1.0
C      1  0.5294890000000  0.4879070000000  0.5164290000000 1.0
C      1  0.4755000000000  0.5235600000000  0.5577680000000 1.0
C      1  0.4996270000000  0.5802210000000  0.5000300000000 1.0
C      1  0.5374650000000  0.4629340000000  0.4945120000000 1.0
C      1  0.5324010000000  0.5338880000000  0.4941760000000 1.0
C      1  0.5257930000000  0.5163510000000  0.5312100000000 1.0
C      1  0.4806330000000  0.4628750000000  0.4642570000000 1.0
C      1  0.5159030000000  0.5626150000000  0.4875740000000 1.0
C      1  0.5075580000000  0.5448630000000  0.4422250000000 1.0
C      1  0.4864830000000  0.4718220000000  0.4175300000000 1.0
C      1  0.4170650000000  0.5515410000000  0.4954310000000 1.0
C      1  0.5431120000000  0.4672640000000  0.4685890000000 1.0
C      1  0.5178550000000  0.4634530000000  0.5637540000000 1.0
C      1  0.5063490000000  0.4821520000000  0.4734860000000 1.0
C      1  0.5645970000000  0.5158100000000  0.4537750000000 1.0
C      1  0.5360760000000  0.4678090000000  0.5422360000000 1.0
C      1  0.4473660000000  0.4823370000000  0.5012870000000 1.0
C      1  0.4309820000000  0.5051420000000  0.4999350000000 1.0
C      1  0.5093360000000  0.4308330000000  0.5305890000000 1.0
C      1  0.5508650000000  0.5365310000000  0.4659540000000 1.0
C      1  0.4969200000000  0.5186140000000  0.4274370000000 1.0
C      1  0.5079920000000  0.5130830000000  0.5600280000000 1.0
C      1  0.4813010000000  0.5297760000000  0.4550260000000 1.0
C      1  0.4759400000000  0.4567810000000  0.4383240000000 1.0
C      1  0.5304130000000  0.4480930000000  0.5195810000000 1.0
C      1  0.5032520000000  0.4858700000000  0.5735260000000 1.0
C      1  0.4600690000000  0.5359380000000  0.4793880000000 1.0
C      1  0.5267780000000  0.5542090000000  0.4603980000000 1.0
C      1  0.5480650000000  0.5362230000000  0.5216140000000 1.0
C      1  0.4726690000000  0.4844840000000  0.4865580000000 1.0
C      1  0.4745750000000  0.4790430000000  0.5741470000000 1.0
C      1  0.4985390000000  0.4419500000000  0.5555870000000 1.0
C      1  0.5554370000000  0.4899290000000  0.4497880000000 1.0
C      1  0.4958050000000  0.5319170000000  0.5340950000000 1.0
C      1  0.4353520000000  0.5318440000000  0.4915270000000 1.0
C      1  0.5232200000000  0.4833980000000  0.4462690000000 1.0
C      1  0.4591910000000  0.5029150000000  0.5689410000000 1.0
C      1  0.4436120000000  0.4617260000000  0.5196030000000 1.0
C      1  0.5687670000000  0.5484080000000  0.5311610000000 1.0
C      1  0.5152630000000  0.5082120000000  0.4935690000000 1.0
C      1  0.4715980000000  0.4525210000000  0.5614870000000 1.0
C      1  0.4846940000000  0.5135820000000  0.4841400000000 1.0
END
