TITL C-2778431-5191-95 6.66253948719768e-05 125000 -690.996522901847 0 0 121 (C1) n - 1
REM
REM in /home/nfs/bkarasulu/CARBON/AIRSS/Generating-Clusters/REBO/Only-C1/SD-CG/HFTN-CG
REM
REM
REM
REM
REM
REM ./C.cell (11c1c37f851c82e70ff6c80c92926a4b)
REM
REM compiler GCC version 9.2.1 20190827 (Red Hat 9.2.1-1)
REM options -cpp -mtune=generic -march=x86-64 -g -O0 -fpre-include=/usr/include/finclude/math-vector-fortran.h
REM seed 340276660 -855438066 -1893829194 -1885225907 1379353547 -1205461283 16874947 717006258 -2562628 -1061828148 221499685 931050072 260981098 131183683 -666099729 1040725263 -1591189035 -1900306744 -2013376204 -737429647 1501683945 -1786871830 -1766513284 -1426444761 1404085526 2015587833 1842842499 -864416208 2003003579 1346928864 -573510506 1404123792 2069833662
REM
CELL 1.54180   50.00000   50.00000   50.00000   90.00000   90.00000   90.00000
LATT -1
SFAC C  
C      1  0.4394810000000  0.4513320000000  0.4374500000000 1.0
C      1  0.3911840000000  0.5000970000000  0.5407800000000 1.0
C      1  0.4514290000000  0.5858740000000  0.4276520000000 1.0
C      1  0.4839680000000  0.5840770000000  0.4918350000000 1.0
C      1  0.5816590000000  0.5282240000000  0.4592780000000 1.0
C      1  0.5181370000000  0.4700150000000  0.4572010000000 1.0
C      1  0.4428780000000  0.5542780000000  0.5286910000000 1.0
C      1  0.5002410000000  0.4614640000000  0.5139560000000 1.0
C      1  0.5675870000000  0.4861750000000  0.4381350000000 1.0
C      1  0.4176410000000  0.4704720000000  0.4410050000000 1.0
C      1  0.5345040000000  0.4478840000000  0.4970540000000 1.0
C      1  0.5109380000000  0.4469910000000  0.4775390000000 1.0
C      1  0.4818120000000  0.4500500000000  0.4916180000000 1.0
C      1  0.5056380000000  0.5124190000000  0.5507710000000 1.0
C      1  0.5621880000000  0.4818010000000  0.5562470000000 1.0
C      1  0.4269950000000  0.4570240000000  0.4865790000000 1.0
C      1  0.5043820000000  0.5099340000000  0.5923180000000 1.0
C      1  0.4677070000000  0.4693290000000  0.4307900000000 1.0
C      1  0.4761350000000  0.4675750000000  0.5451550000000 1.0
C      1  0.4824440000000  0.4990650000000  0.5686840000000 1.0
C      1  0.4890910000000  0.4947620000000  0.4386640000000 1.0
C      1  0.5104530000000  0.5451380000000  0.5103460000000 1.0
C      1  0.4753900000000  0.5748210000000  0.5184610000000 1.0
C      1  0.5666790000000  0.5529330000000  0.5253220000000 1.0
C      1  0.4935820000000  0.4301180000000  0.5429920000000 1.0
C      1  0.5631220000000  0.5161830000000  0.4834300000000 1.0
C      1  0.4553180000000  0.5256180000000  0.4246100000000 1.0
C      1  0.4522400000000  0.4782730000000  0.5271070000000 1.0
C      1  0.5069370000000  0.5794050000000  0.4757170000000 1.0
C      1  0.4682430000000  0.5060490000000  0.5384790000000 1.0
C      1  0.5131900000000  0.4914570000000  0.5041700000000 1.0
C      1  0.5311670000000  0.5951970000000  0.5102280000000 1.0
C      1  0.4427450000000  0.5575290000000  0.4946750000000 1.0
C      1  0.4323830000000  0.5368790000000  0.4780200000000 1.0
C      1  0.5105710000000  0.5794400000000  0.5702520000000 1.0
C      1  0.4974190000000  0.4783070000000  0.5992180000000 1.0
C      1  0.4616510000000  0.4241380000000  0.5430360000000 1.0
C      1  0.4948480000000  0.4590410000000  0.4170930000000 1.0
C      1  0.5375440000000  0.5048140000000  0.4008150000000 1.0
C      1  0.4921930000000  0.5343220000000  0.4836920000000 1.0
C      1  0.5502840000000  0.4300050000000  0.5402470000000 1.0
C      1  0.5347230000000  0.5709130000000  0.4786640000000 1.0
C      1  0.5466930000000  0.5594110000000  0.5014990000000 1.0
C      1  0.4811820000000  0.5053880000000  0.4690460000000 1.0
C      1  0.5047350000000  0.4805190000000  0.5413970000000 1.0
C      1  0.5775970000000  0.5265110000000  0.5439680000000 1.0
C      1  0.5561010000000  0.4551570000000  0.4385150000000 1.0
C      1  0.5424290000000  0.4188000000000  0.4678660000000 1.0
C      1  0.5149950000000  0.5759950000000  0.5192130000000 1.0
C      1  0.4214370000000  0.4853720000000  0.4691860000000 1.0
C      1  0.4216560000000  0.5606560000000  0.4363140000000 1.0
C      1  0.5331880000000  0.4892930000000  0.4770090000000 1.0
C      1  0.5701610000000  0.5513140000000  0.4483360000000 1.0
C      1  0.4819420000000  0.5649880000000  0.5765450000000 1.0
C      1  0.4514750000000  0.5228910000000  0.5763000000000 1.0
C      1  0.4324170000000  0.4791210000000  0.5619170000000 1.0
C      1  0.4718170000000  0.5424390000000  0.4580140000000 1.0
C      1  0.5303310000000  0.5197190000000  0.4305440000000 1.0
C      1  0.5810960000000  0.5262050000000  0.5106300000000 1.0
C      1  0.4652250000000  0.5734120000000  0.4475130000000 1.0
C      1  0.5356570000000  0.5703640000000  0.5681320000000 1.0
C      1  0.4921820000000  0.5395300000000  0.5967170000000 1.0
C      1  0.4796150000000  0.5205870000000  0.4097450000000 1.0
C      1  0.4389390000000  0.4489570000000  0.5503410000000 1.0
C      1  0.4592620000000  0.5753520000000  0.4792820000000 1.0
C      1  0.5478260000000  0.5076060000000  0.4541170000000 1.0
C      1  0.5385070000000  0.4197890000000  0.5133890000000 1.0
C      1  0.5854520000000  0.4936530000000  0.5075440000000 1.0
C      1  0.4390800000000  0.5240730000000  0.5383230000000 1.0
C      1  0.5470600000000  0.6140720000000  0.5013990000000 1.0
C      1  0.4388620000000  0.4334980000000  0.4668150000000 1.0
C      1  0.5537610000000  0.4875310000000  0.5848080000000 1.0
C      1  0.4629730000000  0.4567790000000  0.4691070000000 1.0
C      1  0.4372360000000  0.4532300000000  0.5166350000000 1.0
C      1  0.4704350000000  0.4372950000000  0.4428840000000 1.0
C      1  0.4542250000000  0.4843480000000  0.4690800000000 1.0
C      1  0.4519800000000  0.4923030000000  0.5774590000000 1.0
C      1  0.4573220000000  0.4352360000000  0.5022570000000 1.0
C      1  0.4832980000000  0.4052170000000  0.4881020000000 1.0
C      1  0.5561320000000  0.4675950000000  0.4855950000000 1.0
C      1  0.5879670000000  0.4986530000000  0.4576230000000 1.0
C      1  0.5177670000000  0.4814110000000  0.4261570000000 1.0
C      1  0.5172070000000  0.4092350000000  0.4889480000000 1.0
C      1  0.5192580000000  0.4180990000000  0.4497120000000 1.0
C      1  0.4877740000000  0.5122140000000  0.5104720000000 1.0
C      1  0.5473610000000  0.4769500000000  0.4137970000000 1.0
C      1  0.4623360000000  0.5732250000000  0.5495560000000 1.0
C      1  0.4627470000000  0.4053890000000  0.5155190000000 1.0
C      1  0.5375430000000  0.4728400000000  0.5202240000000 1.0
C      1  0.4368530000000  0.5037370000000  0.5139120000000 1.0
C      1  0.4675860000000  0.4461810000000  0.5686220000000 1.0
C      1  0.5794350000000  0.4794950000000  0.5359630000000 1.0
C      1  0.5928830000000  0.4822780000000  0.4805360000000 1.0
C      1  0.4953990000000  0.5378540000000  0.5399670000000 1.0
C      1  0.4924400000000  0.5289160000000  0.4390740000000 1.0
C      1  0.5628110000000  0.4378480000000  0.4597470000000 1.0
C      1  0.5134050000000  0.4434020000000  0.4364740000000 1.0
C      1  0.4615720000000  0.5003200000000  0.4952470000000 1.0
C      1  0.4241770000000  0.5113150000000  0.4865480000000 1.0
C      1  0.5526130000000  0.5212850000000  0.5634850000000 1.0
C      1  0.4392560000000  0.5420660000000  0.4476330000000 1.0
C      1  0.4981580000000  0.5709920000000  0.4491950000000 1.0
C      1  0.4706170000000  0.5372360000000  0.5633110000000 1.0
C      1  0.5330810000000  0.4964690000000  0.5518370000000 1.0
C      1  0.4907090000000  0.4238000000000  0.4628800000000 1.0
C      1  0.5382150000000  0.5288930000000  0.5110110000000 1.0
C      1  0.5826270000000  0.4534970000000  0.4779910000000 1.0
C      1  0.5439950000000  0.5608880000000  0.4532590000000 1.0
C      1  0.5193320000000  0.5487150000000  0.4377740000000 1.0
C      1  0.4947540000000  0.5834240000000  0.5436540000000 1.0
C      1  0.5349130000000  0.5098410000000  0.5893430000000 1.0
C      1  0.4944020000000  0.4572220000000  0.5827640000000 1.0
C      1  0.4176020000000  0.4997080000000  0.5484890000000 1.0
C      1  0.5513220000000  0.5529880000000  0.5550870000000 1.0
C      1  0.5355510000000  0.4533590000000  0.5474100000000 1.0
C      1  0.5074140000000  0.5134980000000  0.4054110000000 1.0
C      1  0.4494080000000  0.4078840000000  0.4837710000000 1.0
C      1  0.5053050000000  0.4277660000000  0.5149560000000 1.0
C      1  0.5098740000000  0.4458190000000  0.5603100000000 1.0
C      1  0.4715410000000  0.5423450000000  0.5178830000000 1.0
C      1  0.5517850000000  0.4993120000000  0.5109290000000 1.0
END
