TITL C-2778422-5617-200 -0.00686539491144989 125000 -1100.70091251521 0 0 190 (C1) n - 1
REM
REM in /home/nfs/bkarasulu/CARBON/AIRSS/Generating-Clusters/REBO/Only-C1/SD-CG/HFTN-CG
REM
REM
REM
REM
REM
REM ./C.cell (11c1c37f851c82e70ff6c80c92926a4b)
REM
REM compiler GCC version 9.2.1 20190827 (Red Hat 9.2.1-1)
REM options -cpp -mtune=generic -march=x86-64 -g -O0 -fpre-include=/usr/include/finclude/math-vector-fortran.h
REM seed -1595156673 -1718727033 1395085189 -278408593 81795956 614914632 -1863864362 1918708958 907833210 1425161498 461251399 -767176336 1478680280 1047449970 -1951478567 -118564525 -1149500511 -881795183 -1491343862 -1004051786 -1166145707 856894254 349429141 -1677972060 44499496 -1229848226 -804221348 1724504030 -658566131 -605466888 1760755414 -1446646284 1740913741
REM
CELL 1.54180   50.00000   50.00000   50.00000   90.00000   90.00000   90.00000
LATT -1
SFAC C  
C      1  0.5675840000000  0.4517220000000  0.5748330000000 1.0
C      1  0.5426730000000  0.4469630000000  0.3989020000000 1.0
C      1  0.5195800000000  0.4702890000000  0.3899580000000 1.0
C      1  0.5235280000000  0.4173290000000  0.4838510000000 1.0
C      1  0.5345180000000  0.5570160000000  0.5237830000000 1.0
C      1  0.5873200000000  0.5303610000000  0.5147730000000 1.0
C      1  0.5108150000000  0.6104920000000  0.4795530000000 1.0
C      1  0.4746930000000  0.5405460000000  0.4933680000000 1.0
C      1  0.4456210000000  0.4305140000000  0.5629950000000 1.0
C      1  0.3966780000000  0.4800710000000  0.4801540000000 1.0
C      1  0.4735470000000  0.5579390000000  0.5226130000000 1.0
C      1  0.4455230000000  0.6122980000000  0.5056000000000 1.0
C      1  0.5532940000000  0.4676350000000  0.5910700000000 1.0
C      1  0.5110350000000  0.4411060000000  0.5838880000000 1.0
C      1  0.4724100000000  0.4528500000000  0.4738450000000 1.0
C      1  0.5809550000000  0.5790420000000  0.4785480000000 1.0
C      1  0.4644840000000  0.5496280000000  0.4196440000000 1.0
C      1  0.4697470000000  0.4631920000000  0.5587110000000 1.0
C      1  0.5571770000000  0.5358840000000  0.5116030000000 1.0
C      1  0.4947860000000  0.5687450000000  0.5773670000000 1.0
C      1  0.5225360000000  0.5195230000000  0.4840710000000 1.0
C      1  0.5679260000000  0.4421520000000  0.4190200000000 1.0
C      1  0.4975340000000  0.5377030000000  0.4593020000000 1.0
C      1  0.6044540000000  0.5048380000000  0.5047910000000 1.0
C      1  0.5150790000000  0.3886820000000  0.5307460000000 1.0
C      1  0.4867600000000  0.5953440000000  0.5293010000000 1.0
C      1  0.5901280000000  0.4549260000000  0.5310270000000 1.0
C      1  0.5498690000000  0.5581360000000  0.4459740000000 1.0
C      1  0.5110370000000  0.5154840000000  0.5745340000000 1.0
C      1  0.3917380000000  0.5489070000000  0.5165470000000 1.0
C      1  0.5597690000000  0.5143510000000  0.5451160000000 1.0
C      1  0.4834540000000  0.5194840000000  0.6176130000000 1.0
C      1  0.4066000000000  0.4479670000000  0.4864790000000 1.0
C      1  0.4906170000000  0.5132910000000  0.4821930000000 1.0
C      1  0.5198630000000  0.6031460000000  0.5288740000000 1.0
C      1  0.4697800000000  0.4764160000000  0.4483980000000 1.0
C      1  0.5786760000000  0.5646270000000  0.4515150000000 1.0
C      1  0.5210420000000  0.5522870000000  0.4743550000000 1.0
C      1  0.4914860000000  0.4884170000000  0.3972370000000 1.0
C      1  0.5399980000000  0.6013590000000  0.5112270000000 1.0
C      1  0.4592580000000  0.4953490000000  0.4044460000000 1.0
C      1  0.3997200000000  0.4848060000000  0.5475610000000 1.0
C      1  0.4833110000000  0.4469210000000  0.5808770000000 1.0
C      1  0.4452400000000  0.5216210000000  0.4214970000000 1.0
C      1  0.5532770000000  0.4893940000000  0.4615710000000 1.0
C      1  0.4547830000000  0.5872390000000  0.5197210000000 1.0
C      1  0.5364730000000  0.5675260000000  0.5550120000000 1.0
C      1  0.5394430000000  0.4986200000000  0.5653860000000 1.0
C      1  0.4815130000000  0.6007090000000  0.4933280000000 1.0
C      1  0.4281450000000  0.4256720000000  0.4593520000000 1.0
C      1  0.5581190000000  0.4206680000000  0.5200340000000 1.0
C      1  0.4193570000000  0.5206800000000  0.5732260000000 1.0
C      1  0.5466100000000  0.4145270000000  0.5572940000000 1.0
C      1  0.5221630000000  0.4659810000000  0.4524920000000 1.0
C      1  0.4615730000000  0.4665320000000  0.5982190000000 1.0
C      1  0.4387150000000  0.4808230000000  0.5410370000000 1.0
C      1  0.5326770000000  0.4802880000000  0.5191460000000 1.0
C      1  0.5942480000000  0.5118100000000  0.4421020000000 1.0
C      1  0.4323730000000  0.4451830000000  0.4347180000000 1.0
C      1  0.4837730000000  0.5266930000000  0.4032680000000 1.0
C      1  0.4450180000000  0.4998900000000  0.5023350000000 1.0
C      1  0.4232040000000  0.4840190000000  0.4363990000000 1.0
C      1  0.5097480000000  0.5308840000000  0.6114130000000 1.0
C      1  0.4885000000000  0.6079060000000  0.4548920000000 1.0
C      1  0.4630360000000  0.5897620000000  0.4685980000000 1.0
C      1  0.5710650000000  0.4360960000000  0.5474740000000 1.0
C      1  0.5642000000000  0.4592350000000  0.4631750000000 1.0
C      1  0.4654330000000  0.5596910000000  0.4684160000000 1.0
C      1  0.5386150000000  0.4562150000000  0.4855640000000 1.0
C      1  0.5641380000000  0.5318400000000  0.5807180000000 1.0
C      1  0.4833950000000  0.4855170000000  0.4788360000000 1.0
C      1  0.5273200000000  0.4590270000000  0.5987620000000 1.0
C      1  0.4512310000000  0.4708770000000  0.5124010000000 1.0
C      1  0.6091810000000  0.4894310000000  0.4586270000000 1.0
C      1  0.3920150000000  0.5434150000000  0.4828760000000 1.0
C      1  0.5076260000000  0.5132900000000  0.4237940000000 1.0
C      1  0.5991100000000  0.5657010000000  0.5006160000000 1.0
C      1  0.4716250000000  0.4187720000000  0.4943240000000 1.0
C      1  0.4455710000000  0.5131620000000  0.4737860000000 1.0
C      1  0.4847650000000  0.5084040000000  0.5321210000000 1.0
C      1  0.5311220000000  0.5776050000000  0.4425980000000 1.0
C      1  0.4065510000000  0.5766840000000  0.5299590000000 1.0
C      1  0.4380380000000  0.4524710000000  0.5804700000000 1.0
C      1  0.4445950000000  0.4345510000000  0.4809790000000 1.0
C      1  0.6043400000000  0.4776590000000  0.4902410000000 1.0
C      1  0.4146100000000  0.5054300000000  0.5046130000000 1.0
C      1  0.5078850000000  0.5821510000000  0.4972240000000 1.0
C      1  0.5456170000000  0.5267850000000  0.4499010000000 1.0
C      1  0.4719160000000  0.5043530000000  0.4340070000000 1.0
C      1  0.4876390000000  0.4858380000000  0.5874660000000 1.0
C      1  0.5252540000000  0.5000500000000  0.4493830000000 1.0
C      1  0.4309110000000  0.5857030000000  0.5426430000000 1.0
C      1  0.5993750000000  0.5530510000000  0.5318880000000 1.0
C      1  0.5178980000000  0.3874090000000  0.4793670000000 1.0
C      1  0.4173160000000  0.5777900000000  0.4490680000000 1.0
C      1  0.5487460000000  0.5566150000000  0.4861320000000 1.0
C      1  0.4637700000000  0.5668220000000  0.5705580000000 1.0
C      1  0.4363620000000  0.4641240000000  0.4868810000000 1.0
C      1  0.5431520000000  0.5522510000000  0.5824960000000 1.0
C      1  0.5132040000000  0.4466270000000  0.5301970000000 1.0
C      1  0.4956040000000  0.5498780000000  0.4319220000000 1.0
C      1  0.4943240000000  0.4758160000000  0.5293060000000 1.0
C      1  0.4406010000000  0.4838300000000  0.4643180000000 1.0
C      1  0.5325050000000  0.4358200000000  0.5090990000000 1.0
C      1  0.5868170000000  0.5316830000000  0.5553650000000 1.0
C      1  0.4637580000000  0.4507070000000  0.5336210000000 1.0
C      1  0.4867400000000  0.3820710000000  0.5229980000000 1.0
C      1  0.4650200000000  0.4055150000000  0.4636970000000 1.0
C      1  0.5336400000000  0.5134220000000  0.5138020000000 1.0
C      1  0.4002580000000  0.4773150000000  0.5141820000000 1.0
C      1  0.5748890000000  0.4887940000000  0.4385280000000 1.0
C      1  0.5391970000000  0.4694230000000  0.4241970000000 1.0
C      1  0.4882880000000  0.5358000000000  0.5780320000000 1.0
C      1  0.4094490000000  0.4606730000000  0.4550190000000 1.0
C      1  0.5078750000000  0.5840250000000  0.5538720000000 1.0
C      1  0.4036570000000  0.5128730000000  0.5517120000000 1.0
C      1  0.5274160000000  0.5068780000000  0.6032320000000 1.0
C      1  0.4991380000000  0.4116390000000  0.5468630000000 1.0
C      1  0.4295260000000  0.4300450000000  0.5374650000000 1.0
C      1  0.4785740000000  0.5777320000000  0.4338380000000 1.0
C      1  0.5527260000000  0.5233010000000  0.4168040000000 1.0
C      1  0.4373100000000  0.5437750000000  0.4762060000000 1.0
C      1  0.5060300000000  0.3800750000000  0.4558010000000 1.0
C      1  0.4988760000000  0.4365710000000  0.4875960000000 1.0
C      1  0.4666950000000  0.5284620000000  0.4543290000000 1.0
C      1  0.5692750000000  0.5329740000000  0.4738110000000 1.0
C      1  0.5326420000000  0.4233490000000  0.4182650000000 1.0
C      1  0.4103020000000  0.5267000000000  0.5260970000000 1.0
C      1  0.4190950000000  0.4549860000000  0.5296560000000 1.0
C      1  0.5908460000000  0.4827790000000  0.5380660000000 1.0
C      1  0.4349500000000  0.5941380000000  0.4560800000000 1.0
C      1  0.5590220000000  0.4757790000000  0.4990830000000 1.0
C      1  0.4789470000000  0.4864650000000  0.6200460000000 1.0
C      1  0.4410190000000  0.4703310000000  0.4132690000000 1.0
C      1  0.5289020000000  0.5342960000000  0.3965380000000 1.0
C      1  0.5707250000000  0.4318780000000  0.4928570000000 1.0
C      1  0.4066150000000  0.5712180000000  0.4962500000000 1.0
C      1  0.5208230000000  0.4227350000000  0.5657200000000 1.0
C      1  0.5043060000000  0.4752610000000  0.4261650000000 1.0
C      1  0.4124350000000  0.5477770000000  0.4567140000000 1.0
C      1  0.5359380000000  0.5341460000000  0.5477100000000 1.0
C      1  0.5660400000000  0.5052380000000  0.4877600000000 1.0
C      1  0.5986600000000  0.5434890000000  0.4787950000000 1.0
C      1  0.5814050000000  0.4660970000000  0.4240550000000 1.0
C      1  0.5664630000000  0.4240970000000  0.4393960000000 1.0
C      1  0.4876300000000  0.3982250000000  0.4447430000000 1.0
C      1  0.5284900000000  0.4711220000000  0.5486850000000 1.0
C      1  0.4691690000000  0.4555260000000  0.4233750000000 1.0
C      1  0.4427030000000  0.5842890000000  0.5685370000000 1.0
C      1  0.5114330000000  0.4814330000000  0.6110280000000 1.0
C      1  0.5077490000000  0.5156720000000  0.3842630000000 1.0
C      1  0.5180000000000  0.5540440000000  0.5971210000000 1.0
C      1  0.4196800000000  0.5171670000000  0.4435620000000 1.0
C      1  0.5093740000000  0.5853020000000  0.4210060000000 1.0
C      1  0.5574090000000  0.5009700000000  0.5933720000000 1.0
C      1  0.4619110000000  0.4278820000000  0.4385050000000 1.0
C      1  0.6015330000000  0.5018860000000  0.5548050000000 1.0
C      1  0.5904610000000  0.4513870000000  0.5024730000000 1.0
C      1  0.5689980000000  0.4963400000000  0.5210750000000 1.0
C      1  0.4304880000000  0.5263100000000  0.5997770000000 1.0
C      1  0.4956530000000  0.4267960000000  0.4312280000000 1.0
C      1  0.4970020000000  0.4498760000000  0.4061280000000 1.0
C      1  0.4618480000000  0.5204860000000  0.5159370000000 1.0
C      1  0.4636470000000  0.3960360000000  0.5321650000000 1.0
C      1  0.4624910000000  0.5292240000000  0.5978820000000 1.0
C      1  0.5427930000000  0.3943830000000  0.5337790000000 1.0
C      1  0.4384680000000  0.4070550000000  0.5219690000000 1.0
C      1  0.5254160000000  0.4328610000000  0.4471570000000 1.0
C      1  0.4374980000000  0.5626890000000  0.5031590000000 1.0
C      1  0.4679600000000  0.4126150000000  0.5579330000000 1.0
C      1  0.4033830000000  0.5127530000000  0.4733450000000 1.0
C      1  0.5027850000000  0.5772940000000  0.4594490000000 1.0
C      1  0.5803260000000  0.5360650000000  0.4329160000000 1.0
C      1  0.5018340000000  0.4867340000000  0.5606860000000 1.0
C      1  0.4379440000000  0.5403420000000  0.5253640000000 1.0
C      1  0.6170530000000  0.5233640000000  0.4854400000000 1.0
C      1  0.5044580000000  0.5574160000000  0.5140350000000 1.0
C      1  0.5926850000000  0.4611430000000  0.4636240000000 1.0
C      1  0.4600120000000  0.5447170000000  0.5494250000000 1.0
C      1  0.5329340000000  0.4965940000000  0.4083100000000 1.0
C      1  0.5086490000000  0.5271240000000  0.5293150000000 1.0
C      1  0.4528510000000  0.5209030000000  0.5672970000000 1.0
C      1  0.4836750000000  0.4304810000000  0.5239370000000 1.0
C      1  0.4992540000000  0.4671000000000  0.4992280000000 1.0
C      1  0.4198730000000  0.4698510000000  0.5663630000000 1.0
C      1  0.5510600000000  0.4229570000000  0.4676110000000 1.0
C      1  0.5225670000000  0.4863870000000  0.4868170000000 1.0
C      1  0.5547750000000  0.5875330000000  0.4919900000000 1.0
C      1  0.5170950000000  0.5571900000000  0.4075040000000 1.0
C      1  0.4634800000000  0.4958180000000  0.5546850000000 1.0
END
