TITL C-2778437-8639-1262 0.000287263731429044 125000 -334.480601061514 0 0 57 (C1) n - 1
REM
REM in /home/nfs/bkarasulu/CARBON/AIRSS/Generating-Clusters/REBO/Only-C1/SD-CG/HFTN-CG
REM
REM
REM
REM
REM
REM ./C.cell (11c1c37f851c82e70ff6c80c92926a4b)
REM
REM compiler GCC version 9.2.1 20190827 (Red Hat 9.2.1-1)
REM options -cpp -mtune=generic -march=x86-64 -g -O0 -fpre-include=/usr/include/finclude/math-vector-fortran.h
REM seed 177212078 -1420090555 -273481813 -17660622 1540609959 -584081538 -2057700932 -846904655 -1713969378 1574811977 1551565965 -1908900746 -1064117974 -1344740279 -2042934704 -545259416 645312113 1799615746 487722206 -1614113420 -702132921 -330550369 1841694794 607206314 -2003559188 -2132301686 -1144165700 -2075571703 -2113945993 -346003251 32565446 -1394601511 -2085999950
REM
CELL 1.54180   50.00000   50.00000   50.00000   90.00000   90.00000   90.00000
LATT -1
SFAC C  
C      1  0.5400610000000  0.5940910000000  0.5039290000000 1.0
C      1  0.4516170000000  0.4961020000000  0.5018770000000 1.0
C      1  0.4900020000000  0.4994620000000  0.5498860000000 1.0
C      1  0.4398160000000  0.5139720000000  0.4346680000000 1.0
C      1  0.4705770000000  0.5443570000000  0.5542300000000 1.0
C      1  0.5012310000000  0.5687590000000  0.4812810000000 1.0
C      1  0.5007190000000  0.5039530000000  0.4880950000000 1.0
C      1  0.4886100000000  0.5516610000000  0.4614170000000 1.0
C      1  0.5418470000000  0.4970860000000  0.5119990000000 1.0
C      1  0.5253320000000  0.5699570000000  0.5054380000000 1.0
C      1  0.5044010000000  0.4851220000000  0.4677940000000 1.0
C      1  0.4771910000000  0.3761200000000  0.5355530000000 1.0
C      1  0.5025620000000  0.4720740000000  0.5365710000000 1.0
C      1  0.4402510000000  0.5058960000000  0.5464990000000 1.0
C      1  0.5661860000000  0.4727600000000  0.4400980000000 1.0
C      1  0.4557990000000  0.4595170000000  0.5351490000000 1.0
C      1  0.5314580000000  0.4836820000000  0.4610700000000 1.0
C      1  0.5681610000000  0.4524680000000  0.4666490000000 1.0
C      1  0.4864300000000  0.5243690000000  0.5693090000000 1.0
C      1  0.5124730000000  0.5648820000000  0.5352970000000 1.0
C      1  0.4683390000000  0.5331410000000  0.4714760000000 1.0
C      1  0.5591390000000  0.4108950000000  0.4887510000000 1.0
C      1  0.5032950000000  0.5440600000000  0.4382010000000 1.0
C      1  0.4581280000000  0.5275060000000  0.5034160000000 1.0
C      1  0.4841650000000  0.4006130000000  0.5293650000000 1.0
C      1  0.4915620000000  0.4265880000000  0.5228030000000 1.0
C      1  0.5289850000000  0.4722570000000  0.5175400000000 1.0
C      1  0.4458100000000  0.4850010000000  0.5274220000000 1.0
C      1  0.4871850000000  0.5679480000000  0.5472530000000 1.0
C      1  0.5057080000000  0.4334610000000  0.4983350000000 1.0
C      1  0.5310760000000  0.4484560000000  0.5010760000000 1.0
C      1  0.5170130000000  0.5269630000000  0.4219430000000 1.0
C      1  0.4885270000000  0.4408620000000  0.4770200000000 1.0
C      1  0.4594370000000  0.5085760000000  0.4536480000000 1.0
C      1  0.5433310000000  0.5440460000000  0.5031350000000 1.0
C      1  0.4990320000000  0.4986930000000  0.5165360000000 1.0
C      1  0.4303940000000  0.5018350000000  0.5721410000000 1.0
C      1  0.4567030000000  0.4854570000000  0.4767300000000 1.0
C      1  0.5139160000000  0.5281460000000  0.4812790000000 1.0
C      1  0.5124880000000  0.5330380000000  0.5755060000000 1.0
C      1  0.5007900000000  0.5268050000000  0.5322020000000 1.0
C      1  0.4854550000000  0.5686560000000  0.5061640000000 1.0
C      1  0.5510960000000  0.4993370000000  0.4815460000000 1.0
C      1  0.4938140000000  0.4857600000000  0.4177350000000 1.0
C      1  0.5395780000000  0.4842740000000  0.4322880000000 1.0
C      1  0.5194810000000  0.4987790000000  0.4168590000000 1.0
C      1  0.5744530000000  0.4836440000000  0.4692710000000 1.0
C      1  0.4210930000000  0.4980020000000  0.5963410000000 1.0
C      1  0.5410640000000  0.5238060000000  0.5237620000000 1.0
C      1  0.5275060000000  0.5390810000000  0.5479410000000 1.0
C      1  0.4820620000000  0.5437950000000  0.5159660000000 1.0
C      1  0.4814930000000  0.4848460000000  0.4456970000000 1.0
C      1  0.4724000000000  0.4612090000000  0.4678340000000 1.0
C      1  0.4825010000000  0.4500090000000  0.5360080000000 1.0
C      1  0.4508830000000  0.5309340000000  0.5366960000000 1.0
C      1  0.5438470000000  0.5297020000000  0.4774380000000 1.0
C      1  0.5535270000000  0.4375270000000  0.4858680000000 1.0
END
