TITL C-2778436-5916-884 -0.00135561595065998 125000 -585.629185323477 0 0 103 (C1) n - 1
REM
REM in /home/nfs/bkarasulu/CARBON/AIRSS/Generating-Clusters/REBO/Only-C1/SD-CG/HFTN-CG
REM
REM
REM
REM
REM
REM ./C.cell (11c1c37f851c82e70ff6c80c92926a4b)
REM
REM compiler GCC version 9.2.1 20190827 (Red Hat 9.2.1-1)
REM options -cpp -mtune=generic -march=x86-64 -g -O0 -fpre-include=/usr/include/finclude/math-vector-fortran.h
REM seed 822596610 -334134695 -1192157621 -1602058657 1928408298 275845745 -790078321 1356370464 1033348933 -422681783 1543994864 579758059 -926999761 -1252145904 1625532576 -1319811676 1424314586 1975082210 -1070256418 -786579384 347344386 -272407272 1991061860 -1364216092 479169387 -1643339558 -2083806406 540405990 -2116337908 178754683 -1801732718 -261430304 282048943
REM
CELL 1.54180   50.00000   50.00000   50.00000   90.00000   90.00000   90.00000
LATT -1
SFAC C  
C      1  0.4943370000000  0.5668620000000  0.5672900000000 1.0
C      1  0.4479230000000  0.5647570000000  0.5304960000000 1.0
C      1  0.5151610000000  0.4671280000000  0.4436430000000 1.0
C      1  0.4894350000000  0.4319120000000  0.5153190000000 1.0
C      1  0.5362610000000  0.5386260000000  0.4993220000000 1.0
C      1  0.4970470000000  0.4229360000000  0.4771090000000 1.0
C      1  0.4403730000000  0.4647780000000  0.4517300000000 1.0
C      1  0.4197420000000  0.4762520000000  0.5460920000000 1.0
C      1  0.4846530000000  0.4023540000000  0.4985640000000 1.0
C      1  0.5286300000000  0.4813810000000  0.4724160000000 1.0
C      1  0.4950790000000  0.5852290000000  0.4871970000000 1.0
C      1  0.5672230000000  0.4899540000000  0.4447900000000 1.0
C      1  0.4553500000000  0.4590930000000  0.5408590000000 1.0
C      1  0.4322990000000  0.4343070000000  0.4997520000000 1.0
C      1  0.5245010000000  0.5941840000000  0.4747140000000 1.0
C      1  0.5085190000000  0.4579990000000  0.5045580000000 1.0
C      1  0.4441380000000  0.5539330000000  0.5058050000000 1.0
C      1  0.5056910000000  0.5369410000000  0.5792160000000 1.0
C      1  0.5725280000000  0.4763180000000  0.5360220000000 1.0
C      1  0.5803250000000  0.5157140000000  0.4451760000000 1.0
C      1  0.5393140000000  0.4462810000000  0.4526390000000 1.0
C      1  0.5490110000000  0.4623890000000  0.5563770000000 1.0
C      1  0.4458490000000  0.4820940000000  0.4799480000000 1.0
C      1  0.4410660000000  0.5627620000000  0.4553710000000 1.0
C      1  0.4583870000000  0.4895220000000  0.5100920000000 1.0
C      1  0.4663250000000  0.4536710000000  0.4396460000000 1.0
C      1  0.5051350000000  0.5131820000000  0.4677790000000 1.0
C      1  0.4585560000000  0.4212110000000  0.4863270000000 1.0
C      1  0.4890130000000  0.5221500000000  0.5414090000000 1.0
C      1  0.4791950000000  0.4294900000000  0.4419730000000 1.0
C      1  0.4240400000000  0.4559010000000  0.4798030000000 1.0
C      1  0.6016380000000  0.5038360000000  0.4863780000000 1.0
C      1  0.5270860000000  0.4199150000000  0.5092520000000 1.0
C      1  0.4612430000000  0.5246520000000  0.5602760000000 1.0
C      1  0.5106510000000  0.5149820000000  0.4158300000000 1.0
C      1  0.4774070000000  0.4990480000000  0.4622380000000 1.0
C      1  0.5243860000000  0.4796900000000  0.5723150000000 1.0
C      1  0.4971130000000  0.4631740000000  0.5688100000000 1.0
C      1  0.5633950000000  0.5687790000000  0.5413210000000 1.0
C      1  0.5162260000000  0.4708390000000  0.5343080000000 1.0
C      1  0.5155850000000  0.4986020000000  0.4390600000000 1.0
C      1  0.5423670000000  0.5073520000000  0.4545620000000 1.0
C      1  0.5097730000000  0.5070820000000  0.4964650000000 1.0
C      1  0.5363970000000  0.4934110000000  0.5346470000000 1.0
C      1  0.4746910000000  0.4813100000000  0.5800900000000 1.0
C      1  0.5116870000000  0.4267420000000  0.4470960000000 1.0
C      1  0.5864250000000  0.5255780000000  0.4709730000000 1.0
C      1  0.5855370000000  0.5207320000000  0.5105500000000 1.0
C      1  0.5068350000000  0.5433190000000  0.4615150000000 1.0
C      1  0.5495710000000  0.5682140000000  0.5636840000000 1.0
C      1  0.4121810000000  0.5073040000000  0.4549760000000 1.0
C      1  0.4679610000000  0.5546670000000  0.4505590000000 1.0
C      1  0.5245520000000  0.5203400000000  0.5232930000000 1.0
C      1  0.4247640000000  0.4894140000000  0.5153050000000 1.0
C      1  0.5555940000000  0.5622800000000  0.4602790000000 1.0
C      1  0.4583210000000  0.4555240000000  0.5068800000000 1.0
C      1  0.5170130000000  0.5883790000000  0.5130760000000 1.0
C      1  0.5251240000000  0.5599900000000  0.5231290000000 1.0
C      1  0.4811390000000  0.5116590000000  0.5127280000000 1.0
C      1  0.5399770000000  0.4487740000000  0.5035760000000 1.0
C      1  0.5380500000000  0.5387160000000  0.4510050000000 1.0
C      1  0.5650990000000  0.5392000000000  0.4913640000000 1.0
C      1  0.4956600000000  0.4748010000000  0.4775910000000 1.0
C      1  0.5675270000000  0.4489000000000  0.5219370000000 1.0
C      1  0.5583010000000  0.4956210000000  0.5592090000000 1.0
C      1  0.4686510000000  0.5375190000000  0.4955340000000 1.0
C      1  0.5477890000000  0.5800080000000  0.4798750000000 1.0
C      1  0.4549360000000  0.5136310000000  0.4782080000000 1.0
C      1  0.5693210000000  0.4494420000000  0.4890960000000 1.0
C      1  0.5536190000000  0.5731140000000  0.5089980000000 1.0
C      1  0.4383710000000  0.4329590000000  0.5329720000000 1.0
C      1  0.5712680000000  0.4910540000000  0.5084530000000 1.0
C      1  0.3951590000000  0.4945870000000  0.4740320000000 1.0
C      1  0.5134670000000  0.5450180000000  0.4280880000000 1.0
C      1  0.4152100000000  0.5090570000000  0.5402200000000 1.0
C      1  0.5866510000000  0.4760040000000  0.4819820000000 1.0
C      1  0.4604560000000  0.4141190000000  0.5196240000000 1.0
C      1  0.5660830000000  0.4614780000000  0.4584720000000 1.0
C      1  0.4288710000000  0.5267660000000  0.4676440000000 1.0
C      1  0.5806460000000  0.5536720000000  0.5172360000000 1.0
C      1  0.4739770000000  0.5054430000000  0.4303810000000 1.0
C      1  0.4867640000000  0.4543380000000  0.5378930000000 1.0
C      1  0.4860020000000  0.5943400000000  0.5188100000000 1.0
C      1  0.4476960000000  0.4773390000000  0.5651850000000 1.0
C      1  0.4080540000000  0.4792490000000  0.4925960000000 1.0
C      1  0.4832740000000  0.5121570000000  0.5796470000000 1.0
C      1  0.4383490000000  0.5085090000000  0.5594970000000 1.0
C      1  0.5207110000000  0.4180310000000  0.5364140000000 1.0
C      1  0.5268460000000  0.5624060000000  0.5757680000000 1.0
C      1  0.5400870000000  0.4915670000000  0.5008380000000 1.0
C      1  0.4812370000000  0.5368360000000  0.4315820000000 1.0
C      1  0.4759280000000  0.5742130000000  0.5396370000000 1.0
C      1  0.5302170000000  0.4225550000000  0.4754160000000 1.0
C      1  0.4779550000000  0.4486900000000  0.4809280000000 1.0
C      1  0.4447870000000  0.5018460000000  0.4198310000000 1.0
C      1  0.4852010000000  0.4738670000000  0.4325310000000 1.0
C      1  0.5441340000000  0.5035960000000  0.5855060000000 1.0
C      1  0.4855790000000  0.5582500000000  0.4772220000000 1.0
C      1  0.4273430000000  0.5540020000000  0.4812970000000 1.0
C      1  0.5216210000000  0.4440800000000  0.5543720000000 1.0
C      1  0.5116560000000  0.5077520000000  0.5626060000000 1.0
C      1  0.4271920000000  0.4897420000000  0.4371780000000 1.0
C      1  0.5005070000000  0.5506280000000  0.5387230000000 1.0
END
