TITL C-2778423-5760-5 -0.00389421576864341 125000 -913.79746508586 0 0 156 (C1) n - 1
REM
REM in /home/nfs/bkarasulu/CARBON/AIRSS/Generating-Clusters/REBO/Only-C1/SD-CG/HFTN-CG
REM
REM
REM
REM
REM
REM ./C.cell (11c1c37f851c82e70ff6c80c92926a4b)
REM
REM compiler GCC version 9.2.1 20190827 (Red Hat 9.2.1-1)
REM options -cpp -mtune=generic -march=x86-64 -g -O0 -fpre-include=/usr/include/finclude/math-vector-fortran.h
REM seed 1573353292 -1891141927 -578489948 752508505 -233417518 960740986 456975928 668016624 1580583148 -1281673861 -414229689 504009967 844416657 1756813978 -1595903458 -1163015051 -1938368503 -2117205912 599620973 163773525 -1787166606 -596626612 -64382821 1652849028 -1631700526 -119376862 326266297 147630358 -2106769245 -903754441 -746873505 -224489698 469009138
REM
CELL 1.54180   50.00000   50.00000   50.00000   90.00000   90.00000   90.00000
LATT -1
SFAC C  
C      1  0.4876740000000  0.4706570000000  0.6088940000000 1.0
C      1  0.5415630000000  0.5259570000000  0.5791970000000 1.0
C      1  0.4905320000000  0.5229560000000  0.5930270000000 1.0
C      1  0.4870250000000  0.4673260000000  0.4032740000000 1.0
C      1  0.5654510000000  0.4378080000000  0.5455540000000 1.0
C      1  0.4560500000000  0.5407920000000  0.4643860000000 1.0
C      1  0.5968890000000  0.5300580000000  0.5128630000000 1.0
C      1  0.4890840000000  0.4913050000000  0.5329070000000 1.0
C      1  0.4021340000000  0.5074810000000  0.5391290000000 1.0
C      1  0.4018890000000  0.4922150000000  0.4634640000000 1.0
C      1  0.5996890000000  0.4907150000000  0.5077880000000 1.0
C      1  0.4759590000000  0.5516270000000  0.4165160000000 1.0
C      1  0.5182090000000  0.4242810000000  0.5336200000000 1.0
C      1  0.4214240000000  0.4373600000000  0.4693830000000 1.0
C      1  0.5008320000000  0.5431490000000  0.5400390000000 1.0
C      1  0.5334390000000  0.5195490000000  0.4278130000000 1.0
C      1  0.5147380000000  0.4844350000000  0.4256370000000 1.0
C      1  0.5249400000000  0.5433200000000  0.4418810000000 1.0
C      1  0.4801160000000  0.4260860000000  0.4315950000000 1.0
C      1  0.6082870000000  0.5129990000000  0.4880360000000 1.0
C      1  0.5493130000000  0.5314140000000  0.5267350000000 1.0
C      1  0.4796890000000  0.5947820000000  0.5385020000000 1.0
C      1  0.4606380000000  0.4502450000000  0.4409720000000 1.0
C      1  0.4621010000000  0.5791480000000  0.5538930000000 1.0
C      1  0.4709690000000  0.4383050000000  0.4683630000000 1.0
C      1  0.4553190000000  0.4524940000000  0.4909290000000 1.0
C      1  0.4254010000000  0.5520520000000  0.5093820000000 1.0
C      1  0.5614010000000  0.5018680000000  0.4786790000000 1.0
C      1  0.5016680000000  0.4771050000000  0.4562390000000 1.0
C      1  0.5542600000000  0.4196030000000  0.4879720000000 1.0
C      1  0.5292980000000  0.5224700000000  0.4674120000000 1.0
C      1  0.5988820000000  0.5236620000000  0.4625340000000 1.0
C      1  0.4280400000000  0.4680380000000  0.4816000000000 1.0
C      1  0.4339270000000  0.5786000000000  0.5509890000000 1.0
C      1  0.5483420000000  0.4721600000000  0.4077230000000 1.0
C      1  0.4922930000000  0.4988150000000  0.4047970000000 1.0
C      1  0.5320330000000  0.5790170000000  0.4651880000000 1.0
C      1  0.4580950000000  0.5906670000000  0.4886020000000 1.0
C      1  0.5324260000000  0.4470890000000  0.4215130000000 1.0
C      1  0.5366620000000  0.4946690000000  0.4481090000000 1.0
C      1  0.4204550000000  0.5295920000000  0.5561830000000 1.0
C      1  0.5651090000000  0.4356570000000  0.4409570000000 1.0
C      1  0.5367210000000  0.5215900000000  0.3973180000000 1.0
C      1  0.5223960000000  0.4641750000000  0.4785230000000 1.0
C      1  0.5858120000000  0.4449920000000  0.5197190000000 1.0
C      1  0.5086360000000  0.5533510000000  0.4068050000000 1.0
C      1  0.5789950000000  0.5435090000000  0.4545400000000 1.0
C      1  0.5415630000000  0.4844940000000  0.5260200000000 1.0
C      1  0.5439090000000  0.4730440000000  0.6099280000000 1.0
C      1  0.4511180000000  0.5335960000000  0.5493840000000 1.0
C      1  0.5868950000000  0.4602430000000  0.4408460000000 1.0
C      1  0.4770530000000  0.5492280000000  0.5087470000000 1.0
C      1  0.4698800000000  0.6019520000000  0.5123460000000 1.0
C      1  0.5176210000000  0.4739600000000  0.6031470000000 1.0
C      1  0.4052130000000  0.4785190000000  0.5255590000000 1.0
C      1  0.4641620000000  0.4805780000000  0.6283400000000 1.0
C      1  0.4346510000000  0.5048720000000  0.4306700000000 1.0
C      1  0.4538750000000  0.4631100000000  0.5681670000000 1.0
C      1  0.5093240000000  0.4501720000000  0.5044710000000 1.0
C      1  0.5692080000000  0.5874780000000  0.4951740000000 1.0
C      1  0.5268130000000  0.5251440000000  0.5484060000000 1.0
C      1  0.5261990000000  0.5712960000000  0.4384750000000 1.0
C      1  0.5412010000000  0.3921370000000  0.4734030000000 1.0
C      1  0.5302120000000  0.5532760000000  0.4828960000000 1.0
C      1  0.4725300000000  0.5172170000000  0.4545160000000 1.0
C      1  0.5307640000000  0.4930380000000  0.3967520000000 1.0
C      1  0.4842110000000  0.4976560000000  0.4749370000000 1.0
C      1  0.5432470000000  0.5524490000000  0.4076050000000 1.0
C      1  0.4520220000000  0.4443820000000  0.5189660000000 1.0
C      1  0.5289750000000  0.4953540000000  0.4869100000000 1.0
C      1  0.5879750000000  0.5000020000000  0.5379710000000 1.0
C      1  0.4761580000000  0.4996910000000  0.5953810000000 1.0
C      1  0.5483670000000  0.5117250000000  0.6010580000000 1.0
C      1  0.5501130000000  0.4479020000000  0.4758870000000 1.0
C      1  0.5264360000000  0.5820400000000  0.4094680000000 1.0
C      1  0.4098180000000  0.5243450000000  0.4644640000000 1.0
C      1  0.4890720000000  0.4318600000000  0.4964670000000 1.0
C      1  0.4451880000000  0.4918200000000  0.5842550000000 1.0
C      1  0.5757260000000  0.4898590000000  0.4543290000000 1.0
C      1  0.4905200000000  0.5255200000000  0.4052200000000 1.0
C      1  0.5462920000000  0.4639720000000  0.4466390000000 1.0
C      1  0.4592180000000  0.4830290000000  0.5257950000000 1.0
C      1  0.5105290000000  0.5848260000000  0.5454290000000 1.0
C      1  0.5339160000000  0.4054710000000  0.5192920000000 1.0
C      1  0.5632480000000  0.4195740000000  0.5173460000000 1.0
C      1  0.5157380000000  0.4724120000000  0.5716900000000 1.0
C      1  0.4189830000000  0.5668890000000  0.4818530000000 1.0
C      1  0.5598460000000  0.5819820000000  0.5267150000000 1.0
C      1  0.5661710000000  0.4890100000000  0.5617010000000 1.0
C      1  0.4174230000000  0.5001660000000  0.5690650000000 1.0
C      1  0.4623470000000  0.5015920000000  0.4331890000000 1.0
C      1  0.4927450000000  0.4138790000000  0.4609420000000 1.0
C      1  0.4941080000000  0.3996670000000  0.4901110000000 1.0
C      1  0.5339680000000  0.5995310000000  0.5304450000000 1.0
C      1  0.5483090000000  0.5564430000000  0.5082720000000 1.0
C      1  0.4920970000000  0.4262580000000  0.5462120000000 1.0
C      1  0.5175750000000  0.5655100000000  0.5689750000000 1.0
C      1  0.4577420000000  0.4845730000000  0.4859190000000 1.0
C      1  0.5227160000000  0.3922390000000  0.4968800000000 1.0
C      1  0.4335260000000  0.4649050000000  0.5337960000000 1.0
C      1  0.5695360000000  0.5591630000000  0.4803940000000 1.0
C      1  0.5599320000000  0.4704410000000  0.5880190000000 1.0
C      1  0.4437250000000  0.4899940000000  0.6166040000000 1.0
C      1  0.5722830000000  0.5294500000000  0.4918400000000 1.0
C      1  0.4269360000000  0.5363490000000  0.4375150000000 1.0
C      1  0.3968490000000  0.4560120000000  0.5467630000000 1.0
C      1  0.5012550000000  0.5444310000000  0.4855660000000 1.0
C      1  0.4199970000000  0.4824730000000  0.4414330000000 1.0
C      1  0.5653740000000  0.5488280000000  0.4312080000000 1.0
C      1  0.5059880000000  0.5884500000000  0.4939890000000 1.0
C      1  0.4209220000000  0.4681940000000  0.5635940000000 1.0
C      1  0.4766870000000  0.4750630000000  0.4329070000000 1.0
C      1  0.4964750000000  0.5172030000000  0.5227830000000 1.0
C      1  0.4962790000000  0.5477830000000  0.5793110000000 1.0
C      1  0.4333170000000  0.5297100000000  0.4849270000000 1.0
C      1  0.3923400000000  0.5112040000000  0.4904680000000 1.0
C      1  0.4767240000000  0.4549390000000  0.5363180000000 1.0
C      1  0.4540670000000  0.5576190000000  0.4369150000000 1.0
C      1  0.4412840000000  0.4159310000000  0.4831280000000 1.0
C      1  0.5635390000000  0.5558370000000  0.5451890000000 1.0
C      1  0.4734710000000  0.5513650000000  0.5585060000000 1.0
C      1  0.5582690000000  0.4130290000000  0.4554380000000 1.0
C      1  0.4202130000000  0.5622850000000  0.4576080000000 1.0
C      1  0.4926200000000  0.5862000000000  0.4691210000000 1.0
C      1  0.4772220000000  0.4434750000000  0.5928010000000 1.0
C      1  0.4475220000000  0.5067400000000  0.5057690000000 1.0
C      1  0.5313680000000  0.4524030000000  0.5307120000000 1.0
C      1  0.4764530000000  0.3961620000000  0.5503280000000 1.0
C      1  0.4580220000000  0.5608040000000  0.4880820000000 1.0
C      1  0.4522570000000  0.5347870000000  0.5194290000000 1.0
C      1  0.3947090000000  0.4289720000000  0.4684710000000 1.0
C      1  0.5867650000000  0.5329130000000  0.5406090000000 1.0
C      1  0.5510340000000  0.6070690000000  0.4862830000000 1.0
C      1  0.5778800000000  0.4622730000000  0.4730070000000 1.0
C      1  0.5343320000000  0.4942090000000  0.5560260000000 1.0
C      1  0.4632070000000  0.4305310000000  0.5644410000000 1.0
C      1  0.5827130000000  0.4669200000000  0.5444260000000 1.0
C      1  0.4558720000000  0.4152930000000  0.5342250000000 1.0
C      1  0.4646490000000  0.5831430000000  0.4560690000000 1.0
C      1  0.5578070000000  0.5055010000000  0.5123650000000 1.0
C      1  0.4634170000000  0.4104810000000  0.5013750000000 1.0
C      1  0.5715350000000  0.4818760000000  0.4214240000000 1.0
C      1  0.4033370000000  0.4805310000000  0.4955400000000 1.0
C      1  0.3885180000000  0.5215630000000  0.5168280000000 1.0
C      1  0.5010930000000  0.5686280000000  0.5173520000000 1.0
C      1  0.5269280000000  0.6064340000000  0.5023470000000 1.0
C      1  0.5014140000000  0.4412830000000  0.4098580000000 1.0
C      1  0.5439470000000  0.4558960000000  0.5617450000000 1.0
C      1  0.4882470000000  0.4615820000000  0.5660770000000 1.0
C      1  0.5117750000000  0.4817470000000  0.5126230000000 1.0
C      1  0.5138730000000  0.4223420000000  0.4356390000000 1.0
C      1  0.5926730000000  0.4647830000000  0.4983430000000 1.0
C      1  0.4205190000000  0.5573770000000  0.5398840000000 1.0
C      1  0.4312180000000  0.4557180000000  0.4440080000000 1.0
C      1  0.5436970000000  0.5544370000000  0.5695260000000 1.0
C      1  0.4965980000000  0.5171430000000  0.4952310000000 1.0
END
