TITL C-2778428-5639-1386 -0.00250521855836203 125000 -1038.55915698508 0 0 177 (C1) n - 1
REM
REM in /home/nfs/bkarasulu/CARBON/AIRSS/Generating-Clusters/REBO/Only-C1/SD-CG/HFTN-CG
REM
REM
REM
REM
REM
REM ./C.cell (11c1c37f851c82e70ff6c80c92926a4b)
REM
REM compiler GCC version 9.2.1 20190827 (Red Hat 9.2.1-1)
REM options -cpp -mtune=generic -march=x86-64 -g -O0 -fpre-include=/usr/include/finclude/math-vector-fortran.h
REM seed 1829571034 -2046750810 1174128336 891182970 1975846408 1928548142 -731487925 -883346934 -749307437 -1091785339 -730786209 -402703452 -597570093 -758460145 -426203760 -160065865 -68041329 -510946504 -779283209 -867540656 890454135 -468542899 1929499214 1127998654 -1092461626 -1104296782 -1102184153 -1489083711 1772090164 7210208 -1867460401 -1747605780 1659628355
REM
CELL 1.54180   50.00000   50.00000   50.00000   90.00000   90.00000   90.00000
LATT -1
SFAC C  
C      1  0.5268080000000  0.5103890000000  0.4983520000000 1.0
C      1  0.4901660000000  0.5009620000000  0.4741720000000 1.0
C      1  0.4277270000000  0.4351660000000  0.5561760000000 1.0
C      1  0.4882970000000  0.5194350000000  0.5335820000000 1.0
C      1  0.4967940000000  0.4816500000000  0.4960800000000 1.0
C      1  0.4137430000000  0.4794290000000  0.4340280000000 1.0
C      1  0.5272840000000  0.4590830000000  0.4684860000000 1.0
C      1  0.6007400000000  0.5154240000000  0.5470010000000 1.0
C      1  0.4113530000000  0.5405090000000  0.5474650000000 1.0
C      1  0.4306760000000  0.5821920000000  0.5254210000000 1.0
C      1  0.5148180000000  0.4023630000000  0.4608100000000 1.0
C      1  0.4810310000000  0.4539530000000  0.4887410000000 1.0
C      1  0.5908300000000  0.4989910000000  0.4175300000000 1.0
C      1  0.4637920000000  0.5438570000000  0.4291590000000 1.0
C      1  0.5568230000000  0.5273370000000  0.4360170000000 1.0
C      1  0.5122420000000  0.4760470000000  0.5233820000000 1.0
C      1  0.5265340000000  0.5038640000000  0.5695020000000 1.0
C      1  0.3893000000000  0.5043390000000  0.5105200000000 1.0
C      1  0.5105310000000  0.5459060000000  0.4453060000000 1.0
C      1  0.4722240000000  0.4233950000000  0.4173140000000 1.0
C      1  0.4444030000000  0.4053580000000  0.5032960000000 1.0
C      1  0.5331420000000  0.4285230000000  0.5672760000000 1.0
C      1  0.5540340000000  0.5945700000000  0.4969070000000 1.0
C      1  0.5999860000000  0.4843160000000  0.5073270000000 1.0
C      1  0.5657660000000  0.5135690000000  0.5277160000000 1.0
C      1  0.4019000000000  0.5103170000000  0.5420980000000 1.0
C      1  0.4048680000000  0.4679260000000  0.5319840000000 1.0
C      1  0.4117810000000  0.5215190000000  0.4537710000000 1.0
C      1  0.4803980000000  0.5183860000000  0.5986530000000 1.0
C      1  0.5142240000000  0.3979170000000  0.5259530000000 1.0
C      1  0.5057780000000  0.6303610000000  0.4677090000000 1.0
C      1  0.4936190000000  0.5494750000000  0.5942540000000 1.0
C      1  0.5444330000000  0.4044140000000  0.5222840000000 1.0
C      1  0.5312230000000  0.6059520000000  0.5422200000000 1.0
C      1  0.4467030000000  0.6004190000000  0.5384210000000 1.0
C      1  0.5642900000000  0.5090200000000  0.4149770000000 1.0
C      1  0.5154600000000  0.4965890000000  0.4275340000000 1.0
C      1  0.5284400000000  0.4498590000000  0.5195030000000 1.0
C      1  0.4238730000000  0.4912290000000  0.5248110000000 1.0
C      1  0.5584730000000  0.5890570000000  0.4463940000000 1.0
C      1  0.4901750000000  0.5426140000000  0.5544300000000 1.0
C      1  0.4473910000000  0.4371460000000  0.4509120000000 1.0
C      1  0.4725010000000  0.4776400000000  0.5197420000000 1.0
C      1  0.4345190000000  0.4108410000000  0.5689930000000 1.0
C      1  0.4478010000000  0.3911950000000  0.5527540000000 1.0
C      1  0.5756590000000  0.4335790000000  0.4902830000000 1.0
C      1  0.4648490000000  0.4127100000000  0.4770690000000 1.0
C      1  0.4576250000000  0.4774310000000  0.4908930000000 1.0
C      1  0.4887470000000  0.5815300000000  0.5224860000000 1.0
C      1  0.6001540000000  0.4855500000000  0.4394330000000 1.0
C      1  0.4305960000000  0.5228420000000  0.5176400000000 1.0
C      1  0.4524400000000  0.4960210000000  0.3987800000000 1.0
C      1  0.3906150000000  0.4797220000000  0.4926380000000 1.0
C      1  0.4444010000000  0.4393750000000  0.4832060000000 1.0
C      1  0.4863810000000  0.5532300000000  0.4920920000000 1.0
C      1  0.5041710000000  0.5693780000000  0.4768260000000 1.0
C      1  0.5722730000000  0.4812040000000  0.5874560000000 1.0
C      1  0.5255670000000  0.4457190000000  0.4090550000000 1.0
C      1  0.5809810000000  0.5780230000000  0.5457140000000 1.0
C      1  0.4227190000000  0.5142150000000  0.4802250000000 1.0
C      1  0.5864610000000  0.5533710000000  0.4706010000000 1.0
C      1  0.4263490000000  0.5059240000000  0.4165950000000 1.0
C      1  0.5614600000000  0.5564650000000  0.4483070000000 1.0
C      1  0.4233030000000  0.4613550000000  0.4788910000000 1.0
C      1  0.4151380000000  0.5702450000000  0.4687220000000 1.0
C      1  0.5915680000000  0.5361170000000  0.5273530000000 1.0
C      1  0.5482130000000  0.4793180000000  0.5658980000000 1.0
C      1  0.5276070000000  0.5468160000000  0.5914980000000 1.0
C      1  0.5162130000000  0.4193010000000  0.4373630000000 1.0
C      1  0.5739340000000  0.5122040000000  0.4974100000000 1.0
C      1  0.5068140000000  0.5633970000000  0.5426300000000 1.0
C      1  0.4944980000000  0.4167550000000  0.4834290000000 1.0
C      1  0.4639300000000  0.5648390000000  0.5116760000000 1.0
C      1  0.5549850000000  0.6043350000000  0.4661240000000 1.0
C      1  0.4644040000000  0.4994500000000  0.5384040000000 1.0
C      1  0.4684480000000  0.4696390000000  0.4413760000000 1.0
C      1  0.5582010000000  0.4584210000000  0.5194970000000 1.0
C      1  0.4397120000000  0.5509640000000  0.5315630000000 1.0
C      1  0.4973670000000  0.4634150000000  0.4146510000000 1.0
C      1  0.5168940000000  0.5074810000000  0.3956170000000 1.0
C      1  0.4368480000000  0.4345070000000  0.5290120000000 1.0
C      1  0.5454640000000  0.4937700000000  0.3990910000000 1.0
C      1  0.4326130000000  0.5380610000000  0.4240180000000 1.0
C      1  0.4582740000000  0.4982150000000  0.5932380000000 1.0
C      1  0.3887010000000  0.5570900000000  0.5346260000000 1.0
C      1  0.5609520000000  0.4584990000000  0.4621740000000 1.0
C      1  0.4151940000000  0.4885640000000  0.5646060000000 1.0
C      1  0.5605910000000  0.4252260000000  0.4607910000000 1.0
C      1  0.5929450000000  0.4628870000000  0.5720710000000 1.0
C      1  0.5454100000000  0.4439180000000  0.4362660000000 1.0
C      1  0.5344640000000  0.5516340000000  0.5402610000000 1.0
C      1  0.5202520000000  0.5298070000000  0.4212150000000 1.0
C      1  0.5115840000000  0.5359350000000  0.3827280000000 1.0
C      1  0.5376570000000  0.5245290000000  0.5270270000000 1.0
C      1  0.5953620000000  0.5220580000000  0.5742860000000 1.0
C      1  0.4486970000000  0.3647780000000  0.5590400000000 1.0
C      1  0.5613280000000  0.5321380000000  0.4799900000000 1.0
C      1  0.4793740000000  0.4458370000000  0.4601360000000 1.0
C      1  0.5028240000000  0.5621670000000  0.3998810000000 1.0
C      1  0.5842050000000  0.4413190000000  0.5249820000000 1.0
C      1  0.4725120000000  0.5283520000000  0.4770270000000 1.0
C      1  0.5049740000000  0.5944270000000  0.5564870000000 1.0
C      1  0.5407590000000  0.4871070000000  0.4808920000000 1.0
C      1  0.4719710000000  0.4771340000000  0.4023320000000 1.0
C      1  0.4107970000000  0.4576730000000  0.5590160000000 1.0
C      1  0.5551560000000  0.5964130000000  0.5544020000000 1.0
C      1  0.5000110000000  0.5273660000000  0.5057130000000 1.0
C      1  0.5176340000000  0.3946490000000  0.4942600000000 1.0
C      1  0.5067720000000  0.4497400000000  0.4443580000000 1.0
C      1  0.4682730000000  0.5195970000000  0.4467860000000 1.0
C      1  0.4993500000000  0.5171190000000  0.5718690000000 1.0
C      1  0.4397230000000  0.5097200000000  0.5559910000000 1.0
C      1  0.5209010000000  0.4373720000000  0.4904330000000 1.0
C      1  0.4969420000000  0.4723890000000  0.5534940000000 1.0
C      1  0.5442210000000  0.3994190000000  0.4729070000000 1.0
C      1  0.4396610000000  0.5644370000000  0.4905420000000 1.0
C      1  0.3981920000000  0.4509070000000  0.5077730000000 1.0
C      1  0.4777820000000  0.4939190000000  0.5672430000000 1.0
C      1  0.4095870000000  0.5682300000000  0.5024130000000 1.0
C      1  0.6114010000000  0.5335890000000  0.4756650000000 1.0
C      1  0.4002520000000  0.5460240000000  0.4524250000000 1.0
C      1  0.6050670000000  0.4332220000000  0.5009790000000 1.0
C      1  0.6058160000000  0.5110190000000  0.4906880000000 1.0
C      1  0.4001370000000  0.5366070000000  0.5096270000000 1.0
C      1  0.4026730000000  0.4799020000000  0.4609420000000 1.0
C      1  0.5511080000000  0.5623900000000  0.4863870000000 1.0
C      1  0.5736660000000  0.5123550000000  0.5897900000000 1.0
C      1  0.5348150000000  0.4759320000000  0.4332510000000 1.0
C      1  0.5182540000000  0.4285720000000  0.5402110000000 1.0
C      1  0.5048160000000  0.5988940000000  0.5036590000000 1.0
C      1  0.4747250000000  0.5941900000000  0.4646090000000 1.0
C      1  0.5809810000000  0.5736470000000  0.4971870000000 1.0
C      1  0.5103970000000  0.4589840000000  0.5986480000000 1.0
C      1  0.5160200000000  0.5040380000000  0.5380260000000 1.0
C      1  0.5117770000000  0.5740510000000  0.5808100000000 1.0
C      1  0.4630400000000  0.4091320000000  0.4432110000000 1.0
C      1  0.4436350000000  0.5328570000000  0.5698020000000 1.0
C      1  0.5439110000000  0.4380080000000  0.5872880000000 1.0
C      1  0.5484680000000  0.4196670000000  0.4983500000000 1.0
C      1  0.5378700000000  0.4965870000000  0.6004040000000 1.0
C      1  0.4291780000000  0.4894850000000  0.4949970000000 1.0
C      1  0.5540710000000  0.5644190000000  0.5560400000000 1.0
C      1  0.4619910000000  0.4400090000000  0.5123470000000 1.0
C      1  0.5228070000000  0.4746300000000  0.6208400000000 1.0
C      1  0.5950470000000  0.4486220000000  0.5519150000000 1.0
C      1  0.5310240000000  0.5647780000000  0.4622440000000 1.0
C      1  0.5451410000000  0.4666580000000  0.3947720000000 1.0
C      1  0.5870270000000  0.4728160000000  0.4592620000000 1.0
C      1  0.4165170000000  0.4248040000000  0.5074840000000 1.0
C      1  0.5416770000000  0.5152410000000  0.4618020000000 1.0
C      1  0.4736620000000  0.6000680000000  0.5440400000000 1.0
C      1  0.5640930000000  0.4820510000000  0.5401570000000 1.0
C      1  0.4450170000000  0.4795400000000  0.4596760000000 1.0
C      1  0.5497630000000  0.4642700000000  0.6028720000000 1.0
C      1  0.5140260000000  0.5307220000000  0.4741430000000 1.0
C      1  0.5469040000000  0.5275250000000  0.5943540000000 1.0
C      1  0.4997890000000  0.4235480000000  0.4116160000000 1.0
C      1  0.5957780000000  0.4888550000000  0.5364990000000 1.0
C      1  0.4458270000000  0.5337930000000  0.4900260000000 1.0
C      1  0.4904660000000  0.5608600000000  0.4268910000000 1.0
C      1  0.4945760000000  0.6081300000000  0.4790330000000 1.0
C      1  0.5306610000000  0.6042770000000  0.5138850000000 1.0
C      1  0.5344290000000  0.5525460000000  0.3998110000000 1.0
C      1  0.4842470000000  0.4496370000000  0.5342380000000 1.0
C      1  0.4888880000000  0.4936510000000  0.4420620000000 1.0
C      1  0.4596060000000  0.4504670000000  0.4153520000000 1.0
C      1  0.4330150000000  0.5656760000000  0.4412760000000 1.0
C      1  0.5677700000000  0.4788150000000  0.4965060000000 1.0
C      1  0.4599790000000  0.4018870000000  0.5284160000000 1.0
C      1  0.4410050000000  0.5058820000000  0.4460980000000 1.0
C      1  0.4307920000000  0.4561750000000  0.4305650000000 1.0
C      1  0.4868990000000  0.4163170000000  0.5328470000000 1.0
C      1  0.4657850000000  0.5469520000000  0.5749760000000 1.0
C      1  0.4320160000000  0.4933710000000  0.5916250000000 1.0
C      1  0.5909660000000  0.5637000000000  0.5234830000000 1.0
C      1  0.4649170000000  0.5752540000000  0.4430880000000 1.0
C      1  0.5182920000000  0.4651520000000  0.5730610000000 1.0
END
