TITL C-2778433-5640-1442 -0.000733608069509183 125000 -671.328825206399 0 0 116 (C1) n - 1
REM
REM in /home/nfs/bkarasulu/CARBON/AIRSS/Generating-Clusters/REBO/Only-C1/SD-CG/HFTN-CG
REM
REM
REM
REM
REM
REM ./C.cell (11c1c37f851c82e70ff6c80c92926a4b)
REM
REM compiler GCC version 9.2.1 20190827 (Red Hat 9.2.1-1)
REM options -cpp -mtune=generic -march=x86-64 -g -O0 -fpre-include=/usr/include/finclude/math-vector-fortran.h
REM seed 19994134 -1426709259 840219630 1165830544 520283255 308960404 1237165888 1560905610 1858482839 -2103593083 -1298070137 979046615 -1538940746 -382510518 -327310155 988273735 -1889300936 -967732446 -677693920 -1289575600 -930520495 24831887 -248699820 -1988704125 126713947 1686424338 -1003387805 69212778 -933828691 414129030 -1847368884 -1370965284 -1652152660
REM
CELL 1.54180   50.00000   50.00000   50.00000   90.00000   90.00000   90.00000
LATT -1
SFAC C  
C      1  0.4497780000000  0.5039520000000  0.5282360000000 1.0
C      1  0.4993700000000  0.5314550000000  0.4122290000000 1.0
C      1  0.4455450000000  0.4377730000000  0.5017240000000 1.0
C      1  0.4409930000000  0.5127970000000  0.4150090000000 1.0
C      1  0.5583330000000  0.5729950000000  0.4949770000000 1.0
C      1  0.5033320000000  0.5749330000000  0.4668580000000 1.0
C      1  0.4470540000000  0.5718020000000  0.5108330000000 1.0
C      1  0.4949480000000  0.4471990000000  0.5434770000000 1.0
C      1  0.4730390000000  0.4744110000000  0.4460800000000 1.0
C      1  0.4701480000000  0.5290570000000  0.5288640000000 1.0
C      1  0.4536910000000  0.4344700000000  0.5774290000000 1.0
C      1  0.4946460000000  0.4840730000000  0.5104670000000 1.0
C      1  0.5346250000000  0.5871520000000  0.4996340000000 1.0
C      1  0.4536590000000  0.4838190000000  0.4263380000000 1.0
C      1  0.4753590000000  0.4240610000000  0.5599840000000 1.0
C      1  0.5298330000000  0.4958380000000  0.5250920000000 1.0
C      1  0.5195890000000  0.4066110000000  0.4964550000000 1.0
C      1  0.4620700000000  0.4534190000000  0.4650820000000 1.0
C      1  0.4370600000000  0.4417330000000  0.4624380000000 1.0
C      1  0.5021380000000  0.4565650000000  0.4967240000000 1.0
C      1  0.4134390000000  0.5239730000000  0.4904990000000 1.0
C      1  0.5109670000000  0.5584060000000  0.4215340000000 1.0
C      1  0.5843680000000  0.5630920000000  0.5059400000000 1.0
C      1  0.4553770000000  0.4770170000000  0.5081660000000 1.0
C      1  0.4207110000000  0.5385200000000  0.4627940000000 1.0
C      1  0.5454820000000  0.5674290000000  0.5598650000000 1.0
C      1  0.4987170000000  0.4077180000000  0.5425710000000 1.0
C      1  0.4887610000000  0.4499720000000  0.4355060000000 1.0
C      1  0.5531920000000  0.4347490000000  0.4698800000000 1.0
C      1  0.5905230000000  0.5398270000000  0.5188150000000 1.0
C      1  0.5788500000000  0.5182730000000  0.5321600000000 1.0
C      1  0.4646040000000  0.4741360000000  0.5503170000000 1.0
C      1  0.4729560000000  0.5024500000000  0.4075170000000 1.0
C      1  0.4655120000000  0.5351020000000  0.4153750000000 1.0
C      1  0.4151130000000  0.4750460000000  0.4627120000000 1.0
C      1  0.5077120000000  0.4289380000000  0.5686440000000 1.0
C      1  0.5206360000000  0.4701490000000  0.5424100000000 1.0
C      1  0.5494900000000  0.4638910000000  0.4969620000000 1.0
C      1  0.4563380000000  0.5327340000000  0.5598860000000 1.0
C      1  0.5048640000000  0.5409530000000  0.5468340000000 1.0
C      1  0.5121490000000  0.5062510000000  0.4977780000000 1.0
C      1  0.4185830000000  0.5160440000000  0.5210530000000 1.0
C      1  0.5549420000000  0.5783960000000  0.5342450000000 1.0
C      1  0.5265560000000  0.4659410000000  0.4819940000000 1.0
C      1  0.4708040000000  0.4156040000000  0.4958480000000 1.0
C      1  0.5695090000000  0.5299910000000  0.4409560000000 1.0
C      1  0.4592320000000  0.5550500000000  0.4860770000000 1.0
C      1  0.5600110000000  0.4791720000000  0.4382060000000 1.0
C      1  0.5446850000000  0.4755990000000  0.5734130000000 1.0
C      1  0.4911300000000  0.5536560000000  0.4866400000000 1.0
C      1  0.4789760000000  0.5200110000000  0.5818730000000 1.0
C      1  0.5999580000000  0.5029890000000  0.4890670000000 1.0
C      1  0.4269260000000  0.4627590000000  0.5164180000000 1.0
C      1  0.5133310000000  0.4619840000000  0.5751720000000 1.0
C      1  0.4276630000000  0.5014310000000  0.4758390000000 1.0
C      1  0.4235230000000  0.4932410000000  0.4370570000000 1.0
C      1  0.4172630000000  0.4511150000000  0.4871060000000 1.0
C      1  0.5090450000000  0.5722300000000  0.5087670000000 1.0
C      1  0.5292070000000  0.5255640000000  0.5744850000000 1.0
C      1  0.4888650000000  0.4960340000000  0.4587330000000 1.0
C      1  0.5703620000000  0.4584870000000  0.4633550000000 1.0
C      1  0.5874680000000  0.4729930000000  0.4890470000000 1.0
C      1  0.5692890000000  0.5130900000000  0.4936690000000 1.0
C      1  0.4156200000000  0.4850800000000  0.5348630000000 1.0
C      1  0.4922070000000  0.5240040000000  0.4428970000000 1.0
C      1  0.5155410000000  0.5987960000000  0.4796400000000 1.0
C      1  0.4944630000000  0.4892900000000  0.5840050000000 1.0
C      1  0.5283900000000  0.4332230000000  0.4554620000000 1.0
C      1  0.5387640000000  0.4322570000000  0.5203970000000 1.0
C      1  0.5715220000000  0.4635020000000  0.5506810000000 1.0
C      1  0.5742550000000  0.4680350000000  0.5186330000000 1.0
C      1  0.5023320000000  0.5418380000000  0.5810640000000 1.0
C      1  0.5770000000000  0.5148230000000  0.5614660000000 1.0
C      1  0.5596700000000  0.4968570000000  0.5188460000000 1.0
C      1  0.4455280000000  0.5531550000000  0.4596820000000 1.0
C      1  0.4816130000000  0.4152020000000  0.4677360000000 1.0
C      1  0.4746710000000  0.5620840000000  0.5220840000000 1.0
C      1  0.4272990000000  0.5641660000000  0.5283940000000 1.0
C      1  0.4980950000000  0.5793430000000  0.5386750000000 1.0
C      1  0.4760960000000  0.4248130000000  0.4411980000000 1.0
C      1  0.4096320000000  0.4445050000000  0.4484860000000 1.0
C      1  0.5375790000000  0.5083060000000  0.4510420000000 1.0
C      1  0.5275780000000  0.4820450000000  0.4314360000000 1.0
C      1  0.5105840000000  0.4145350000000  0.4694600000000 1.0
C      1  0.4725500000000  0.4554620000000  0.4933990000000 1.0
C      1  0.5176650000000  0.5210890000000  0.5343330000000 1.0
C      1  0.4292350000000  0.5390660000000  0.5403460000000 1.0
C      1  0.5110040000000  0.4396170000000  0.5184720000000 1.0
C      1  0.5152280000000  0.5686930000000  0.5644900000000 1.0
C      1  0.4520070000000  0.4611950000000  0.5769980000000 1.0
C      1  0.5532930000000  0.5358830000000  0.5577250000000 1.0
C      1  0.4604410000000  0.4927760000000  0.5848790000000 1.0
C      1  0.4766400000000  0.5580990000000  0.5553670000000 1.0
C      1  0.5738220000000  0.4882900000000  0.5702090000000 1.0
C      1  0.4884670000000  0.5706660000000  0.4390450000000 1.0
C      1  0.5061340000000  0.4980910000000  0.4132460000000 1.0
C      1  0.5546410000000  0.5399580000000  0.4925810000000 1.0
C      1  0.5109730000000  0.6252590000000  0.4741870000000 1.0
C      1  0.4530230000000  0.5011930000000  0.4885530000000 1.0
C      1  0.4944180000000  0.4039640000000  0.5140320000000 1.0
C      1  0.5748840000000  0.5073390000000  0.4317670000000 1.0
C      1  0.5458690000000  0.4507920000000  0.5407840000000 1.0
C      1  0.5165880000000  0.4530990000000  0.4386490000000 1.0
C      1  0.5257110000000  0.4993830000000  0.5788400000000 1.0
C      1  0.4384230000000  0.4935370000000  0.5586800000000 1.0
C      1  0.5447920000000  0.5386640000000  0.4605810000000 1.0
C      1  0.5492540000000  0.4197570000000  0.4951650000000 1.0
C      1  0.4635920000000  0.5258240000000  0.4977550000000 1.0
C      1  0.4841740000000  0.4846300000000  0.5347420000000 1.0
C      1  0.4971840000000  0.5252250000000  0.4762270000000 1.0
C      1  0.4632270000000  0.5567330000000  0.4373150000000 1.0
C      1  0.5252790000000  0.5590680000000  0.4489530000000 1.0
C      1  0.5520910000000  0.5482760000000  0.5256660000000 1.0
C      1  0.4121060000000  0.5232670000000  0.4402060000000 1.0
C      1  0.5676700000000  0.4927070000000  0.4682510000000 1.0
C      1  0.5188720000000  0.4924190000000  0.4692950000000 1.0
END
