TITL C-2778433-5640-447 4.55957708359016e-08 125000 -34.3389368417116 0 0 7 (C2v) n - 1
REM
REM in /home/nfs/bkarasulu/CARBON/AIRSS/Generating-Clusters/REBO/Only-C1/SD-CG/HFTN-CG
REM
REM
REM
REM
REM
REM ./C.cell (11c1c37f851c82e70ff6c80c92926a4b)
REM
REM compiler GCC version 9.2.1 20190827 (Red Hat 9.2.1-1)
REM options -cpp -mtune=generic -march=x86-64 -g -O0 -fpre-include=/usr/include/finclude/math-vector-fortran.h
REM seed 668958538 456782691 1674647725 85259148 -1112400531 -1278146179 -767123232 2066042467 -593079652 -700667622 88205266 1057790801 -1796972936 617690505 -1521272803 1951647529 2001619537 312183138 2059074646 760721305 1208446422 -682713850 288597311 -320602755 2003586427 -1308455892 494556189 -206982596 -908832765 2106898012 562425852 -1687803264 -520885365
REM
CELL 1.54180   50.00000   50.00000   50.00000   90.00000   90.00000   90.00000
LATT -1
SFAC C  
C      1  0.4828890000000  0.4451910000000  0.5219800000000 1.0
C      1  0.4980280000000  0.5247560000000  0.5052690000000 1.0
C      1  0.5129020000000  0.5102550000000  0.4806900000000 1.0
C      1  0.4901830000000  0.4685540000000  0.5126110000000 1.0
C      1  0.4977240000000  0.4927090000000  0.5029240000000 1.0
C      1  0.4911340000000  0.5468190000000  0.5180120000000 1.0
C      1  0.5271400000000  0.5117180000000  0.4585130000000 1.0
END
