TITL C-2778429-3646-259 0.134735471400255 125000 -654.133084041939 0 0 113 (C1) n - 1
REM
REM in /home/nfs/bkarasulu/CARBON/AIRSS/Generating-Clusters/REBO/Only-C1/SD-CG/HFTN-CG
REM
REM
REM
REM
REM
REM ./C.cell (11c1c37f851c82e70ff6c80c92926a4b)
REM
REM compiler GCC version 9.2.1 20190827 (Red Hat 9.2.1-1)
REM options -cpp -mtune=generic -march=x86-64 -g -O0 -fpre-include=/usr/include/finclude/math-vector-fortran.h
REM seed -1918974810 2114694223 -1998337829 -947009320 -872539148 -1914313230 96624404 1366897042 -825032553 1148024008 206608253 355846137 -1340731845 -1490024351 -178619365 -173094750 56484769 763889400 441858870 902202369 -1159024233 618612519 -189323167 -529000756 1830624151 1559692500 -1222815857 521488357 1197549635 825563519 -1997029987 865369194 -330783123
REM
CELL 1.54180   50.00000   50.00000   50.00000   90.00000   90.00000   90.00000
LATT -1
SFAC C  
C      1  0.4293030000000  0.5009500000000  0.5651100000000 1.0
C      1  0.5217960000000  0.5397730000000  0.5313730000000 1.0
C      1  0.5120730000000  0.4276810000000  0.5682920000000 1.0
C      1  0.5689570000000  0.5659050000000  0.5144240000000 1.0
C      1  0.4343490000000  0.5551760000000  0.4861500000000 1.0
C      1  0.5574770000000  0.5557610000000  0.5396530000000 1.0
C      1  0.5314520000000  0.5315470000000  0.4996750000000 1.0
C      1  0.4913930000000  0.4984700000000  0.5085190000000 1.0
C      1  0.5168080000000  0.5575790000000  0.4546170000000 1.0
C      1  0.5571880000000  0.4406510000000  0.5298630000000 1.0
C      1  0.4732180000000  0.5350940000000  0.4184810000000 1.0
C      1  0.5438680000000  0.4579210000000  0.5485110000000 1.0
C      1  0.4438970000000  0.4396500000000  0.5138540000000 1.0
C      1  0.5800320000000  0.5198970000000  0.5225140000000 1.0
C      1  0.4253400000000  0.4511280000000  0.4893500000000 1.0
C      1  0.5480610000000  0.4924610000000  0.5183540000000 1.0
C      1  0.4420120000000  0.4783280000000  0.5577510000000 1.0
C      1  0.5272610000000  0.5108420000000  0.5812930000000 1.0
C      1  0.4976920000000  0.4939700000000  0.5416470000000 1.0
C      1  0.5720240000000  0.4769250000000  0.5220110000000 1.0
C      1  0.5476860000000  0.5262360000000  0.4216340000000 1.0
C      1  0.4513770000000  0.4677980000000  0.4434970000000 1.0
C      1  0.5333570000000  0.4423920000000  0.4243570000000 1.0
C      1  0.4909240000000  0.5467450000000  0.4672370000000 1.0
C      1  0.4574560000000  0.4747890000000  0.4172170000000 1.0
C      1  0.4709430000000  0.4111740000000  0.5412040000000 1.0
C      1  0.4690600000000  0.5466280000000  0.4426590000000 1.0
C      1  0.5130190000000  0.4425080000000  0.4690570000000 1.0
C      1  0.4787860000000  0.4496750000000  0.5709620000000 1.0
C      1  0.4574410000000  0.5070620000000  0.4123140000000 1.0
C      1  0.5480930000000  0.5463160000000  0.4474390000000 1.0
C      1  0.5209600000000  0.5454300000000  0.4235070000000 1.0
C      1  0.5004390000000  0.4754650000000  0.4877910000000 1.0
C      1  0.5496740000000  0.4266660000000  0.4687420000000 1.0
C      1  0.5267950000000  0.5084030000000  0.5367750000000 1.0
C      1  0.5465520000000  0.5572560000000  0.4906030000000 1.0
C      1  0.5716480000000  0.4936130000000  0.4482830000000 1.0
C      1  0.5297480000000  0.4005920000000  0.5021390000000 1.0
C      1  0.6017630000000  0.4399480000000  0.5048550000000 1.0
C      1  0.4256990000000  0.5277940000000  0.5678480000000 1.0
C      1  0.5036330000000  0.5857720000000  0.4969850000000 1.0
C      1  0.5036880000000  0.5141560000000  0.3879160000000 1.0
C      1  0.5158860000000  0.4248850000000  0.4424280000000 1.0
C      1  0.5601300000000  0.4786420000000  0.5600340000000 1.0
C      1  0.5491330000000  0.5065110000000  0.5606330000000 1.0
C      1  0.4839960000000  0.4097460000000  0.5176680000000 1.0
C      1  0.5045750000000  0.5476750000000  0.5591500000000 1.0
C      1  0.5168410000000  0.5362770000000  0.5823250000000 1.0
C      1  0.5289480000000  0.5722700000000  0.5392160000000 1.0
C      1  0.5519230000000  0.4795810000000  0.4673930000000 1.0
C      1  0.5758170000000  0.4503880000000  0.5057650000000 1.0
C      1  0.4323940000000  0.5519390000000  0.5255790000000 1.0
C      1  0.5021340000000  0.5262420000000  0.4919730000000 1.0
C      1  0.4415970000000  0.5182790000000  0.4374490000000 1.0
C      1  0.5105810000000  0.5869980000000  0.5595090000000 1.0
C      1  0.4301050000000  0.5519610000000  0.5566970000000 1.0
C      1  0.4225520000000  0.5286060000000  0.5045010000000 1.0
C      1  0.4997210000000  0.4814080000000  0.4561840000000 1.0
C      1  0.5519610000000  0.6232730000000  0.4539790000000 1.0
C      1  0.5729160000000  0.5209710000000  0.4926070000000 1.0
C      1  0.5257880000000  0.4695680000000  0.4149190000000 1.0
C      1  0.4792090000000  0.5055130000000  0.5750610000000 1.0
C      1  0.4301260000000  0.5793860000000  0.5059430000000 1.0
C      1  0.4557240000000  0.5735400000000  0.5498260000000 1.0
C      1  0.4357990000000  0.5080540000000  0.4854770000000 1.0
C      1  0.4703880000000  0.5277330000000  0.5647440000000 1.0
C      1  0.4612700000000  0.4318840000000  0.5576480000000 1.0
C      1  0.4625490000000  0.4892730000000  0.4954830000000 1.0
C      1  0.4694760000000  0.4827200000000  0.4635490000000 1.0
C      1  0.4231190000000  0.5019980000000  0.4569030000000 1.0
C      1  0.4728120000000  0.4785810000000  0.5592080000000 1.0
C      1  0.4646770000000  0.4124990000000  0.4575930000000 1.0
C      1  0.4369670000000  0.4477990000000  0.5454490000000 1.0
C      1  0.4600770000000  0.5146780000000  0.4648710000000 1.0
C      1  0.4933470000000  0.4550690000000  0.5341240000000 1.0
C      1  0.4789560000000  0.5783730000000  0.5055920000000 1.0
C      1  0.4112580000000  0.4741920000000  0.4932640000000 1.0
C      1  0.4751210000000  0.4068700000000  0.4892520000000 1.0
C      1  0.4575300000000  0.5556360000000  0.4700710000000 1.0
C      1  0.4422480000000  0.4792560000000  0.5179390000000 1.0
C      1  0.5047010000000  0.4837950000000  0.4278850000000 1.0
C      1  0.4986060000000  0.5369690000000  0.4067410000000 1.0
C      1  0.4976440000000  0.4062230000000  0.4633690000000 1.0
C      1  0.5403740000000  0.6027800000000  0.4638300000000 1.0
C      1  0.5418710000000  0.4183530000000  0.5245760000000 1.0
C      1  0.4667130000000  0.5430180000000  0.5439860000000 1.0
C      1  0.5103080000000  0.4239480000000  0.5156130000000 1.0
C      1  0.5071350000000  0.4482260000000  0.4968760000000 1.0
C      1  0.5458650000000  0.5024950000000  0.4889000000000 1.0
C      1  0.5007180000000  0.4619560000000  0.5854190000000 1.0
C      1  0.5709680000000  0.5417500000000  0.4656400000000 1.0
C      1  0.5609930000000  0.5028310000000  0.4235460000000 1.0
C      1  0.5862090000000  0.5133880000000  0.4627850000000 1.0
C      1  0.5156990000000  0.4487430000000  0.5508440000000 1.0
C      1  0.4474940000000  0.4258940000000  0.4836880000000 1.0
C      1  0.5544770000000  0.5904890000000  0.5012660000000 1.0
C      1  0.4689640000000  0.4591690000000  0.5244590000000 1.0
C      1  0.4138490000000  0.4986040000000  0.5169220000000 1.0
C      1  0.5063770000000  0.4904970000000  0.5771710000000 1.0
C      1  0.5327370000000  0.4591940000000  0.4527900000000 1.0
C      1  0.4856240000000  0.5724020000000  0.5630160000000 1.0
C      1  0.4241470000000  0.4739720000000  0.4505420000000 1.0
C      1  0.5647400000000  0.5289420000000  0.5438070000000 1.0
C      1  0.5877400000000  0.4784320000000  0.5480550000000 1.0
C      1  0.4134210000000  0.4684310000000  0.5326490000000 1.0
C      1  0.5298620000000  0.4062060000000  0.4744510000000 1.0
C      1  0.4545810000000  0.5868270000000  0.5219270000000 1.0
C      1  0.5265570000000  0.5783420000000  0.4755780000000 1.0
C      1  0.5276770000000  0.5897880000000  0.5138810000000 1.0
C      1  0.4637330000000  0.5491430000000  0.5125460000000 1.0
C      1  0.4699730000000  0.5267290000000  0.4942570000000 1.0
C      1  0.5608880000000  0.4497570000000  0.4792460000000 1.0
C      1  0.4887670000000  0.4983040000000  0.4092680000000 1.0
END
