TITL C-2778425-5191-274 -1.47062895897806 125000 -1114.08969235484 0 0 191 (C1) n - 1
REM
REM in /home/nfs/bkarasulu/CARBON/AIRSS/Generating-Clusters/REBO/Only-C1/SD-CG/HFTN-CG
REM
REM
REM
REM
REM
REM ./C.cell (11c1c37f851c82e70ff6c80c92926a4b)
REM
REM compiler GCC version 9.2.1 20190827 (Red Hat 9.2.1-1)
REM options -cpp -mtune=generic -march=x86-64 -g -O0 -fpre-include=/usr/include/finclude/math-vector-fortran.h
REM seed -318541537 -555485264 -153660054 -825007488 -859096824 1271283895 2091779852 82890091 206313751 820610757 1542975326 -1762460281 -652978427 -1029475328 -591897081 2093830784 550209125 -1083289304 -355174379 -1831366017 -764838808 908698736 648098146 -354091409 794589515 -146026327 -1175080902 -440816012 1078862044 971397943 578118279 216204144 -1481756130
REM
CELL 1.54180   50.00000   50.00000   50.00000   90.00000   90.00000   90.00000
LATT -1
SFAC C  
C      1  0.5576280000000  0.4521170000000  0.4388290000000 1.0
C      1  0.3856500000000  0.5212360000000  0.5234880000000 1.0
C      1  0.5204440000000  0.4210760000000  0.4765190000000 1.0
C      1  0.5428680000000  0.5824820000000  0.5579530000000 1.0
C      1  0.4537690000000  0.5596730000000  0.5840830000000 1.0
C      1  0.5365930000000  0.5937220000000  0.4485240000000 1.0
C      1  0.4745160000000  0.5366610000000  0.4390410000000 1.0
C      1  0.5797510000000  0.4708720000000  0.5086870000000 1.0
C      1  0.5184510000000  0.5206920000000  0.5701150000000 1.0
C      1  0.4702290000000  0.5214000000000  0.3936920000000 1.0
C      1  0.4582400000000  0.5889550000000  0.4293520000000 1.0
C      1  0.4268500000000  0.5183810000000  0.4537820000000 1.0
C      1  0.5484410000000  0.5341620000000  0.4689440000000 1.0
C      1  0.5684070000000  0.4060830000000  0.5086410000000 1.0
C      1  0.4598110000000  0.4315310000000  0.4293410000000 1.0
C      1  0.6001300000000  0.5437630000000  0.4736510000000 1.0
C      1  0.4794070000000  0.5427510000000  0.5875290000000 1.0
C      1  0.5111260000000  0.5549680000000  0.5891300000000 1.0
C      1  0.4781520000000  0.5255860000000  0.5334230000000 1.0
C      1  0.5494240000000  0.4966520000000  0.5163570000000 1.0
C      1  0.4899680000000  0.3854340000000  0.4864660000000 1.0
C      1  0.5831490000000  0.5280900000000  0.5175740000000 1.0
C      1  0.6147900000000  0.5135030000000  0.4951080000000 1.0
C      1  0.5203680000000  0.4566670000000  0.6060320000000 1.0
C      1  0.4439900000000  0.4500690000000  0.4053870000000 1.0
C      1  0.5431560000000  0.4088250000000  0.5198200000000 1.0
C      1  0.4252670000000  0.5259270000000  0.5352860000000 1.0
C      1  0.5177550000000  0.4832690000000  0.3999780000000 1.0
C      1  0.5130560000000  0.5821900000000  0.4638470000000 1.0
C      1  0.4306690000000  0.4309100000000  0.4759230000000 1.0
C      1  0.4308740000000  0.4260390000000  0.5462780000000 1.0
C      1  0.4859350000000  0.4570250000000  0.5737050000000 1.0
C      1  0.4825920000000  0.4422200000000  0.4066670000000 1.0
C      1  0.5322950000000  0.4571750000000  0.4889750000000 1.0
C      1  0.6177610000000  0.4911100000000  0.4476770000000 1.0
C      1  0.4064710000000  0.5901670000000  0.4522700000000 1.0
C      1  0.4477510000000  0.4896800000000  0.4721260000000 1.0
C      1  0.4494630000000  0.4993820000000  0.4392990000000 1.0
C      1  0.4821410000000  0.6065340000000  0.4966180000000 1.0
C      1  0.3785810000000  0.5068560000000  0.4576870000000 1.0
C      1  0.4190990000000  0.5068850000000  0.5595480000000 1.0
C      1  0.3934680000000  0.4427660000000  0.5176750000000 1.0
C      1  0.5713700000000  0.5511710000000  0.4858170000000 1.0
C      1  0.5017440000000  0.5284010000000  0.4046000000000 1.0
C      1  0.4563200000000  0.4391710000000  0.5540080000000 1.0
C      1  0.5730930000000  0.4227560000000  0.4808840000000 1.0
C      1  0.5583720000000  0.4934230000000  0.6041760000000 1.0
C      1  0.5029220000000  0.5063300000000  0.4715290000000 1.0
C      1  0.4899410000000  0.4180800000000  0.5253090000000 1.0
C      1  0.4487580000000  0.5707960000000  0.4655520000000 1.0
C      1  0.5346970000000  0.5499510000000  0.5640790000000 1.0
C      1  0.4492780000000  0.4692970000000  0.5641890000000 1.0
C      1  0.5162930000000  0.4079420000000  0.5061540000000 1.0
C      1  0.5762510000000  0.4499470000000  0.4638170000000 1.0
C      1  0.4312400000000  0.5443190000000  0.5928570000000 1.0
C      1  0.4862120000000  0.5110720000000  0.4287700000000 1.0
C      1  0.4787760000000  0.4855880000000  0.4473550000000 1.0
C      1  0.4799150000000  0.4848310000000  0.5614300000000 1.0
C      1  0.5121630000000  0.4966740000000  0.5027760000000 1.0
C      1  0.5175340000000  0.4461460000000  0.5315320000000 1.0
C      1  0.5101190000000  0.4504140000000  0.5047340000000 1.0
C      1  0.4331380000000  0.5082470000000  0.5094350000000 1.0
C      1  0.4848580000000  0.4806020000000  0.5101220000000 1.0
C      1  0.4527380000000  0.4865370000000  0.5905390000000 1.0
C      1  0.5102800000000  0.4912210000000  0.5620750000000 1.0
C      1  0.4577210000000  0.5497280000000  0.3881790000000 1.0
C      1  0.5605350000000  0.5055700000000  0.4179640000000 1.0
C      1  0.5610450000000  0.4416120000000  0.5520320000000 1.0
C      1  0.5683320000000  0.4997180000000  0.4686040000000 1.0
C      1  0.4874240000000  0.4158180000000  0.4797600000000 1.0
C      1  0.5672660000000  0.5200500000000  0.4440260000000 1.0
C      1  0.4511650000000  0.5219350000000  0.4851050000000 1.0
C      1  0.4503960000000  0.5741240000000  0.5594240000000 1.0
C      1  0.5950600000000  0.5365150000000  0.4428340000000 1.0
C      1  0.5591650000000  0.4592640000000  0.4887840000000 1.0
C      1  0.4990270000000  0.3807360000000  0.5156960000000 1.0
C      1  0.4340340000000  0.5138080000000  0.5849020000000 1.0
C      1  0.4204290000000  0.4644120000000  0.4423930000000 1.0
C      1  0.4192080000000  0.4739660000000  0.5521150000000 1.0
C      1  0.4998310000000  0.5493470000000  0.5219710000000 1.0
C      1  0.4720600000000  0.4964340000000  0.5345290000000 1.0
C      1  0.4657730000000  0.3971970000000  0.5299540000000 1.0
C      1  0.5015950000000  0.4325830000000  0.6115140000000 1.0
C      1  0.6059930000000  0.5451230000000  0.5048380000000 1.0
C      1  0.3877910000000  0.4882400000000  0.4811090000000 1.0
C      1  0.5539670000000  0.6013970000000  0.4711730000000 1.0
C      1  0.5858050000000  0.5815520000000  0.5372690000000 1.0
C      1  0.4379360000000  0.4021910000000  0.5301540000000 1.0
C      1  0.4969020000000  0.5349500000000  0.4720280000000 1.0
C      1  0.5060300000000  0.4431400000000  0.4573550000000 1.0
C      1  0.4962370000000  0.4389090000000  0.5514940000000 1.0
C      1  0.5532160000000  0.5424750000000  0.5134240000000 1.0
C      1  0.5591720000000  0.4970380000000  0.5475510000000 1.0
C      1  0.5337280000000  0.5858880000000  0.4220520000000 1.0
C      1  0.4331120000000  0.4377120000000  0.4463740000000 1.0
C      1  0.4928050000000  0.5369300000000  0.5590260000000 1.0
C      1  0.5515770000000  0.4217340000000  0.4319880000000 1.0
C      1  0.4975770000000  0.5675870000000  0.5505930000000 1.0
C      1  0.4513340000000  0.5403290000000  0.4575420000000 1.0
C      1  0.4315880000000  0.5591590000000  0.5403390000000 1.0
C      1  0.5735630000000  0.5548820000000  0.4258100000000 1.0
C      1  0.3963170000000  0.5200340000000  0.4452450000000 1.0
C      1  0.4678670000000  0.4571840000000  0.5280630000000 1.0
C      1  0.5481290000000  0.5200030000000  0.5867550000000 1.0
C      1  0.5411700000000  0.3919410000000  0.4406950000000 1.0
C      1  0.5409830000000  0.4310560000000  0.5362450000000 1.0
C      1  0.4166070000000  0.5025850000000  0.4815450000000 1.0
C      1  0.5343750000000  0.5963480000000  0.5288940000000 1.0
C      1  0.5288420000000  0.5237960000000  0.4336040000000 1.0
C      1  0.4805340000000  0.4865940000000  0.4806060000000 1.0
C      1  0.4534500000000  0.5396730000000  0.5249390000000 1.0
C      1  0.4090710000000  0.4643400000000  0.4733740000000 1.0
C      1  0.4741720000000  0.5881770000000  0.5447460000000 1.0
C      1  0.5207170000000  0.4979730000000  0.4500260000000 1.0
C      1  0.6087700000000  0.4797120000000  0.4940380000000 1.0
C      1  0.4260220000000  0.5684110000000  0.5096080000000 1.0
C      1  0.5920500000000  0.4760100000000  0.5761850000000 1.0
C      1  0.5149550000000  0.5828500000000  0.5731040000000 1.0
C      1  0.5361260000000  0.6099380000000  0.4973500000000 1.0
C      1  0.4905430000000  0.4847320000000  0.4092170000000 1.0
C      1  0.5079730000000  0.6241310000000  0.4902710000000 1.0
C      1  0.5266790000000  0.5547240000000  0.5050570000000 1.0
C      1  0.4726610000000  0.4358550000000  0.4582730000000 1.0
C      1  0.4155570000000  0.4176710000000  0.5104250000000 1.0
C      1  0.4912220000000  0.4603720000000  0.4330160000000 1.0
C      1  0.5343810000000  0.5195120000000  0.4010340000000 1.0
C      1  0.4541350000000  0.4562930000000  0.4746790000000 1.0
C      1  0.5013000000000  0.4095740000000  0.5668810000000 1.0
C      1  0.3965340000000  0.4747910000000  0.5098400000000 1.0
C      1  0.4103330000000  0.4451920000000  0.5440150000000 1.0
C      1  0.6050710000000  0.4661960000000  0.4662350000000 1.0
C      1  0.5400640000000  0.4799060000000  0.5654820000000 1.0
C      1  0.5472990000000  0.5486330000000  0.4245560000000 1.0
C      1  0.5150630000000  0.5838570000000  0.4963620000000 1.0
C      1  0.5005660000000  0.5970480000000  0.5242230000000 1.0
C      1  0.5291790000000  0.5028870000000  0.6093610000000 1.0
C      1  0.4635890000000  0.5699180000000  0.4054410000000 1.0
C      1  0.5876740000000  0.4317380000000  0.5105650000000 1.0
C      1  0.5985470000000  0.5745610000000  0.5093810000000 1.0
C      1  0.3944800000000  0.5794030000000  0.4744730000000 1.0
C      1  0.5736140000000  0.5859120000000  0.5626680000000 1.0
C      1  0.4263330000000  0.4600600000000  0.5028730000000 1.0
C      1  0.4763710000000  0.5830240000000  0.4796410000000 1.0
C      1  0.5448760000000  0.5276230000000  0.5409670000000 1.0
C      1  0.5767990000000  0.5025630000000  0.5001300000000 1.0
C      1  0.4657750000000  0.4575260000000  0.3850350000000 1.0
C      1  0.3997420000000  0.4348160000000  0.4857330000000 1.0
C      1  0.5220370000000  0.5032760000000  0.5343380000000 1.0
C      1  0.3850610000000  0.5444270000000  0.5099960000000 1.0
C      1  0.4000170000000  0.5654780000000  0.4984800000000 1.0
C      1  0.5474950000000  0.4140820000000  0.4645800000000 1.0
C      1  0.4855370000000  0.5850020000000  0.4486030000000 1.0
C      1  0.4301950000000  0.4726920000000  0.4168870000000 1.0
C      1  0.4458640000000  0.4814460000000  0.5186400000000 1.0
C      1  0.5483830000000  0.4508050000000  0.5784560000000 1.0
C      1  0.4762660000000  0.4394680000000  0.5987090000000 1.0
C      1  0.6081340000000  0.4960130000000  0.5237830000000 1.0
C      1  0.5832270000000  0.4528420000000  0.5351550000000 1.0
C      1  0.4662010000000  0.5172800000000  0.5964170000000 1.0
C      1  0.4775010000000  0.4433990000000  0.4974770000000 1.0
C      1  0.5716080000000  0.4737430000000  0.4195530000000 1.0
C      1  0.4926210000000  0.3849220000000  0.5463500000000 1.0
C      1  0.4864170000000  0.5555390000000  0.4936430000000 1.0
C      1  0.5222940000000  0.5526570000000  0.4726020000000 1.0
C      1  0.5282350000000  0.4647990000000  0.4474980000000 1.0
C      1  0.3997410000000  0.4952520000000  0.5336820000000 1.0
C      1  0.5720790000000  0.5291570000000  0.5701870000000 1.0
C      1  0.5353360000000  0.4855580000000  0.4219410000000 1.0
C      1  0.5693880000000  0.4715310000000  0.5913590000000 1.0
C      1  0.4868770000000  0.5616160000000  0.4267220000000 1.0
C      1  0.4081000000000  0.5539660000000  0.6042960000000 1.0
C      1  0.5642120000000  0.5905820000000  0.5177330000000 1.0
C      1  0.5016610000000  0.3702680000000  0.4654690000000 1.0
C      1  0.4630950000000  0.6095230000000  0.5225980000000 1.0
C      1  0.5895240000000  0.4840540000000  0.5450660000000 1.0
C      1  0.4335830000000  0.5883170000000  0.4457160000000 1.0
C      1  0.5731380000000  0.5835210000000  0.4881550000000 1.0
C      1  0.5228730000000  0.4291840000000  0.5850320000000 1.0
C      1  0.4701910000000  0.4207970000000  0.5751940000000 1.0
C      1  0.5401470000000  0.5054840000000  0.4853890000000 1.0
C      1  0.4688040000000  0.4883260000000  0.3856630000000 1.0
C      1  0.5215180000000  0.3731380000000  0.4468060000000 1.0
C      1  0.4472280000000  0.5006000000000  0.4083010000000 1.0
C      1  0.5161090000000  0.5575660000000  0.4149640000000 1.0
C      1  0.6173280000000  0.5182800000000  0.4613560000000 1.0
C      1  0.4840790000000  0.4898260000000  0.6025460000000 1.0
C      1  0.5840810000000  0.5282870000000  0.5488270000000 1.0
C      1  0.4459010000000  0.4322330000000  0.5052070000000 1.0
C      1  0.4532610000000  0.5542320000000  0.4949450000000 1.0
C      1  0.5098130000000  0.4827570000000  0.6080320000000 1.0
C      1  0.5854280000000  0.4844790000000  0.4461190000000 1.0
END
