TITL C-2778422-5617-115 0.000249173329095003 125000 -165.592066280255 0 0 30 (C1) n - 1
REM
REM in /home/nfs/bkarasulu/CARBON/AIRSS/Generating-Clusters/REBO/Only-C1/SD-CG/HFTN-CG
REM
REM
REM
REM
REM
REM ./C.cell (11c1c37f851c82e70ff6c80c92926a4b)
REM
REM compiler GCC version 9.2.1 20190827 (Red Hat 9.2.1-1)
REM options -cpp -mtune=generic -march=x86-64 -g -O0 -fpre-include=/usr/include/finclude/math-vector-fortran.h
REM seed -303789471 -845040910 -647078425 968200682 1115419806 1615576325 1379127556 1400810224 1777220911 1891084465 1196758070 1796091317 -1862306833 -700711482 -343279049 -1140862930 -928932234 272519631 725918018 1436244786 -420505056 205857072 -727264170 1769039481 119952685 -2042516520 595018760 67775880 1713742318 -1609294081 -589778583 332329274 -911260060
REM
CELL 1.54180   50.00000   50.00000   50.00000   90.00000   90.00000   90.00000
LATT -1
SFAC C  
C      1  0.4987990000000  0.5618030000000  0.4892780000000 1.0
C      1  0.4633720000000  0.4887070000000  0.5285460000000 1.0
C      1  0.4427960000000  0.4981870000000  0.4523690000000 1.0
C      1  0.5004910000000  0.5020380000000  0.4435860000000 1.0
C      1  0.4598850000000  0.5037630000000  0.4813110000000 1.0
C      1  0.5211240000000  0.5357350000000  0.5263510000000 1.0
C      1  0.4633330000000  0.5324130000000  0.4914620000000 1.0
C      1  0.4741590000000  0.5007160000000  0.4507590000000 1.0
C      1  0.4880430000000  0.4853150000000  0.5448920000000 1.0
C      1  0.5746000000000  0.5038080000000  0.4667270000000 1.0
C      1  0.5415010000000  0.5296950000000  0.4887390000000 1.0
C      1  0.4520290000000  0.5146660000000  0.5346670000000 1.0
C      1  0.4854630000000  0.4470620000000  0.4698350000000 1.0
C      1  0.4998190000000  0.5506170000000  0.5158680000000 1.0
C      1  0.5402640000000  0.4786030000000  0.4958530000000 1.0
C      1  0.5480750000000  0.5051330000000  0.4763960000000 1.0
C      1  0.4770690000000  0.5508220000000  0.4753330000000 1.0
C      1  0.4716780000000  0.5292780000000  0.5551160000000 1.0
C      1  0.5257310000000  0.4962100000000  0.4532930000000 1.0
C      1  0.5559410000000  0.4693710000000  0.5413250000000 1.0
C      1  0.4962940000000  0.4489920000000  0.5161450000000 1.0
C      1  0.5351070000000  0.4808640000000  0.5259450000000 1.0
C      1  0.5324520000000  0.5118880000000  0.5307680000000 1.0
C      1  0.5290810000000  0.4707850000000  0.4690260000000 1.0
C      1  0.5116490000000  0.4497530000000  0.4618380000000 1.0
C      1  0.4904360000000  0.5082140000000  0.5626690000000 1.0
C      1  0.4640890000000  0.4809470000000  0.5010560000000 1.0
C      1  0.5075390000000  0.4687210000000  0.5329610000000 1.0
C      1  0.4781040000000  0.4568400000000  0.4953680000000 1.0
C      1  0.4710770000000  0.5390530000000  0.5225200000000 1.0
END
