TITL C-2778434-4341-1484 -0.000720726674776282 125000 -614.447429903834 0 0 106 (C1) n - 1
REM
REM in /home/nfs/bkarasulu/CARBON/AIRSS/Generating-Clusters/REBO/Only-C1/SD-CG/HFTN-CG
REM
REM
REM
REM
REM
REM ./C.cell (11c1c37f851c82e70ff6c80c92926a4b)
REM
REM compiler GCC version 9.2.1 20190827 (Red Hat 9.2.1-1)
REM options -cpp -mtune=generic -march=x86-64 -g -O0 -fpre-include=/usr/include/finclude/math-vector-fortran.h
REM seed 1528297071 218273333 -2028545472 -972384564 -682156705 325899965 488150221 -23584718 -987288010 -955792855 1385256185 -1544465483 1473873889 -1717769998 160868568 -1447140243 788688567 -903700123 488065288 -1355961552 -1811001219 -1117012988 714544730 -1220015266 208268575 650628582 -1868869327 1148034412 -1320976428 1405474886 17423563 2043297365 -540600993
REM
CELL 1.54180   50.00000   50.00000   50.00000   90.00000   90.00000   90.00000
LATT -1
SFAC C  
C      1  0.4394940000000  0.4920780000000  0.4997940000000 1.0
C      1  0.4503790000000  0.5036850000000  0.5516120000000 1.0
C      1  0.4701690000000  0.4432740000000  0.5693970000000 1.0
C      1  0.5453080000000  0.5273690000000  0.4922380000000 1.0
C      1  0.4237350000000  0.4921850000000  0.4533750000000 1.0
C      1  0.5131510000000  0.4671300000000  0.5036180000000 1.0
C      1  0.5412740000000  0.5024960000000  0.5384800000000 1.0
C      1  0.4820200000000  0.4910400000000  0.5531410000000 1.0
C      1  0.4888110000000  0.4984430000000  0.5015870000000 1.0
C      1  0.5527520000000  0.4786450000000  0.5284240000000 1.0
C      1  0.5237200000000  0.4994320000000  0.5589670000000 1.0
C      1  0.4898310000000  0.4549800000000  0.4597750000000 1.0
C      1  0.5551000000000  0.4803760000000  0.5744350000000 1.0
C      1  0.4844080000000  0.5185750000000  0.5739620000000 1.0
C      1  0.4936240000000  0.5882130000000  0.5042700000000 1.0
C      1  0.4992620000000  0.4210590000000  0.4411860000000 1.0
C      1  0.4529540000000  0.5471040000000  0.4658090000000 1.0
C      1  0.4312830000000  0.4913020000000  0.5328460000000 1.0
C      1  0.4656100000000  0.4652920000000  0.4700670000000 1.0
C      1  0.5389670000000  0.4995410000000  0.4231350000000 1.0
C      1  0.4615530000000  0.4240180000000  0.4778110000000 1.0
C      1  0.4882970000000  0.5485460000000  0.4883000000000 1.0
C      1  0.5747130000000  0.4956850000000  0.4589230000000 1.0
C      1  0.4192780000000  0.5264680000000  0.5025360000000 1.0
C      1  0.5163560000000  0.5414320000000  0.5157540000000 1.0
C      1  0.4331120000000  0.4377100000000  0.5022860000000 1.0
C      1  0.5021880000000  0.5272210000000  0.5397160000000 1.0
C      1  0.4715120000000  0.5260500000000  0.5043230000000 1.0
C      1  0.4595840000000  0.5397190000000  0.5658320000000 1.0
C      1  0.5695130000000  0.4496500000000  0.4715110000000 1.0
C      1  0.5035500000000  0.5530200000000  0.4342760000000 1.0
C      1  0.4392500000000  0.4467710000000  0.4711640000000 1.0
C      1  0.4784810000000  0.4115310000000  0.4582210000000 1.0
C      1  0.4740460000000  0.4278220000000  0.5026840000000 1.0
C      1  0.4817140000000  0.4949570000000  0.5927370000000 1.0
C      1  0.4951280000000  0.4407780000000  0.5382750000000 1.0
C      1  0.5122350000000  0.5375500000000  0.5689650000000 1.0
C      1  0.5202830000000  0.4125130000000  0.5172700000000 1.0
C      1  0.5181910000000  0.4944620000000  0.4849430000000 1.0
C      1  0.4168710000000  0.4607450000000  0.4563410000000 1.0
C      1  0.5805590000000  0.5108830000000  0.5338250000000 1.0
C      1  0.4406020000000  0.4254630000000  0.5279760000000 1.0
C      1  0.5349700000000  0.5603240000000  0.5624410000000 1.0
C      1  0.5504340000000  0.5508480000000  0.4402220000000 1.0
C      1  0.5529110000000  0.5636530000000  0.5406880000000 1.0
C      1  0.5709410000000  0.4752010000000  0.4930580000000 1.0
C      1  0.5738930000000  0.4471020000000  0.5110930000000 1.0
C      1  0.5082470000000  0.5746440000000  0.5547550000000 1.0
C      1  0.3913780000000  0.4857810000000  0.5007440000000 1.0
C      1  0.4437600000000  0.5735210000000  0.5516530000000 1.0
C      1  0.4697770000000  0.5483770000000  0.4377670000000 1.0
C      1  0.5857950000000  0.5151080000000  0.4810830000000 1.0
C      1  0.5345920000000  0.4725220000000  0.4297330000000 1.0
C      1  0.4646790000000  0.4928550000000  0.4830990000000 1.0
C      1  0.4888280000000  0.4675530000000  0.5765320000000 1.0
C      1  0.4873150000000  0.5588090000000  0.5207140000000 1.0
C      1  0.4974840000000  0.5137420000000  0.4658740000000 1.0
C      1  0.5493570000000  0.4987710000000  0.4813920000000 1.0
C      1  0.5665270000000  0.5500000000000  0.4843970000000 1.0
C      1  0.4653960000000  0.5203730000000  0.4222650000000 1.0
C      1  0.5858860000000  0.5532890000000  0.5055980000000 1.0
C      1  0.5768160000000  0.4903980000000  0.5579000000000 1.0
C      1  0.4609970000000  0.5817100000000  0.5022110000000 1.0
C      1  0.4425120000000  0.5384550000000  0.5124760000000 1.0
C      1  0.4690250000000  0.4527790000000  0.5214070000000 1.0
C      1  0.5403030000000  0.5697470000000  0.4869350000000 1.0
C      1  0.5165790000000  0.5343840000000  0.4830960000000 1.0
C      1  0.3954910000000  0.4719160000000  0.4779510000000 1.0
C      1  0.4195050000000  0.5050790000000  0.4785180000000 1.0
C      1  0.4056860000000  0.5036030000000  0.5174810000000 1.0
C      1  0.4363620000000  0.5180420000000  0.5756130000000 1.0
C      1  0.5135260000000  0.4459350000000  0.5537860000000 1.0
C      1  0.5280340000000  0.4399210000000  0.4386570000000 1.0
C      1  0.4543020000000  0.4306740000000  0.5512890000000 1.0
C      1  0.5167620000000  0.5104380000000  0.4086790000000 1.0
C      1  0.4463630000000  0.5026350000000  0.4387150000000 1.0
C      1  0.4550620000000  0.5634940000000  0.5287510000000 1.0
C      1  0.5547090000000  0.5194140000000  0.4346170000000 1.0
C      1  0.5457010000000  0.5279750000000  0.5242820000000 1.0
C      1  0.4903490000000  0.4487010000000  0.4293950000000 1.0
C      1  0.5824790000000  0.4709940000000  0.5325590000000 1.0
C      1  0.5834330000000  0.5018520000000  0.5071870000000 1.0
C      1  0.5749540000000  0.5354800000000  0.4568380000000 1.0
C      1  0.4408150000000  0.4642180000000  0.5182000000000 1.0
C      1  0.4954430000000  0.5264710000000  0.4169370000000 1.0
C      1  0.5366270000000  0.4585120000000  0.5197730000000 1.0
C      1  0.5613000000000  0.4236180000000  0.4895450000000 1.0
C      1  0.5226620000000  0.4699960000000  0.5733220000000 1.0
C      1  0.4880790000000  0.5651920000000  0.4609980000000 1.0
C      1  0.4655270000000  0.5167410000000  0.4618990000000 1.0
C      1  0.4714230000000  0.5258890000000  0.5369140000000 1.0
C      1  0.5114720000000  0.4450280000000  0.4803300000000 1.0
C      1  0.4891300000000  0.4780740000000  0.5253610000000 1.0
C      1  0.5798410000000  0.4704120000000  0.4509750000000 1.0
C      1  0.5016070000000  0.4227760000000  0.5004100000000 1.0
C      1  0.5127970000000  0.4584460000000  0.4127180000000 1.0
C      1  0.5391540000000  0.4367850000000  0.4672330000000 1.0
C      1  0.5141820000000  0.5870170000000  0.5284950000000 1.0
C      1  0.5462360000000  0.4284050000000  0.5182150000000 1.0
C      1  0.5743460000000  0.5423180000000  0.5329840000000 1.0
C      1  0.4507700000000  0.5695800000000  0.4800610000000 1.0
C      1  0.4068400000000  0.4476290000000  0.4338530000000 1.0
C      1  0.5275290000000  0.5645160000000  0.4554910000000 1.0
C      1  0.5092820000000  0.5813620000000  0.4791140000000 1.0
C      1  0.4852650000000  0.5585580000000  0.5669990000000 1.0
C      1  0.5396880000000  0.5771410000000  0.5189380000000 1.0
END
