TITL C-2778426-5645-142 0.00329281253952255 125000 -497.826751998034 0 0 87 (C1) n - 1
REM
REM in /home/nfs/bkarasulu/CARBON/AIRSS/Generating-Clusters/REBO/Only-C1/SD-CG/HFTN-CG
REM
REM
REM
REM
REM
REM ./C.cell (11c1c37f851c82e70ff6c80c92926a4b)
REM
REM compiler GCC version 9.2.1 20190827 (Red Hat 9.2.1-1)
REM options -cpp -mtune=generic -march=x86-64 -g -O0 -fpre-include=/usr/include/finclude/math-vector-fortran.h
REM seed -1722133326 -1701411672 862704065 -1790127888 1141500906 33091653 962274246 -918679087 1869991967 705225872 1105017172 -1042054146 1592919911 -1801475969 -154361846 2015929302 -1347993061 102359056 -2013839780 1175735039 998204471 649781666 -107191944 -408121667 830767682 -1718850340 -462102782 320101779 -1133266353 -1491503425 1669846537 -2106069972 -800643970
REM
CELL 1.54180   50.00000   50.00000   50.00000   90.00000   90.00000   90.00000
LATT -1
SFAC C  
C      1  0.5117600000000  0.5216080000000  0.4337680000000 1.0
C      1  0.4863060000000  0.4606590000000  0.5106910000000 1.0
C      1  0.5525130000000  0.4995400000000  0.4362950000000 1.0
C      1  0.5012820000000  0.4458320000000  0.4185960000000 1.0
C      1  0.4914840000000  0.5323120000000  0.5374300000000 1.0
C      1  0.5656820000000  0.5416250000000  0.5533370000000 1.0
C      1  0.5319240000000  0.4449150000000  0.4874870000000 1.0
C      1  0.5579510000000  0.4801110000000  0.4582000000000 1.0
C      1  0.5045510000000  0.5415190000000  0.5008130000000 1.0
C      1  0.4544180000000  0.5455090000000  0.5445840000000 1.0
C      1  0.4662830000000  0.4367500000000  0.5138980000000 1.0
C      1  0.4907900000000  0.4790130000000  0.5390590000000 1.0
C      1  0.5620950000000  0.4888610000000  0.5509210000000 1.0
C      1  0.5634870000000  0.4483890000000  0.5272820000000 1.0
C      1  0.4905110000000  0.5101580000000  0.5855480000000 1.0
C      1  0.4872880000000  0.5704100000000  0.5033450000000 1.0
C      1  0.5271590000000  0.5688030000000  0.4686220000000 1.0
C      1  0.3951550000000  0.4542620000000  0.5351530000000 1.0
C      1  0.4675690000000  0.5081010000000  0.4302300000000 1.0
C      1  0.4085420000000  0.4885740000000  0.4814860000000 1.0
C      1  0.4484560000000  0.4656890000000  0.5539770000000 1.0
C      1  0.4195980000000  0.4875630000000  0.5087660000000 1.0
C      1  0.4355030000000  0.4594790000000  0.4851460000000 1.0
C      1  0.5087910000000  0.5215680000000  0.4658450000000 1.0
C      1  0.4378740000000  0.5153350000000  0.4551360000000 1.0
C      1  0.4514620000000  0.4798790000000  0.4419540000000 1.0
C      1  0.4681030000000  0.5105530000000  0.5310870000000 1.0
C      1  0.4367540000000  0.5389270000000  0.4783170000000 1.0
C      1  0.4393980000000  0.5065530000000  0.5165940000000 1.0
C      1  0.4402180000000  0.5478470000000  0.4471160000000 1.0
C      1  0.5214920000000  0.5176800000000  0.5280960000000 1.0
C      1  0.5397150000000  0.5443520000000  0.4550950000000 1.0
C      1  0.5568320000000  0.5833230000000  0.5209690000000 1.0
C      1  0.5827040000000  0.5399960000000  0.5751030000000 1.0
C      1  0.5172540000000  0.5182910000000  0.5790600000000 1.0
C      1  0.4701370000000  0.4571810000000  0.4595550000000 1.0
C      1  0.5733900000000  0.4954350000000  0.4782980000000 1.0
C      1  0.4404790000000  0.4437410000000  0.5215130000000 1.0
C      1  0.5370980000000  0.4937520000000  0.5729380000000 1.0
C      1  0.5024090000000  0.4486410000000  0.5449610000000 1.0
C      1  0.5757430000000  0.5247130000000  0.4711960000000 1.0
C      1  0.4765510000000  0.4307180000000  0.4656930000000 1.0
C      1  0.4814440000000  0.5212660000000  0.4949480000000 1.0
C      1  0.4354650000000  0.4898510000000  0.5529570000000 1.0
C      1  0.4792430000000  0.4709040000000  0.4239830000000 1.0
C      1  0.5137570000000  0.4249150000000  0.5017700000000 1.0
C      1  0.4986620000000  0.5676990000000  0.4713140000000 1.0
C      1  0.5131650000000  0.5566700000000  0.5305130000000 1.0
C      1  0.5204530000000  0.5775650000000  0.5067840000000 1.0
C      1  0.5645800000000  0.4934130000000  0.5049300000000 1.0
C      1  0.5456270000000  0.5172470000000  0.5495750000000 1.0
C      1  0.5401110000000  0.4570290000000  0.4628330000000 1.0
C      1  0.5498030000000  0.5724000000000  0.4912010000000 1.0
C      1  0.4376390000000  0.5179790000000  0.5555530000000 1.0
C      1  0.5272190000000  0.4835270000000  0.4955160000000 1.0
C      1  0.4506240000000  0.4811190000000  0.4844350000000 1.0
C      1  0.5188550000000  0.4244410000000  0.5306540000000 1.0
C      1  0.5255190000000  0.4482490000000  0.4400420000000 1.0
C      1  0.5700030000000  0.5463380000000  0.4909550000000 1.0
C      1  0.4675440000000  0.5364230000000  0.4387030000000 1.0
C      1  0.5476230000000  0.5189610000000  0.5094910000000 1.0
C      1  0.4665580000000  0.5074580000000  0.4699940000000 1.0
C      1  0.4223790000000  0.4889190000000  0.4573470000000 1.0
C      1  0.5598830000000  0.5710440000000  0.5422140000000 1.0
C      1  0.4182940000000  0.4615210000000  0.5226480000000 1.0
C      1  0.4887070000000  0.4913990000000  0.4494310000000 1.0
C      1  0.4953640000000  0.4226810000000  0.4056280000000 1.0
C      1  0.4656820000000  0.5270870000000  0.5707870000000 1.0
C      1  0.4967640000000  0.5002470000000  0.5149440000000 1.0
C      1  0.4697740000000  0.4486530000000  0.5540040000000 1.0
C      1  0.4854370000000  0.4248510000000  0.4929250000000 1.0
C      1  0.5607590000000  0.5267350000000  0.4454180000000 1.0
C      1  0.4884910000000  0.5445810000000  0.4566580000000 1.0
C      1  0.5415250000000  0.4407240000000  0.5440700000000 1.0
C      1  0.5116730000000  0.4778020000000  0.4170100000000 1.0
C      1  0.4509330000000  0.5289290000000  0.5002140000000 1.0
C      1  0.5311410000000  0.5332060000000  0.4863130000000 1.0
C      1  0.5696570000000  0.5384990000000  0.5212060000000 1.0
C      1  0.4655090000000  0.5613960000000  0.5258580000000 1.0
C      1  0.4745400000000  0.4951750000000  0.5607800000000 1.0
C      1  0.4822060000000  0.4741520000000  0.4847960000000 1.0
C      1  0.5353010000000  0.4611240000000  0.5639920000000 1.0
C      1  0.5267290000000  0.4995590000000  0.4235870000000 1.0
C      1  0.5150210000000  0.5402910000000  0.5603020000000 1.0
C      1  0.5187880000000  0.4616140000000  0.5166410000000 1.0
C      1  0.5681660000000  0.4763830000000  0.5267680000000 1.0
C      1  0.5066730000000  0.4918080000000  0.4771490000000 1.0
END
