TITL C-2778429-3646-1320 62.0642662599411 125000 -1094.25068793144 0 0 189 (C1) n - 1
REM
REM in /home/nfs/bkarasulu/CARBON/AIRSS/Generating-Clusters/REBO/Only-C1/SD-CG/HFTN-CG
REM
REM
REM
REM
REM
REM ./C.cell (11c1c37f851c82e70ff6c80c92926a4b)
REM
REM compiler GCC version 9.2.1 20190827 (Red Hat 9.2.1-1)
REM options -cpp -mtune=generic -march=x86-64 -g -O0 -fpre-include=/usr/include/finclude/math-vector-fortran.h
REM seed 1850204489 -1275634588 1560383685 -1170561028 -1868378507 1352511928 1859913912 -1156500484 1931652074 -891258096 72658696 -634016543 -206434829 1227622636 -707657799 -848428898 -597386270 -1598271161 1227190487 1284080290 1771151368 481216105 795590324 953662197 327255331 -2068627683 -932903199 1840652700 -638144366 -649397224 1241717612 1297834157 852485367
REM
CELL 1.54180   50.00000   50.00000   50.00000   90.00000   90.00000   90.00000
LATT -1
SFAC C  
C      1  0.5079410000000  0.5733590000000  0.4302050000000 1.0
C      1  0.4440410000000  0.5681920000000  0.5445280000000 1.0
C      1  0.4956960000000  0.5561940000000  0.5577950000000 1.0
C      1  0.4290360000000  0.5196210000000  0.4960710000000 1.0
C      1  0.5296210000000  0.5260200000000  0.4157600000000 1.0
C      1  0.4995790000000  0.5239960000000  0.4528710000000 1.0
C      1  0.5155400000000  0.4807100000000  0.5368050000000 1.0
C      1  0.4874590000000  0.5500010000000  0.4440280000000 1.0
C      1  0.5737530000000  0.5723920000000  0.5242110000000 1.0
C      1  0.4488600000000  0.4699010000000  0.5657180000000 1.0
C      1  0.5837970000000  0.4950250000000  0.5691260000000 1.0
C      1  0.4664020000000  0.4822710000000  0.4808510000000 1.0
C      1  0.5465870000000  0.4622250000000  0.4513480000000 1.0
C      1  0.4839040000000  0.4117580000000  0.4675920000000 1.0
C      1  0.4486270000000  0.5851350000000  0.4918810000000 1.0
C      1  0.5209820000000  0.4505160000000  0.4975960000000 1.0
C      1  0.4736290000000  0.4020080000000  0.5442530000000 1.0
C      1  0.4418630000000  0.5086100000000  0.4599810000000 1.0
C      1  0.4808560000000  0.4969660000000  0.4575950000000 1.0
C      1  0.5234050000000  0.4470710000000  0.4159200000000 1.0
C      1  0.5366390000000  0.5961180000000  0.4446450000000 1.0
C      1  0.5465560000000  0.5269360000000  0.5191710000000 1.0
C      1  0.4845790000000  0.3973060000000  0.5168780000000 1.0
C      1  0.5708970000000  0.5444830000000  0.4144050000000 1.0
C      1  0.5188230000000  0.5328500000000  0.5612720000000 1.0
C      1  0.5090560000000  0.4850270000000  0.5807110000000 1.0
C      1  0.5435990000000  0.5388360000000  0.4420470000000 1.0
C      1  0.4444630000000  0.4079170000000  0.5468510000000 1.0
C      1  0.5443440000000  0.5725060000000  0.4759210000000 1.0
C      1  0.5414380000000  0.4322120000000  0.5839450000000 1.0
C      1  0.5054000000000  0.5069400000000  0.4254310000000 1.0
C      1  0.4001060000000  0.4965110000000  0.5277830000000 1.0
C      1  0.4909670000000  0.4429170000000  0.4045190000000 1.0
C      1  0.4351670000000  0.4948150000000  0.5480820000000 1.0
C      1  0.4212800000000  0.5581220000000  0.5205450000000 1.0
C      1  0.5483710000000  0.4143770000000  0.4765520000000 1.0
C      1  0.4032420000000  0.5180310000000  0.5541590000000 1.0
C      1  0.5062830000000  0.5842830000000  0.5516770000000 1.0
C      1  0.5628540000000  0.4900080000000  0.5927100000000 1.0
C      1  0.4357320000000  0.4560160000000  0.5392850000000 1.0
C      1  0.4377790000000  0.5008060000000  0.5884940000000 1.0
C      1  0.4011890000000  0.4629010000000  0.5203480000000 1.0
C      1  0.5180400000000  0.4131250000000  0.4361270000000 1.0
C      1  0.4901930000000  0.5964070000000  0.5289890000000 1.0
C      1  0.5328830000000  0.5872210000000  0.5550000000000 1.0
C      1  0.4187550000000  0.4879420000000  0.4741950000000 1.0
C      1  0.4903110000000  0.4630610000000  0.4955720000000 1.0
C      1  0.4469350000000  0.4607950000000  0.4669650000000 1.0
C      1  0.5151950000000  0.4035640000000  0.5148230000000 1.0
C      1  0.4574120000000  0.5880400000000  0.5246640000000 1.0
C      1  0.5084380000000  0.4776910000000  0.4135460000000 1.0
C      1  0.5429600000000  0.4921860000000  0.3825090000000 1.0
C      1  0.5916110000000  0.4812750000000  0.4467530000000 1.0
C      1  0.5157820000000  0.4356770000000  0.4690810000000 1.0
C      1  0.5948050000000  0.5063590000000  0.5036310000000 1.0
C      1  0.4610930000000  0.4158690000000  0.4420890000000 1.0
C      1  0.5791710000000  0.5267510000000  0.5616980000000 1.0
C      1  0.4111150000000  0.5224930000000  0.4559840000000 1.0
C      1  0.4860150000000  0.5038130000000  0.5668010000000 1.0
C      1  0.4848590000000  0.5570930000000  0.5962730000000 1.0
C      1  0.5148820000000  0.4048090000000  0.4803870000000 1.0
C      1  0.4585220000000  0.4349890000000  0.4133620000000 1.0
C      1  0.4820030000000  0.4422170000000  0.5380600000000 1.0
C      1  0.5378130000000  0.6031770000000  0.4776490000000 1.0
C      1  0.5864920000000  0.4688790000000  0.4772020000000 1.0
C      1  0.4289280000000  0.4442220000000  0.4241930000000 1.0
C      1  0.4588300000000  0.5325970000000  0.4728930000000 1.0
C      1  0.5763060000000  0.4509610000000  0.4432090000000 1.0
C      1  0.4522100000000  0.5034130000000  0.4991760000000 1.0
C      1  0.5332100000000  0.5025640000000  0.4536440000000 1.0
C      1  0.5894070000000  0.5560090000000  0.5464510000000 1.0
C      1  0.5631570000000  0.4235870000000  0.5234040000000 1.0
C      1  0.4189010000000  0.5484730000000  0.5531860000000 1.0
C      1  0.4738230000000  0.5930680000000  0.4715990000000 1.0
C      1  0.5697060000000  0.5533820000000  0.5001550000000 1.0
C      1  0.4857140000000  0.5072130000000  0.5358030000000 1.0
C      1  0.5366560000000  0.4824040000000  0.4280310000000 1.0
C      1  0.4740150000000  0.5614170000000  0.4145430000000 1.0
C      1  0.4065310000000  0.4421130000000  0.5467940000000 1.0
C      1  0.5616600000000  0.4844380000000  0.4070850000000 1.0
C      1  0.5222280000000  0.5081170000000  0.3891620000000 1.0
C      1  0.5568040000000  0.4667920000000  0.5609040000000 1.0
C      1  0.4848710000000  0.4741640000000  0.3925070000000 1.0
C      1  0.4650160000000  0.4690770000000  0.4191430000000 1.0
C      1  0.4970010000000  0.4667140000000  0.5569800000000 1.0
C      1  0.4665680000000  0.4368040000000  0.5949650000000 1.0
C      1  0.4541480000000  0.5168750000000  0.5468150000000 1.0
C      1  0.4920080000000  0.4214620000000  0.4297180000000 1.0
C      1  0.5048480000000  0.5934970000000  0.4570970000000 1.0
C      1  0.4237410000000  0.5502710000000  0.4579530000000 1.0
C      1  0.5395930000000  0.5554090000000  0.4058990000000 1.0
C      1  0.4813940000000  0.5709520000000  0.5097230000000 1.0
C      1  0.5399340000000  0.4615180000000  0.5328330000000 1.0
C      1  0.4789490000000  0.5217070000000  0.4982250000000 1.0
C      1  0.4910640000000  0.5270880000000  0.4052510000000 1.0
C      1  0.4986150000000  0.4366890000000  0.6063780000000 1.0
C      1  0.5953830000000  0.5505620000000  0.4826270000000 1.0
C      1  0.5487140000000  0.5135590000000  0.6008980000000 1.0
C      1  0.4288840000000  0.4811690000000  0.5196570000000 1.0
C      1  0.5251540000000  0.5115660000000  0.5388490000000 1.0
C      1  0.4618470000000  0.5365820000000  0.5243270000000 1.0
C      1  0.5651020000000  0.4750580000000  0.5163540000000 1.0
C      1  0.5084440000000  0.5144730000000  0.4970270000000 1.0
C      1  0.4975380000000  0.4885600000000  0.5124740000000 1.0
C      1  0.5196290000000  0.5137770000000  0.5859740000000 1.0
C      1  0.4410060000000  0.4472990000000  0.5879660000000 1.0
C      1  0.3961990000000  0.4677820000000  0.4581200000000 1.0
C      1  0.4712290000000  0.5361250000000  0.6141700000000 1.0
C      1  0.4485890000000  0.5510820000000  0.4347490000000 1.0
C      1  0.5516720000000  0.4968650000000  0.5465690000000 1.0
C      1  0.5129470000000  0.4209910000000  0.5793990000000 1.0
C      1  0.4693780000000  0.4059530000000  0.4952430000000 1.0
C      1  0.5331110000000  0.6102330000000  0.5046570000000 1.0
C      1  0.4784410000000  0.4514970000000  0.4426240000000 1.0
C      1  0.5782550000000  0.5113210000000  0.4197220000000 1.0
C      1  0.6010330000000  0.5140920000000  0.4461550000000 1.0
C      1  0.5333070000000  0.4716660000000  0.4787620000000 1.0
C      1  0.4126990000000  0.4564780000000  0.5753090000000 1.0
C      1  0.4008120000000  0.4458280000000  0.4348570000000 1.0
C      1  0.5943250000000  0.5713250000000  0.4636750000000 1.0
C      1  0.5641590000000  0.5013590000000  0.4493100000000 1.0
C      1  0.4014000000000  0.5302370000000  0.5228020000000 1.0
C      1  0.4547060000000  0.4344730000000  0.5305810000000 1.0
C      1  0.5250920000000  0.5592000000000  0.4539320000000 1.0
C      1  0.4866640000000  0.4377350000000  0.5693510000000 1.0
C      1  0.5300820000000  0.5397000000000  0.6038500000000 1.0
C      1  0.4817280000000  0.5118280000000  0.6239040000000 1.0
C      1  0.5732930000000  0.4376440000000  0.4747070000000 1.0
C      1  0.5419030000000  0.4635400000000  0.5911430000000 1.0
C      1  0.6032690000000  0.4754600000000  0.5027340000000 1.0
C      1  0.5537630000000  0.5997560000000  0.5218340000000 1.0
C      1  0.4939360000000  0.5394040000000  0.5307140000000 1.0
C      1  0.4615100000000  0.5228820000000  0.5777190000000 1.0
C      1  0.4552390000000  0.5534480000000  0.4989290000000 1.0
C      1  0.5412110000000  0.4291960000000  0.4478690000000 1.0
C      1  0.4131000000000  0.4859950000000  0.5724840000000 1.0
C      1  0.5056720000000  0.5553560000000  0.4029680000000 1.0
C      1  0.5690670000000  0.5771220000000  0.4556910000000 1.0
C      1  0.4201450000000  0.5671030000000  0.4874020000000 1.0
C      1  0.5611690000000  0.5067610000000  0.5035210000000 1.0
C      1  0.5692840000000  0.4146390000000  0.5475530000000 1.0
C      1  0.3919770000000  0.5002100000000  0.4475820000000 1.0
C      1  0.3987560000000  0.5067410000000  0.4910480000000 1.0
C      1  0.5157400000000  0.4402300000000  0.5339260000000 1.0
C      1  0.4352330000000  0.4178150000000  0.4556320000000 1.0
C      1  0.5082770000000  0.4541150000000  0.4456400000000 1.0
C      1  0.4170420000000  0.4119550000000  0.5495240000000 1.0
C      1  0.4589000000000  0.5246060000000  0.4164520000000 1.0
C      1  0.5525970000000  0.5702360000000  0.5486870000000 1.0
C      1  0.5572220000000  0.4513700000000  0.4148080000000 1.0
C      1  0.4323410000000  0.4360570000000  0.4820450000000 1.0
C      1  0.4747840000000  0.4439280000000  0.4740370000000 1.0
C      1  0.5049990000000  0.6141670000000  0.5089820000000 1.0
C      1  0.5622260000000  0.4189880000000  0.5732090000000 1.0
C      1  0.4902190000000  0.6172760000000  0.4857400000000 1.0
C      1  0.4222220000000  0.5292700000000  0.5801000000000 1.0
C      1  0.5775020000000  0.5388820000000  0.4475960000000 1.0
C      1  0.4868160000000  0.5032120000000  0.3813660000000 1.0
C      1  0.5031170000000  0.5660490000000  0.4771070000000 1.0
C      1  0.5091940000000  0.4827460000000  0.4570300000000 1.0
C      1  0.5836100000000  0.4976180000000  0.5347940000000 1.0
C      1  0.5063170000000  0.4108280000000  0.5474480000000 1.0
C      1  0.5559240000000  0.5738430000000  0.4271910000000 1.0
C      1  0.5117220000000  0.4660670000000  0.6069390000000 1.0
C      1  0.4328730000000  0.4682210000000  0.4422150000000 1.0
C      1  0.4181060000000  0.4903490000000  0.4335470000000 1.0
C      1  0.4854520000000  0.4870240000000  0.6125390000000 1.0
C      1  0.5385000000000  0.4231720000000  0.5062450000000 1.0
C      1  0.4678050000000  0.4847890000000  0.5871450000000 1.0
C      1  0.4582750000000  0.5171320000000  0.3855890000000 1.0
C      1  0.5603440000000  0.4876920000000  0.4787780000000 1.0
C      1  0.5997000000000  0.4596250000000  0.5287400000000 1.0
C      1  0.4650710000000  0.5616670000000  0.5687890000000 1.0
C      1  0.5506720000000  0.5394960000000  0.5507070000000 1.0
C      1  0.5255080000000  0.5248070000000  0.4745620000000 1.0
C      1  0.6033990000000  0.5476190000000  0.5735490000000 1.0
C      1  0.5121810000000  0.5611380000000  0.6023610000000 1.0
C      1  0.5780060000000  0.4449810000000  0.5077060000000 1.0
C      1  0.5900370000000  0.4643890000000  0.5554660000000 1.0
C      1  0.4645820000000  0.5642380000000  0.4617720000000 1.0
C      1  0.5364590000000  0.5525130000000  0.5023380000000 1.0
C      1  0.5579090000000  0.5352140000000  0.4737670000000 1.0
C      1  0.4584740000000  0.4976900000000  0.4337460000000 1.0
C      1  0.5070640000000  0.5534900000000  0.5056760000000 1.0
C      1  0.4018370000000  0.5399520000000  0.4911490000000 1.0
C      1  0.6029950000000  0.5234720000000  0.4787820000000 1.0
C      1  0.4465670000000  0.5473630000000  0.5935520000000 1.0
C      1  0.4498270000000  0.4245980000000  0.5027430000000 1.0
C      1  0.4100680000000  0.4581600000000  0.4878490000000 1.0
END
