TITL C-2778423-5760-280 -0.00074928721139799 125000 -252.060402872192 0 0 44 (C1) n - 1
REM
REM in /home/nfs/bkarasulu/CARBON/AIRSS/Generating-Clusters/REBO/Only-C1/SD-CG/HFTN-CG
REM
REM
REM
REM
REM
REM ./C.cell (11c1c37f851c82e70ff6c80c92926a4b)
REM
REM compiler GCC version 9.2.1 20190827 (Red Hat 9.2.1-1)
REM options -cpp -mtune=generic -march=x86-64 -g -O0 -fpre-include=/usr/include/finclude/math-vector-fortran.h
REM seed 1285461787 -982764081 1462269587 2011080705 437957977 376464655 -783148949 -196763529 -340353168 -488776877 1132722080 -1456889376 575046030 708578720 -1645910539 460424268 478409969 -1136861061 1513641866 1417315717 -1895920848 1279165803 1901165507 476235776 -1732663147 1005497671 -358005044 -1402991294 377394639 956405183 -873381105 -1455514865 1018502469
REM
CELL 1.54180   50.00000   50.00000   50.00000   90.00000   90.00000   90.00000
LATT -1
SFAC C  
C      1  0.4988480000000  0.4629530000000  0.5438650000000 1.0
C      1  0.4691690000000  0.5031880000000  0.4441960000000 1.0
C      1  0.4984530000000  0.4368250000000  0.5275630000000 1.0
C      1  0.4846820000000  0.5057640000000  0.5047720000000 1.0
C      1  0.4388350000000  0.5654130000000  0.5186730000000 1.0
C      1  0.5017070000000  0.4685320000000  0.4699010000000 1.0
C      1  0.4699450000000  0.4346480000000  0.5086690000000 1.0
C      1  0.5145390000000  0.4456390000000  0.4810450000000 1.0
C      1  0.5499380000000  0.4523120000000  0.5326140000000 1.0
C      1  0.4872600000000  0.5879090000000  0.5380800000000 1.0
C      1  0.4979390000000  0.4282700000000  0.4955290000000 1.0
C      1  0.4559040000000  0.4738290000000  0.4805200000000 1.0
C      1  0.4202530000000  0.5207410000000  0.4854040000000 1.0
C      1  0.4829620000000  0.4829260000000  0.4867910000000 1.0
C      1  0.5434990000000  0.4796090000000  0.5356720000000 1.0
C      1  0.5377950000000  0.5393450000000  0.5422590000000 1.0
C      1  0.4930640000000  0.5563650000000  0.5334510000000 1.0
C      1  0.5277540000000  0.5111290000000  0.4425460000000 1.0
C      1  0.5454750000000  0.5357790000000  0.4457550000000 1.0
C      1  0.5154980000000  0.4853670000000  0.5381060000000 1.0
C      1  0.5306730000000  0.4313790000000  0.5180990000000 1.0
C      1  0.4502350000000  0.4500240000000  0.4954120000000 1.0
C      1  0.5662190000000  0.5358010000000  0.4634770000000 1.0
C      1  0.4864240000000  0.5757050000000  0.4846980000000 1.0
C      1  0.5759140000000  0.5195090000000  0.4830390000000 1.0
C      1  0.5604550000000  0.5249050000000  0.5375000000000 1.0
C      1  0.4233640000000  0.5055000000000  0.4628640000000 1.0
C      1  0.4375790000000  0.5265580000000  0.5069990000000 1.0
C      1  0.5381860000000  0.4046090000000  0.5162710000000 1.0
C      1  0.5108580000000  0.5354340000000  0.5346320000000 1.0
C      1  0.5037500000000  0.5088680000000  0.5260380000000 1.0
C      1  0.4636830000000  0.5685550000000  0.5269960000000 1.0
C      1  0.4473000000000  0.4909290000000  0.4584040000000 1.0
C      1  0.4283350000000  0.5296370000000  0.5331480000000 1.0
C      1  0.5614870000000  0.4993940000000  0.5253350000000 1.0
C      1  0.4196540000000  0.5325280000000  0.5577060000000 1.0
C      1  0.4766330000000  0.5527240000000  0.4926230000000 1.0
C      1  0.5410210000000  0.4527090000000  0.4934560000000 1.0
C      1  0.4661590000000  0.5281360000000  0.5011010000000 1.0
C      1  0.4942420000000  0.5122460000000  0.4394700000000 1.0
C      1  0.5454800000000  0.4854690000000  0.4570920000000 1.0
C      1  0.5160430000000  0.4806270000000  0.4497710000000 1.0
C      1  0.5545540000000  0.4757690000000  0.4826900000000 1.0
C      1  0.5682290000000  0.4964480000000  0.4977670000000 1.0
END
