TITL C-2778423-5760-543 -0.00250262082275846 125000 -459.022037560709 0 0 79 (C1) n - 1
REM
REM in /home/nfs/bkarasulu/CARBON/AIRSS/Generating-Clusters/REBO/Only-C1/SD-CG/HFTN-CG
REM
REM
REM
REM
REM
REM ./C.cell (11c1c37f851c82e70ff6c80c92926a4b)
REM
REM compiler GCC version 9.2.1 20190827 (Red Hat 9.2.1-1)
REM options -cpp -mtune=generic -march=x86-64 -g -O0 -fpre-include=/usr/include/finclude/math-vector-fortran.h
REM seed 270536111 1362797540 95460845 798193813 -1371917025 1878321919 1746749718 -944306552 -931485898 224175205 1768487774 386191516 -871854758 -1264385934 -1405995067 -767280455 -1878022596 -1332129033 1634181552 2120991850 -1478689648 -1767229246 1281243701 666965763 -777746625 -1579766482 -841419055 -942211064 1522781034 -1114466548 -514933791 1524565699 1122194443
REM
CELL 1.54180   50.00000   50.00000   50.00000   90.00000   90.00000   90.00000
LATT -1
SFAC C  
C      1  0.4771620000000  0.4862090000000  0.4274590000000 1.0
C      1  0.4397440000000  0.5592700000000  0.5392430000000 1.0
C      1  0.5147200000000  0.4336860000000  0.5503420000000 1.0
C      1  0.4706470000000  0.5701260000000  0.4546700000000 1.0
C      1  0.5801480000000  0.4900400000000  0.4615840000000 1.0
C      1  0.5148340000000  0.5223980000000  0.5128970000000 1.0
C      1  0.4878060000000  0.5009220000000  0.4554050000000 1.0
C      1  0.4587170000000  0.5022870000000  0.5548620000000 1.0
C      1  0.4663400000000  0.4424990000000  0.5434220000000 1.0
C      1  0.5705030000000  0.4864130000000  0.4915890000000 1.0
C      1  0.5877340000000  0.4438350000000  0.5117500000000 1.0
C      1  0.4796820000000  0.4680980000000  0.5017100000000 1.0
C      1  0.4971640000000  0.5156440000000  0.5793470000000 1.0
C      1  0.5337290000000  0.5163910000000  0.4297470000000 1.0
C      1  0.4222780000000  0.5060120000000  0.5244940000000 1.0
C      1  0.5390010000000  0.4542310000000  0.5111430000000 1.0
C      1  0.4136720000000  0.5066750000000  0.5722830000000 1.0
C      1  0.5285990000000  0.5176930000000  0.4876160000000 1.0
C      1  0.4607410000000  0.4447030000000  0.5131860000000 1.0
C      1  0.5041950000000  0.5477890000000  0.5181120000000 1.0
C      1  0.4484240000000  0.5431160000000  0.4205910000000 1.0
C      1  0.5263970000000  0.4569500000000  0.5394210000000 1.0
C      1  0.4849400000000  0.5812960000000  0.4762020000000 1.0
C      1  0.4731760000000  0.4330650000000  0.4835810000000 1.0
C      1  0.5779350000000  0.5082400000000  0.5113110000000 1.0
C      1  0.5247690000000  0.4905010000000  0.4264040000000 1.0
C      1  0.4884220000000  0.4258850000000  0.5500050000000 1.0
C      1  0.5085680000000  0.5384420000000  0.5674180000000 1.0
C      1  0.4263500000000  0.4926760000000  0.5003030000000 1.0
C      1  0.4655920000000  0.4859230000000  0.4850810000000 1.0
C      1  0.5111670000000  0.4998010000000  0.4671350000000 1.0
C      1  0.4317120000000  0.5036850000000  0.4685820000000 1.0
C      1  0.5358680000000  0.4720760000000  0.4492060000000 1.0
C      1  0.5032050000000  0.5021130000000  0.5290680000000 1.0
C      1  0.5156120000000  0.3725310000000  0.4805430000000 1.0
C      1  0.5676020000000  0.4704600000000  0.4464680000000 1.0
C      1  0.4569560000000  0.5050240000000  0.4469090000000 1.0
C      1  0.5356260000000  0.5657530000000  0.4875050000000 1.0
C      1  0.5134080000000  0.5805360000000  0.4770940000000 1.0
C      1  0.5207950000000  0.4440650000000  0.4853090000000 1.0
C      1  0.5520290000000  0.5302890000000  0.4482350000000 1.0
C      1  0.4637880000000  0.5252870000000  0.5133800000000 1.0
C      1  0.5849940000000  0.5335480000000  0.5810790000000 1.0
C      1  0.4310920000000  0.5058220000000  0.5514270000000 1.0
C      1  0.4714210000000  0.5840880000000  0.5012320000000 1.0
C      1  0.4448080000000  0.5463430000000  0.5159330000000 1.0
C      1  0.5047860000000  0.4314390000000  0.4343830000000 1.0
C      1  0.4630410000000  0.4517920000000  0.4637800000000 1.0
C      1  0.5775410000000  0.5167960000000  0.4515620000000 1.0
C      1  0.4755080000000  0.5092020000000  0.5337240000000 1.0
C      1  0.5050620000000  0.3952180000000  0.4727450000000 1.0
C      1  0.4412290000000  0.5346050000000  0.4686930000000 1.0
C      1  0.4846310000000  0.4618380000000  0.4481070000000 1.0
C      1  0.4616820000000  0.4630030000000  0.5613180000000 1.0
C      1  0.4800770000000  0.5784400000000  0.5260060000000 1.0
C      1  0.6077500000000  0.4280720000000  0.5178920000000 1.0
C      1  0.4930460000000  0.5564410000000  0.5487560000000 1.0
C      1  0.5429520000000  0.4908940000000  0.4760520000000 1.0
C      1  0.4749300000000  0.4893030000000  0.5783130000000 1.0
C      1  0.5674190000000  0.4598330000000  0.5055160000000 1.0
C      1  0.4650510000000  0.5139120000000  0.4873090000000 1.0
C      1  0.5520180000000  0.5522170000000  0.5356470000000 1.0
C      1  0.4362900000000  0.4632040000000  0.5026250000000 1.0
C      1  0.5160210000000  0.4521110000000  0.4578150000000 1.0
C      1  0.5130540000000  0.5789870000000  0.5295010000000 1.0
C      1  0.4395950000000  0.4709680000000  0.4699370000000 1.0
C      1  0.5357280000000  0.5395970000000  0.5615190000000 1.0
C      1  0.4937390000000  0.4195700000000  0.4643740000000 1.0
C      1  0.4533860000000  0.5496130000000  0.4465320000000 1.0
C      1  0.5389740000000  0.5671810000000  0.5164560000000 1.0
C      1  0.5061780000000  0.4627770000000  0.5055030000000 1.0
C      1  0.5686840000000  0.5344340000000  0.5592940000000 1.0
C      1  0.4116530000000  0.5701780000000  0.4881940000000 1.0
C      1  0.5412420000000  0.5412030000000  0.4736130000000 1.0
C      1  0.5155380000000  0.4821240000000  0.5465640000000 1.0
C      1  0.5772050000000  0.5213920000000  0.5316160000000 1.0
C      1  0.5076260000000  0.4864040000000  0.5735060000000 1.0
C      1  0.4311900000000  0.5516140000000  0.4916520000000 1.0
C      1  0.5051060000000  0.4632000000000  0.4212150000000 1.0
END
