TITL C-2778427-5640-330 0.00216322479115266 125000 -188.265476060847 0 0 34 (C1) n - 1
REM
REM in /home/nfs/bkarasulu/CARBON/AIRSS/Generating-Clusters/REBO/Only-C1/SD-CG/HFTN-CG
REM
REM
REM
REM
REM
REM ./C.cell (11c1c37f851c82e70ff6c80c92926a4b)
REM
REM compiler GCC version 9.2.1 20190827 (Red Hat 9.2.1-1)
REM options -cpp -mtune=generic -march=x86-64 -g -O0 -fpre-include=/usr/include/finclude/math-vector-fortran.h
REM seed 1818731287 1033267056 475715743 182463097 1518440941 -739498575 -53617947 870251037 1649597553 -1783016751 1875052478 1407342724 -616238082 1835241516 1209569234 2136886999 758706847 141998349 -1691365335 -322586698 1469166804 -794495991 -1444218207 1738042047 373490253 -1611188622 689965716 1843527620 392911022 38656637 -1233812757 -1138236599 -1935728745
REM
CELL 1.54180   50.00000   50.00000   50.00000   90.00000   90.00000   90.00000
LATT -1
SFAC C  
C      1  0.4795090000000  0.4730580000000  0.5861950000000 1.0
C      1  0.5307110000000  0.4454090000000  0.5555330000000 1.0
C      1  0.5523860000000  0.5383900000000  0.4948820000000 1.0
C      1  0.4894780000000  0.4484960000000  0.5206010000000 1.0
C      1  0.4488120000000  0.5087900000000  0.4828870000000 1.0
C      1  0.4734940000000  0.4705540000000  0.4514750000000 1.0
C      1  0.5025680000000  0.4570980000000  0.5453140000000 1.0
C      1  0.5511400000000  0.4645770000000  0.4714610000000 1.0
C      1  0.4570180000000  0.5608920000000  0.5042810000000 1.0
C      1  0.5312600000000  0.4579720000000  0.4525010000000 1.0
C      1  0.4884950000000  0.4777490000000  0.5610210000000 1.0
C      1  0.5532720000000  0.4820560000000  0.4909770000000 1.0
C      1  0.5108170000000  0.4389240000000  0.4597970000000 1.0
C      1  0.4945530000000  0.5146360000000  0.5252990000000 1.0
C      1  0.4948570000000  0.4998500000000  0.4775230000000 1.0
C      1  0.4788350000000  0.5723490000000  0.4578760000000 1.0
C      1  0.5766750000000  0.4982810000000  0.5358190000000 1.0
C      1  0.4845690000000  0.4479390000000  0.4676640000000 1.0
C      1  0.4797600000000  0.4545040000000  0.4962670000000 1.0
C      1  0.5073760000000  0.5469260000000  0.4886780000000 1.0
C      1  0.4557940000000  0.5342020000000  0.4876450000000 1.0
C      1  0.4867030000000  0.5022350000000  0.5475250000000 1.0
C      1  0.5086580000000  0.5172270000000  0.4979160000000 1.0
C      1  0.4960480000000  0.4908320000000  0.4493000000000 1.0
C      1  0.5204030000000  0.4806390000000  0.4385810000000 1.0
C      1  0.4477170000000  0.4830130000000  0.4634180000000 1.0
C      1  0.5393190000000  0.5104680000000  0.5013440000000 1.0
C      1  0.4703720000000  0.4832980000000  0.4892550000000 1.0
C      1  0.4801590000000  0.5564020000000  0.4806270000000 1.0
C      1  0.4381600000000  0.5912980000000  0.5435530000000 1.0
C      1  0.5372470000000  0.4692280000000  0.5391730000000 1.0
C      1  0.4474630000000  0.5762990000000  0.5241800000000 1.0
C      1  0.5534230000000  0.4892430000000  0.5233240000000 1.0
C      1  0.5329530000000  0.5571660000000  0.4881090000000 1.0
END
