TITL C-2778426-5645-24 0.000866594195665408 125000 -130.817794789533 0 0 24 (C1) n - 1
REM
REM in /home/nfs/bkarasulu/CARBON/AIRSS/Generating-Clusters/REBO/Only-C1/SD-CG/HFTN-CG
REM
REM
REM
REM
REM
REM ./C.cell (11c1c37f851c82e70ff6c80c92926a4b)
REM
REM compiler GCC version 9.2.1 20190827 (Red Hat 9.2.1-1)
REM options -cpp -mtune=generic -march=x86-64 -g -O0 -fpre-include=/usr/include/finclude/math-vector-fortran.h
REM seed -721364628 -878855477 1824881509 30819491 1474401289 280150064 -1887934665 1640016795 -1866575824 -1728838352 -1238712959 -1995986575 -1543537658 659942163 -1529838624 908301812 1454132879 211569269 1648144559 1918814224 1972429805 927072594 1394550745 -320693051 -1898342403 -2138873700 -216080148 1321203436 422613628 1358835446 -1748176555 -966171452 -1105536992
REM
CELL 1.54180   50.00000   50.00000   50.00000   90.00000   90.00000   90.00000
LATT -1
SFAC C  
C      1  0.4768670000000  0.5400000000000  0.5806500000000 1.0
C      1  0.5300050000000  0.4858750000000  0.4536460000000 1.0
C      1  0.5163340000000  0.4672900000000  0.4716300000000 1.0
C      1  0.4646430000000  0.4193610000000  0.5097810000000 1.0
C      1  0.5486410000000  0.4928300000000  0.4967650000000 1.0
C      1  0.4870360000000  0.4708700000000  0.4764480000000 1.0
C      1  0.4856970000000  0.5384310000000  0.5560480000000 1.0
C      1  0.5448160000000  0.5118590000000  0.5179900000000 1.0
C      1  0.5400150000000  0.5322280000000  0.4691720000000 1.0
C      1  0.5207700000000  0.5418950000000  0.4876180000000 1.0
C      1  0.4803510000000  0.4986910000000  0.4874110000000 1.0
C      1  0.4746870000000  0.4503770000000  0.5037200000000 1.0
C      1  0.5334480000000  0.4676580000000  0.4955730000000 1.0
C      1  0.4818620000000  0.4975840000000  0.5159050000000 1.0
C      1  0.5464540000000  0.5044770000000  0.4692690000000 1.0
C      1  0.4658790000000  0.4476920000000  0.4695500000000 1.0
C      1  0.4787990000000  0.5237460000000  0.4744160000000 1.0
C      1  0.4930540000000  0.5477670000000  0.4810550000000 1.0
C      1  0.4946740000000  0.5529090000000  0.5282910000000 1.0
C      1  0.4951990000000  0.5196700000000  0.5298990000000 1.0
C      1  0.4578360000000  0.4222020000000  0.4809620000000 1.0
C      1  0.4833160000000  0.5634150000000  0.5033940000000 1.0
C      1  0.4771110000000  0.4720560000000  0.5250000000000 1.0
C      1  0.5225050000000  0.5311150000000  0.5158070000000 1.0
END
