TITL C-2778432-5617-1235 0.0804145021572778 125000 -446.603620589405 0 0 78 (C1) n - 1
REM
REM in /home/nfs/bkarasulu/CARBON/AIRSS/Generating-Clusters/REBO/Only-C1/SD-CG/HFTN-CG
REM
REM
REM
REM
REM
REM ./C.cell (11c1c37f851c82e70ff6c80c92926a4b)
REM
REM compiler GCC version 9.2.1 20190827 (Red Hat 9.2.1-1)
REM options -cpp -mtune=generic -march=x86-64 -g -O0 -fpre-include=/usr/include/finclude/math-vector-fortran.h
REM seed 1898668507 -1942582793 -2021297370 -1953722692 1847601972 -1158925142 -1152716320 112870463 1899051510 1527659282 1341550528 -37932369 -2014535479 986511436 1983613572 426763771 826610934 -557716498 1944105733 407421948 -2021583464 -1898388927 -267622325 635993457 1434240238 272787845 -2074244107 1944439722 -1146943917 -992430037 987554254 -1618604867 1807267895
REM
CELL 1.54180   50.00000   50.00000   50.00000   90.00000   90.00000   90.00000
LATT -1
SFAC C  
C      1  0.5706930000000  0.4904550000000  0.4418980000000 1.0
C      1  0.5141950000000  0.5124940000000  0.5591010000000 1.0
C      1  0.4345680000000  0.4505730000000  0.4889150000000 1.0
C      1  0.5204780000000  0.4494410000000  0.4298860000000 1.0
C      1  0.5187040000000  0.5620790000000  0.4804640000000 1.0
C      1  0.5293860000000  0.5634080000000  0.5106920000000 1.0
C      1  0.4775850000000  0.4916540000000  0.4752060000000 1.0
C      1  0.4686630000000  0.5118580000000  0.5130980000000 1.0
C      1  0.5494890000000  0.4278970000000  0.5102740000000 1.0
C      1  0.5190840000000  0.5374420000000  0.4367750000000 1.0
C      1  0.5309640000000  0.4775960000000  0.4717210000000 1.0
C      1  0.4047600000000  0.5412660000000  0.5112020000000 1.0
C      1  0.5371680000000  0.5375650000000  0.5565780000000 1.0
C      1  0.4663900000000  0.4529030000000  0.4509890000000 1.0
C      1  0.5259850000000  0.5109140000000  0.4659290000000 1.0
C      1  0.5511300000000  0.5032390000000  0.5166000000000 1.0
C      1  0.4509930000000  0.5116640000000  0.5423440000000 1.0
C      1  0.4511490000000  0.5062270000000  0.4886530000000 1.0
C      1  0.5356170000000  0.5486580000000  0.4569980000000 1.0
C      1  0.4711930000000  0.4535390000000  0.5203180000000 1.0
C      1  0.4740970000000  0.5417100000000  0.4804850000000 1.0
C      1  0.5060590000000  0.5304430000000  0.4767530000000 1.0
C      1  0.5867300000000  0.4814560000000  0.4621780000000 1.0
C      1  0.5465760000000  0.5050370000000  0.5562620000000 1.0
C      1  0.5455360000000  0.4747700000000  0.4990080000000 1.0
C      1  0.4292030000000  0.4905090000000  0.5366860000000 1.0
C      1  0.4705680000000  0.5623210000000  0.5014170000000 1.0
C      1  0.4652390000000  0.4572530000000  0.5565280000000 1.0
C      1  0.5907370000000  0.4979070000000  0.5162370000000 1.0
C      1  0.5971580000000  0.5246730000000  0.5145370000000 1.0
C      1  0.4049070000000  0.5156560000000  0.5020840000000 1.0
C      1  0.5723470000000  0.4922330000000  0.5408720000000 1.0
C      1  0.5461330000000  0.5350920000000  0.5179920000000 1.0
C      1  0.4247190000000  0.5576860000000  0.5195180000000 1.0
C      1  0.5194900000000  0.4477960000000  0.4634610000000 1.0
C      1  0.5459090000000  0.4720760000000  0.5411070000000 1.0
C      1  0.4878580000000  0.4472030000000  0.4685110000000 1.0
C      1  0.4902710000000  0.4673690000000  0.4954200000000 1.0
C      1  0.5510800000000  0.4456260000000  0.5278590000000 1.0
C      1  0.5329370000000  0.5643280000000  0.5450000000000 1.0
C      1  0.5159020000000  0.4829410000000  0.5433950000000 1.0
C      1  0.5580590000000  0.5354670000000  0.4649710000000 1.0
C      1  0.5211710000000  0.4550130000000  0.5030380000000 1.0
C      1  0.4968970000000  0.5467230000000  0.5478390000000 1.0
C      1  0.4383800000000  0.4600270000000  0.5414150000000 1.0
C      1  0.4653830000000  0.4808990000000  0.4388640000000 1.0
C      1  0.4978810000000  0.5212880000000  0.5052860000000 1.0
C      1  0.4884230000000  0.5827180000000  0.5050540000000 1.0
C      1  0.5084700000000  0.5761010000000  0.5578470000000 1.0
C      1  0.4642920000000  0.5412360000000  0.5449370000000 1.0
C      1  0.4969780000000  0.5797660000000  0.4662790000000 1.0
C      1  0.4401310000000  0.4643530000000  0.4646460000000 1.0
C      1  0.5550950000000  0.5101230000000  0.4834950000000 1.0
C      1  0.4499040000000  0.4273880000000  0.4937900000000 1.0
C      1  0.4714430000000  0.5418260000000  0.4438230000000 1.0
C      1  0.5125030000000  0.5379200000000  0.5237820000000 1.0
C      1  0.5769270000000  0.4859660000000  0.4916390000000 1.0
C      1  0.4238760000000  0.4969800000000  0.4977970000000 1.0
C      1  0.5035180000000  0.4924410000000  0.5147980000000 1.0
C      1  0.4416030000000  0.4952130000000  0.4515530000000 1.0
C      1  0.5450560000000  0.4982330000000  0.4406400000000 1.0
C      1  0.4972850000000  0.4627860000000  0.5551210000000 1.0
C      1  0.5171220000000  0.4808340000000  0.4412070000000 1.0
C      1  0.5251160000000  0.4253570000000  0.4873880000000 1.0
C      1  0.4838360000000  0.5197520000000  0.5634820000000 1.0
C      1  0.5130810000000  0.4329350000000  0.5258930000000 1.0
C      1  0.4729680000000  0.4131760000000  0.4937020000000 1.0
C      1  0.4919050000000  0.4963830000000  0.4446190000000 1.0
C      1  0.4994460000000  0.4082540000000  0.4913500000000 1.0
C      1  0.4251700000000  0.4681570000000  0.5111310000000 1.0
C      1  0.4696150000000  0.4908030000000  0.5612410000000 1.0
C      1  0.4882940000000  0.4314720000000  0.5319180000000 1.0
C      1  0.5769710000000  0.5431790000000  0.5171640000000 1.0
C      1  0.4945530000000  0.5252720000000  0.4358530000000 1.0
C      1  0.4755700000000  0.4836200000000  0.5288080000000 1.0
C      1  0.4524720000000  0.5575620000000  0.5228420000000 1.0
C      1  0.4504890000000  0.5250560000000  0.4620970000000 1.0
C      1  0.4784630000000  0.5707580000000  0.4517410000000 1.0
END
