TITL C-2778431-5191-894 -0.00208447537093762 125000 -450.271195301533 0 0 79 (C1) n - 1
REM
REM in /home/nfs/bkarasulu/CARBON/AIRSS/Generating-Clusters/REBO/Only-C1/SD-CG/HFTN-CG
REM
REM
REM
REM
REM
REM ./C.cell (11c1c37f851c82e70ff6c80c92926a4b)
REM
REM compiler GCC version 9.2.1 20190827 (Red Hat 9.2.1-1)
REM options -cpp -mtune=generic -march=x86-64 -g -O0 -fpre-include=/usr/include/finclude/math-vector-fortran.h
REM seed 430835804 1421315957 -1278700974 2013526878 -153705166 -22967231 -114584098 -1302107030 -68404609 -1574158895 -85373261 4353468 1063710698 -137358570 -406901130 259681639 757340398 738088809 -226435997 -1756561539 -1684704250 -808832169 613979408 -1835961597 -689704736 -1118729020 -618468862 -413325180 -845713316 -758563091 -1752359919 973957102 1694668676
REM
CELL 1.54180   50.00000   50.00000   50.00000   90.00000   90.00000   90.00000
LATT -1
SFAC C  
C      1  0.5250930000000  0.5218810000000  0.5061730000000 1.0
C      1  0.4411870000000  0.4981290000000  0.5059320000000 1.0
C      1  0.4635590000000  0.5459260000000  0.4445830000000 1.0
C      1  0.5126940000000  0.4776460000000  0.5356160000000 1.0
C      1  0.5073270000000  0.4344320000000  0.4614250000000 1.0
C      1  0.5159900000000  0.5851360000000  0.5221330000000 1.0
C      1  0.4453090000000  0.5472240000000  0.5100410000000 1.0
C      1  0.5771840000000  0.5121000000000  0.4938330000000 1.0
C      1  0.5195710000000  0.4594820000000  0.4672620000000 1.0
C      1  0.4763400000000  0.4977500000000  0.5725660000000 1.0
C      1  0.5374910000000  0.4298690000000  0.5047880000000 1.0
C      1  0.4232690000000  0.5030930000000  0.5348580000000 1.0
C      1  0.4997720000000  0.5124510000000  0.5755100000000 1.0
C      1  0.3979310000000  0.5172420000000  0.5419930000000 1.0
C      1  0.5246870000000  0.4822340000000  0.4206720000000 1.0
C      1  0.5552830000000  0.4520560000000  0.4888300000000 1.0
C      1  0.4280410000000  0.4479490000000  0.5119300000000 1.0
C      1  0.4690050000000  0.5338850000000  0.4894870000000 1.0
C      1  0.4967890000000  0.4253110000000  0.5331880000000 1.0
C      1  0.5897680000000  0.5314010000000  0.5095610000000 1.0
C      1  0.4381910000000  0.5011020000000  0.4592720000000 1.0
C      1  0.4511740000000  0.4310760000000  0.5111520000000 1.0
C      1  0.4466910000000  0.4541390000000  0.4758330000000 1.0
C      1  0.4819110000000  0.5627970000000  0.4472130000000 1.0
C      1  0.4506540000000  0.5091160000000  0.5542040000000 1.0
C      1  0.4952830000000  0.5887580000000  0.5476050000000 1.0
C      1  0.5349190000000  0.5658590000000  0.4539170000000 1.0
C      1  0.5079040000000  0.4605610000000  0.5641310000000 1.0
C      1  0.5428650000000  0.5533240000000  0.5535950000000 1.0
C      1  0.4626470000000  0.5205780000000  0.4629230000000 1.0
C      1  0.5067460000000  0.5644910000000  0.4680000000000 1.0
C      1  0.4440440000000  0.4734020000000  0.4528450000000 1.0
C      1  0.5157990000000  0.5100400000000  0.4679130000000 1.0
C      1  0.4825420000000  0.5155350000000  0.5314300000000 1.0
C      1  0.5001380000000  0.4953850000000  0.4915160000000 1.0
C      1  0.4633560000000  0.5670840000000  0.4934510000000 1.0
C      1  0.4963860000000  0.4548140000000  0.5162790000000 1.0
C      1  0.4658960000000  0.5369390000000  0.5451070000000 1.0
C      1  0.5390730000000  0.4663060000000  0.4032950000000 1.0
C      1  0.4222630000000  0.4733520000000  0.5180940000000 1.0
C      1  0.5347960000000  0.4863390000000  0.4523090000000 1.0
C      1  0.5425860000000  0.5362370000000  0.4433910000000 1.0
C      1  0.5360280000000  0.5343650000000  0.4771800000000 1.0
C      1  0.5527420000000  0.4790270000000  0.4801700000000 1.0
C      1  0.5822350000000  0.5526190000000  0.5246330000000 1.0
C      1  0.5112860000000  0.4332560000000  0.5596070000000 1.0
C      1  0.5111990000000  0.4692160000000  0.4926860000000 1.0
C      1  0.4668820000000  0.4349890000000  0.5344320000000 1.0
C      1  0.5550450000000  0.4523640000000  0.5208620000000 1.0
C      1  0.4663900000000  0.4194000000000  0.4894300000000 1.0
C      1  0.4744760000000  0.4985060000000  0.5067320000000 1.0
C      1  0.5386910000000  0.4843830000000  0.5556140000000 1.0
C      1  0.4727760000000  0.4587390000000  0.4919920000000 1.0
C      1  0.4906610000000  0.4813150000000  0.4186750000000 1.0
C      1  0.4770790000000  0.5620720000000  0.5414430000000 1.0
C      1  0.5504470000000  0.4998610000000  0.5052720000000 1.0
C      1  0.4947040000000  0.4202370000000  0.4833120000000 1.0
C      1  0.4814680000000  0.4712320000000  0.4660400000000 1.0
C      1  0.5577290000000  0.5642770000000  0.5321160000000 1.0
C      1  0.5425850000000  0.5667430000000  0.4855800000000 1.0
C      1  0.5416150000000  0.5771260000000  0.5119770000000 1.0
C      1  0.4709520000000  0.4706340000000  0.4358730000000 1.0
C      1  0.4634450000000  0.4591510000000  0.5481630000000 1.0
C      1  0.4579030000000  0.4839930000000  0.5326950000000 1.0
C      1  0.5228780000000  0.5317060000000  0.5593190000000 1.0
C      1  0.5128450000000  0.5117260000000  0.5339380000000 1.0
C      1  0.4310230000000  0.4318060000000  0.4755530000000 1.0
C      1  0.5310260000000  0.5034970000000  0.5742540000000 1.0
C      1  0.5521980000000  0.4795280000000  0.5297490000000 1.0
C      1  0.4953660000000  0.5636050000000  0.5171220000000 1.0
C      1  0.5012830000000  0.5435080000000  0.4943510000000 1.0
C      1  0.4827550000000  0.5820600000000  0.4822440000000 1.0
C      1  0.4803230000000  0.4693180000000  0.5693120000000 1.0
C      1  0.4975870000000  0.5107620000000  0.4259400000000 1.0
C      1  0.5593730000000  0.5089580000000  0.4476240000000 1.0
C      1  0.5796230000000  0.5091880000000  0.4658850000000 1.0
C      1  0.5117270000000  0.4192670000000  0.5063830000000 1.0
C      1  0.5273690000000  0.5161260000000  0.4248310000000 1.0
C      1  0.4861310000000  0.5030070000000  0.4551570000000 1.0
END
