TITL C-2778423-5760-94 0.00245560889528402 125000 -1167.29686824809 0 0 195 (C1) n - 1
REM
REM in /home/nfs/bkarasulu/CARBON/AIRSS/Generating-Clusters/REBO/Only-C1/SD-CG/HFTN-CG
REM
REM
REM
REM
REM
REM ./C.cell (11c1c37f851c82e70ff6c80c92926a4b)
REM
REM compiler GCC version 9.2.1 20190827 (Red Hat 9.2.1-1)
REM options -cpp -mtune=generic -march=x86-64 -g -O0 -fpre-include=/usr/include/finclude/math-vector-fortran.h
REM seed -607390740 1205140636 -296983763 1950606103 -344170263 329691532 252180930 1971571310 842073498 -580036516 1913705928 445698419 184303132 -751719859 -1483740383 -365409882 -865727727 775592507 -1254381569 -530138104 2118280655 867804666 -523907728 -1425239491 1982898729 1240389783 -1567642767 -2043399262 -1190341698 1778981106 -1539811006 -1532812623 2097768838
REM
CELL 1.54180   50.00000   50.00000   50.00000   90.00000   90.00000   90.00000
LATT -1
SFAC C  
C      1  0.5414600000000  0.4028890000000  0.5197080000000 1.0
C      1  0.4962680000000  0.4198340000000  0.4350550000000 1.0
C      1  0.5829050000000  0.4097550000000  0.4763330000000 1.0
C      1  0.4738920000000  0.4613070000000  0.6022660000000 1.0
C      1  0.4786440000000  0.4364900000000  0.5156920000000 1.0
C      1  0.5215760000000  0.4463230000000  0.6041550000000 1.0
C      1  0.5918850000000  0.4836990000000  0.5552080000000 1.0
C      1  0.4677290000000  0.5297860000000  0.4973380000000 1.0
C      1  0.5915390000000  0.5542330000000  0.5684780000000 1.0
C      1  0.4181620000000  0.5553770000000  0.4899350000000 1.0
C      1  0.4907610000000  0.5271900000000  0.5208980000000 1.0
C      1  0.5000210000000  0.5723150000000  0.4968320000000 1.0
C      1  0.4385340000000  0.5792320000000  0.4901190000000 1.0
C      1  0.4737780000000  0.4453800000000  0.5738690000000 1.0
C      1  0.4372730000000  0.4302920000000  0.4397390000000 1.0
C      1  0.5260490000000  0.4973850000000  0.4751750000000 1.0
C      1  0.5583820000000  0.5674680000000  0.4348940000000 1.0
C      1  0.5649700000000  0.4728080000000  0.4385350000000 1.0
C      1  0.4515800000000  0.5873960000000  0.5503010000000 1.0
C      1  0.5313100000000  0.6101580000000  0.4421200000000 1.0
C      1  0.4581120000000  0.4188070000000  0.5363180000000 1.0
C      1  0.5813350000000  0.5283000000000  0.4988340000000 1.0
C      1  0.4950860000000  0.5157400000000  0.6093260000000 1.0
C      1  0.5379040000000  0.4834420000000  0.4308310000000 1.0
C      1  0.5058580000000  0.4595960000000  0.4982230000000 1.0
C      1  0.5098250000000  0.5481020000000  0.4070040000000 1.0
C      1  0.4853020000000  0.4769730000000  0.5674780000000 1.0
C      1  0.5077910000000  0.4408210000000  0.5332350000000 1.0
C      1  0.5097390000000  0.5542780000000  0.5221050000000 1.0
C      1  0.4504600000000  0.5253610000000  0.4009430000000 1.0
C      1  0.5411080000000  0.4316700000000  0.5610000000000 1.0
C      1  0.3936710000000  0.5144210000000  0.5439020000000 1.0
C      1  0.4564760000000  0.5554060000000  0.4786590000000 1.0
C      1  0.6042750000000  0.4522440000000  0.5068320000000 1.0
C      1  0.5092760000000  0.4671460000000  0.4406950000000 1.0
C      1  0.4115730000000  0.5064410000000  0.4951980000000 1.0
C      1  0.4576260000000  0.4589430000000  0.5051960000000 1.0
C      1  0.4977390000000  0.5162370000000  0.5759350000000 1.0
C      1  0.4115760000000  0.4822200000000  0.4821680000000 1.0
C      1  0.4193010000000  0.4577780000000  0.5700650000000 1.0
C      1  0.5863600000000  0.5145710000000  0.6032000000000 1.0
C      1  0.5354190000000  0.4723180000000  0.3926130000000 1.0
C      1  0.4799560000000  0.5864630000000  0.5516060000000 1.0
C      1  0.5207530000000  0.4281220000000  0.5814870000000 1.0
C      1  0.5303400000000  0.4742340000000  0.5947720000000 1.0
C      1  0.4667010000000  0.3902360000000  0.4783670000000 1.0
C      1  0.4708230000000  0.5977450000000  0.5046740000000 1.0
C      1  0.5918730000000  0.4573480000000  0.4796130000000 1.0
C      1  0.4258950000000  0.4558860000000  0.4439850000000 1.0
C      1  0.4590560000000  0.4771990000000  0.4386810000000 1.0
C      1  0.6051660000000  0.5510260000000  0.5397120000000 1.0
C      1  0.4088420000000  0.5047030000000  0.4372020000000 1.0
C      1  0.3704620000000  0.4829990000000  0.4584370000000 1.0
C      1  0.4695670000000  0.5063070000000  0.5595940000000 1.0
C      1  0.4844370000000  0.4412570000000  0.4818120000000 1.0
C      1  0.4933740000000  0.5111390000000  0.3776860000000 1.0
C      1  0.4907820000000  0.4028710000000  0.4978920000000 1.0
C      1  0.5831380000000  0.4931940000000  0.4470580000000 1.0
C      1  0.4888320000000  0.5478400000000  0.5468130000000 1.0
C      1  0.4278770000000  0.4839040000000  0.4259410000000 1.0
C      1  0.4478280000000  0.5062290000000  0.5326650000000 1.0
C      1  0.5374170000000  0.4502490000000  0.4904020000000 1.0
C      1  0.6096780000000  0.5174610000000  0.5140730000000 1.0
C      1  0.5419770000000  0.5302580000000  0.4902120000000 1.0
C      1  0.4684160000000  0.5600170000000  0.4506380000000 1.0
C      1  0.5296780000000  0.5551200000000  0.4596400000000 1.0
C      1  0.4959790000000  0.4863740000000  0.4837560000000 1.0
C      1  0.4954250000000  0.4235860000000  0.5685990000000 1.0
C      1  0.5168710000000  0.5401570000000  0.6042030000000 1.0
C      1  0.5271340000000  0.4911410000000  0.5460120000000 1.0
C      1  0.5856010000000  0.4444650000000  0.5265050000000 1.0
C      1  0.5277930000000  0.4680760000000  0.4660530000000 1.0
C      1  0.4454550000000  0.4365480000000  0.5625020000000 1.0
C      1  0.4863590000000  0.4839580000000  0.3764750000000 1.0
C      1  0.4820130000000  0.4545060000000  0.4502150000000 1.0
C      1  0.6113680000000  0.5079290000000  0.4825930000000 1.0
C      1  0.5940030000000  0.5616950000000  0.5163570000000 1.0
C      1  0.4266340000000  0.5678600000000  0.4349070000000 1.0
C      1  0.5075010000000  0.4989350000000  0.4284790000000 1.0
C      1  0.4456390000000  0.4758060000000  0.5669800000000 1.0
C      1  0.4373360000000  0.5072320000000  0.5711480000000 1.0
C      1  0.5642870000000  0.5047870000000  0.4845810000000 1.0
C      1  0.5135320000000  0.3867120000000  0.5260570000000 1.0
C      1  0.4588490000000  0.4852160000000  0.5961670000000 1.0
C      1  0.5063740000000  0.5017780000000  0.5244930000000 1.0
C      1  0.5182480000000  0.3860260000000  0.4921650000000 1.0
C      1  0.5375010000000  0.5816480000000  0.4694120000000 1.0
C      1  0.4272920000000  0.4183840000000  0.5225050000000 1.0
C      1  0.5417470000000  0.5021180000000  0.3958000000000 1.0
C      1  0.3833770000000  0.5302220000000  0.4672830000000 1.0
C      1  0.5843850000000  0.4968670000000  0.5812240000000 1.0
C      1  0.4646120000000  0.5038710000000  0.4560840000000 1.0
C      1  0.5555340000000  0.5241980000000  0.5326270000000 1.0
C      1  0.5552230000000  0.4126550000000  0.5456570000000 1.0
C      1  0.5324280000000  0.5027240000000  0.5080450000000 1.0
C      1  0.4030970000000  0.5574110000000  0.5180060000000 1.0
C      1  0.4659830000000  0.5124530000000  0.5999050000000 1.0
C      1  0.5855120000000  0.4873740000000  0.5050710000000 1.0
C      1  0.5439070000000  0.5432360000000  0.5587260000000 1.0
C      1  0.5435300000000  0.5159980000000  0.4268040000000 1.0
C      1  0.4085550000000  0.4897670000000  0.5638170000000 1.0
C      1  0.4395350000000  0.6023720000000  0.4700510000000 1.0
C      1  0.4587160000000  0.5368570000000  0.5872420000000 1.0
C      1  0.5647710000000  0.5551300000000  0.5826790000000 1.0
C      1  0.6006070000000  0.4857900000000  0.4681610000000 1.0
C      1  0.5777800000000  0.4177800000000  0.5271880000000 1.0
C      1  0.5317780000000  0.4002320000000  0.4672310000000 1.0
C      1  0.4890720000000  0.4763690000000  0.5218520000000 1.0
C      1  0.5618770000000  0.4708830000000  0.4867060000000 1.0
C      1  0.5279970000000  0.5164580000000  0.5664430000000 1.0
C      1  0.4858260000000  0.5951920000000  0.4755810000000 1.0
C      1  0.5509910000000  0.5957960000000  0.5225870000000 1.0
C      1  0.4256060000000  0.5783050000000  0.5644640000000 1.0
C      1  0.5659370000000  0.5346770000000  0.6051770000000 1.0
C      1  0.5843810000000  0.5658130000000  0.4840040000000 1.0
C      1  0.4614740000000  0.4927890000000  0.5108210000000 1.0
C      1  0.4930780000000  0.5193580000000  0.4805190000000 1.0
C      1  0.4180510000000  0.4940270000000  0.5326430000000 1.0
C      1  0.5825830000000  0.4343590000000  0.4624670000000 1.0
C      1  0.5121830000000  0.5433220000000  0.4838600000000 1.0
C      1  0.5607860000000  0.5075600000000  0.5614970000000 1.0
C      1  0.4788680000000  0.5359330000000  0.3940110000000 1.0
C      1  0.5343170000000  0.5472040000000  0.4268050000000 1.0
C      1  0.6171260000000  0.4784540000000  0.5125140000000 1.0
C      1  0.4654230000000  0.4332590000000  0.4289540000000 1.0
C      1  0.4914530000000  0.5894490000000  0.5255650000000 1.0
C      1  0.4701590000000  0.4600400000000  0.4124410000000 1.0
C      1  0.5135600000000  0.4797540000000  0.5718010000000 1.0
C      1  0.5063840000000  0.4651130000000  0.3848690000000 1.0
C      1  0.5149630000000  0.4221740000000  0.5083480000000 1.0
C      1  0.4049940000000  0.4249660000000  0.4990750000000 1.0
C      1  0.4987490000000  0.4424860000000  0.4095280000000 1.0
C      1  0.4628900000000  0.4800350000000  0.4783120000000 1.0
C      1  0.3833140000000  0.4683770000000  0.4794280000000 1.0
C      1  0.4356400000000  0.5421480000000  0.4170320000000 1.0
C      1  0.4994110000000  0.4083000000000  0.5423490000000 1.0
C      1  0.5660430000000  0.4443050000000  0.4419150000000 1.0
C      1  0.4243230000000  0.5294640000000  0.4434120000000 1.0
C      1  0.4616230000000  0.4647640000000  0.5390340000000 1.0
C      1  0.5424090000000  0.4190660000000  0.4906680000000 1.0
C      1  0.5423780000000  0.5858820000000  0.5506580000000 1.0
C      1  0.6010790000000  0.5381890000000  0.4733440000000 1.0
C      1  0.5513430000000  0.5936320000000  0.4338580000000 1.0
C      1  0.4615610000000  0.5455380000000  0.5605460000000 1.0
C      1  0.5435590000000  0.4316500000000  0.4300320000000 1.0
C      1  0.5608450000000  0.5137370000000  0.3754260000000 1.0
C      1  0.4626400000000  0.4786720000000  0.3906340000000 1.0
C      1  0.4918940000000  0.5156500000000  0.4479580000000 1.0
C      1  0.5371930000000  0.5595240000000  0.5313190000000 1.0
C      1  0.4858150000000  0.5421890000000  0.4375190000000 1.0
C      1  0.3861230000000  0.5211890000000  0.4953340000000 1.0
C      1  0.4319340000000  0.4485490000000  0.5336690000000 1.0
C      1  0.5679290000000  0.4667320000000  0.5400770000000 1.0
C      1  0.5818360000000  0.4032490000000  0.5030210000000 1.0
C      1  0.4984340000000  0.4634330000000  0.6162080000000 1.0
C      1  0.3957340000000  0.4516120000000  0.5019970000000 1.0
C      1  0.4071740000000  0.5531470000000  0.4590310000000 1.0
C      1  0.5632470000000  0.5508270000000  0.5143920000000 1.0
C      1  0.4603880000000  0.4004190000000  0.5100810000000 1.0
C      1  0.4804890000000  0.5644100000000  0.4127810000000 1.0
C      1  0.3834220000000  0.5069380000000  0.4493790000000 1.0
C      1  0.4327180000000  0.4697490000000  0.4690450000000 1.0
C      1  0.4945060000000  0.5689250000000  0.5714700000000 1.0
C      1  0.5130090000000  0.5166080000000  0.4012490000000 1.0
C      1  0.5258210000000  0.4130420000000  0.4427940000000 1.0
C      1  0.4413320000000  0.5359540000000  0.5439150000000 1.0
C      1  0.4451780000000  0.4102320000000  0.4615180000000 1.0
C      1  0.4465830000000  0.5259780000000  0.4636040000000 1.0
C      1  0.4444770000000  0.4973910000000  0.4010470000000 1.0
C      1  0.5888940000000  0.5256470000000  0.5541410000000 1.0
C      1  0.5349330000000  0.4586530000000  0.5437900000000 1.0
C      1  0.5139760000000  0.6058470000000  0.4692100000000 1.0
C      1  0.5363420000000  0.5217890000000  0.4573800000000 1.0
C      1  0.6100330000000  0.4965020000000  0.5368570000000 1.0
C      1  0.4340630000000  0.5262770000000  0.4938100000000 1.0
C      1  0.4120830000000  0.4665970000000  0.5203860000000 1.0
C      1  0.5406790000000  0.5251850000000  0.6123140000000 1.0
C      1  0.3861600000000  0.5343720000000  0.5211060000000 1.0
C      1  0.5067730000000  0.4902320000000  0.6227650000000 1.0
C      1  0.4171690000000  0.5749030000000  0.5347500000000 1.0
C      1  0.5347700000000  0.6049440000000  0.4948680000000 1.0
C      1  0.5616160000000  0.5840330000000  0.4922350000000 1.0
C      1  0.4160240000000  0.5292290000000  0.5602900000000 1.0
C      1  0.5166740000000  0.5642440000000  0.5881760000000 1.0
C      1  0.5590530000000  0.4933750000000  0.5225460000000 1.0
C      1  0.4331460000000  0.4077470000000  0.4907450000000 1.0
C      1  0.5416090000000  0.5773710000000  0.5787550000000 1.0
C      1  0.4634300000000  0.6002270000000  0.4549910000000 1.0
C      1  0.5790440000000  0.5534470000000  0.4524060000000 1.0
C      1  0.4571530000000  0.5821920000000  0.4299820000000 1.0
C      1  0.5359650000000  0.4967680000000  0.6156600000000 1.0
C      1  0.4422700000000  0.5901320000000  0.5189220000000 1.0
C      1  0.5804430000000  0.5212800000000  0.4436880000000 1.0
C      1  0.4788080000000  0.4166730000000  0.4624390000000 1.0
C      1  0.5310930000000  0.4472730000000  0.4100660000000 1.0
END
