TITL C-2778436-5916-847 -0.00173679975754178 125000 -1002.05563503945 0 0 168 (C1) n - 1
REM
REM in /home/nfs/bkarasulu/CARBON/AIRSS/Generating-Clusters/REBO/Only-C1/SD-CG/HFTN-CG
REM
REM
REM
REM
REM
REM ./C.cell (11c1c37f851c82e70ff6c80c92926a4b)
REM
REM compiler GCC version 9.2.1 20190827 (Red Hat 9.2.1-1)
REM options -cpp -mtune=generic -march=x86-64 -g -O0 -fpre-include=/usr/include/finclude/math-vector-fortran.h
REM seed -257229117 -224792991 -1324829189 118725015 -881213148 -757789680 -1772743997 2072341287 -783175342 112211675 612453048 -616006631 336916878 -1402947053 1069341679 1549276449 -1717717402 1618122629 -546746450 417584937 -112321965 554167520 1644947146 -116594265 1970328554 -1400075052 -40111690 1993364554 -706053844 1591920268 421384117 992936343 -1733863206
REM
CELL 1.54180   50.00000   50.00000   50.00000   90.00000   90.00000   90.00000
LATT -1
SFAC C  
C      1  0.5745580000000  0.4554940000000  0.5047040000000 1.0
C      1  0.4408680000000  0.4889990000000  0.5448830000000 1.0
C      1  0.4139060000000  0.5139060000000  0.4344070000000 1.0
C      1  0.5115080000000  0.4472810000000  0.4807770000000 1.0
C      1  0.5281750000000  0.5378320000000  0.3954590000000 1.0
C      1  0.4652230000000  0.5309680000000  0.5214110000000 1.0
C      1  0.5553840000000  0.4244960000000  0.4882650000000 1.0
C      1  0.5321030000000  0.5514850000000  0.4859760000000 1.0
C      1  0.5327910000000  0.5317240000000  0.5259280000000 1.0
C      1  0.4511600000000  0.4078910000000  0.4900200000000 1.0
C      1  0.5566780000000  0.5444350000000  0.5073650000000 1.0
C      1  0.4048660000000  0.4556220000000  0.4946350000000 1.0
C      1  0.3967400000000  0.5524710000000  0.4912370000000 1.0
C      1  0.5463280000000  0.5149840000000  0.5811430000000 1.0
C      1  0.4679320000000  0.5110130000000  0.4088640000000 1.0
C      1  0.4297600000000  0.4871800000000  0.4319380000000 1.0
C      1  0.5092270000000  0.5224690000000  0.4427290000000 1.0
C      1  0.5527850000000  0.4928030000000  0.4584180000000 1.0
C      1  0.5420640000000  0.5755320000000  0.4524920000000 1.0
C      1  0.4695190000000  0.4903510000000  0.4498270000000 1.0
C      1  0.4193250000000  0.5225360000000  0.5729630000000 1.0
C      1  0.4980110000000  0.5767200000000  0.5677600000000 1.0
C      1  0.4999280000000  0.4819170000000  0.6040210000000 1.0
C      1  0.4428300000000  0.4153650000000  0.5169940000000 1.0
C      1  0.5153030000000  0.5557830000000  0.5845820000000 1.0
C      1  0.4979850000000  0.5412580000000  0.6022040000000 1.0
C      1  0.5211290000000  0.4044850000000  0.5288320000000 1.0
C      1  0.5182250000000  0.4513540000000  0.4130920000000 1.0
C      1  0.4263480000000  0.4594980000000  0.5708270000000 1.0
C      1  0.5594370000000  0.4937390000000  0.5321300000000 1.0
C      1  0.4924330000000  0.4226710000000  0.4317220000000 1.0
C      1  0.3996870000000  0.4925770000000  0.5085740000000 1.0
C      1  0.6009180000000  0.5251430000000  0.5339750000000 1.0
C      1  0.5206960000000  0.6017250000000  0.5207630000000 1.0
C      1  0.4580210000000  0.5878380000000  0.5329590000000 1.0
C      1  0.5916120000000  0.4641440000000  0.4531620000000 1.0
C      1  0.5080690000000  0.4791250000000  0.4758440000000 1.0
C      1  0.5071780000000  0.5644850000000  0.5018490000000 1.0
C      1  0.4931460000000  0.4008250000000  0.4560010000000 1.0
C      1  0.5594730000000  0.4818010000000  0.4085970000000 1.0
C      1  0.4862780000000  0.5319210000000  0.4877010000000 1.0
C      1  0.4539440000000  0.5340620000000  0.4772070000000 1.0
C      1  0.5333160000000  0.5900440000000  0.4755680000000 1.0
C      1  0.5080590000000  0.4773580000000  0.5225350000000 1.0
C      1  0.5852280000000  0.5143760000000  0.4451470000000 1.0
C      1  0.5646110000000  0.4454660000000  0.4433810000000 1.0
C      1  0.5853400000000  0.5435300000000  0.4896410000000 1.0
C      1  0.5713430000000  0.5089630000000  0.4210320000000 1.0
C      1  0.3979190000000  0.5089630000000  0.4589490000000 1.0
C      1  0.4200480000000  0.4383160000000  0.5188290000000 1.0
C      1  0.4937520000000  0.5158710000000  0.5173030000000 1.0
C      1  0.4805500000000  0.4664470000000  0.5491540000000 1.0
C      1  0.5781440000000  0.5111040000000  0.5122360000000 1.0
C      1  0.4860110000000  0.5810880000000  0.4602210000000 1.0
C      1  0.5759620000000  0.4324800000000  0.4711050000000 1.0
C      1  0.3992850000000  0.5003220000000  0.5652840000000 1.0
C      1  0.4572480000000  0.4683880000000  0.5346520000000 1.0
C      1  0.4517920000000  0.4501910000000  0.5795540000000 1.0
C      1  0.5019630000000  0.4492870000000  0.4501250000000 1.0
C      1  0.4800610000000  0.5721720000000  0.4986230000000 1.0
C      1  0.5867280000000  0.5738550000000  0.4996100000000 1.0
C      1  0.5257480000000  0.5023690000000  0.4857670000000 1.0
C      1  0.5409930000000  0.5193100000000  0.4449430000000 1.0
C      1  0.5259810000000  0.4385030000000  0.5811600000000 1.0
C      1  0.4059450000000  0.4735280000000  0.5565830000000 1.0
C      1  0.5172120000000  0.4761760000000  0.4440650000000 1.0
C      1  0.5337500000000  0.5792540000000  0.4255140000000 1.0
C      1  0.5544120000000  0.4718300000000  0.4857180000000 1.0
C      1  0.5969840000000  0.4920850000000  0.4588080000000 1.0
C      1  0.4852500000000  0.4927160000000  0.4935320000000 1.0
C      1  0.5060450000000  0.5096750000000  0.5457030000000 1.0
C      1  0.5188680000000  0.5595510000000  0.4115940000000 1.0
C      1  0.4587670000000  0.5550200000000  0.5108040000000 1.0
C      1  0.6069090000000  0.4959700000000  0.4856050000000 1.0
C      1  0.4190280000000  0.5715900000000  0.4785030000000 1.0
C      1  0.5477950000000  0.4710880000000  0.4364170000000 1.0
C      1  0.4987650000000  0.6072950000000  0.5024440000000 1.0
C      1  0.4490240000000  0.5604790000000  0.5512440000000 1.0
C      1  0.5848070000000  0.5110030000000  0.5713660000000 1.0
C      1  0.5228430000000  0.4705050000000  0.5872930000000 1.0
C      1  0.4532270000000  0.4834810000000  0.4139640000000 1.0
C      1  0.5327960000000  0.4153550000000  0.5590680000000 1.0
C      1  0.4594310000000  0.5899220000000  0.4531960000000 1.0
C      1  0.6019320000000  0.4476420000000  0.4776310000000 1.0
C      1  0.5393000000000  0.5126480000000  0.5520720000000 1.0
C      1  0.4581880000000  0.5045090000000  0.5037300000000 1.0
C      1  0.4399800000000  0.4206130000000  0.4621870000000 1.0
C      1  0.4372180000000  0.5577780000000  0.4614210000000 1.0
C      1  0.4489240000000  0.5663730000000  0.4351410000000 1.0
C      1  0.4652820000000  0.4294210000000  0.5661250000000 1.0
C      1  0.5344600000000  0.4071720000000  0.4792050000000 1.0
C      1  0.4411860000000  0.4403070000000  0.4338080000000 1.0
C      1  0.4819740000000  0.4881090000000  0.5692560000000 1.0
C      1  0.4760170000000  0.5507690000000  0.5694540000000 1.0
C      1  0.4815250000000  0.4020480000000  0.4865880000000 1.0
C      1  0.5432750000000  0.5932430000000  0.5038300000000 1.0
C      1  0.4328740000000  0.5086340000000  0.5238130000000 1.0
C      1  0.5484050000000  0.4872140000000  0.5923510000000 1.0
C      1  0.5687500000000  0.5353680000000  0.5847640000000 1.0
C      1  0.5122450000000  0.4046490000000  0.5001660000000 1.0
C      1  0.4697880000000  0.4703480000000  0.5961630000000 1.0
C      1  0.6066200000000  0.5242010000000  0.5011520000000 1.0
C      1  0.4877410000000  0.4578210000000  0.5110280000000 1.0
C      1  0.4997020000000  0.5104060000000  0.5999720000000 1.0
C      1  0.4602670000000  0.4148150000000  0.5388760000000 1.0
C      1  0.5345660000000  0.4334960000000  0.4334660000000 1.0
C      1  0.5663430000000  0.5819170000000  0.5164200000000 1.0
C      1  0.4667000000000  0.5222510000000  0.4504990000000 1.0
C      1  0.5735840000000  0.4854110000000  0.5763360000000 1.0
C      1  0.4974380000000  0.4247530000000  0.5747970000000 1.0
C      1  0.5190530000000  0.5914310000000  0.5464230000000 1.0
C      1  0.4022770000000  0.4661240000000  0.5272740000000 1.0
C      1  0.4279660000000  0.5360040000000  0.4938020000000 1.0
C      1  0.5180820000000  0.4790520000000  0.5546420000000 1.0
C      1  0.5904820000000  0.4789670000000  0.5326060000000 1.0
C      1  0.4678380000000  0.5443810000000  0.4173820000000 1.0
C      1  0.5389340000000  0.5147660000000  0.4124740000000 1.0
C      1  0.4394000000000  0.4809910000000  0.4631360000000 1.0
C      1  0.4895830000000  0.5210270000000  0.5689400000000 1.0
C      1  0.4854700000000  0.5500490000000  0.4587680000000 1.0
C      1  0.4931770000000  0.4117010000000  0.5439450000000 1.0
C      1  0.4475330000000  0.4545810000000  0.5120480000000 1.0
C      1  0.5005060000000  0.4442320000000  0.5463820000000 1.0
C      1  0.4282020000000  0.5658800000000  0.5105240000000 1.0
C      1  0.5679660000000  0.4418960000000  0.5289820000000 1.0
C      1  0.4911420000000  0.4312610000000  0.4982120000000 1.0
C      1  0.5603180000000  0.5576320000000  0.5388790000000 1.0
C      1  0.4612490000000  0.5030860000000  0.5919380000000 1.0
C      1  0.5784050000000  0.5370500000000  0.4611380000000 1.0
C      1  0.4492730000000  0.4557150000000  0.4823940000000 1.0
C      1  0.4562010000000  0.5939960000000  0.5025000000000 1.0
C      1  0.4388340000000  0.4994040000000  0.5704470000000 1.0
C      1  0.5716700000000  0.4631190000000  0.5547320000000 1.0
C      1  0.5247250000000  0.4121600000000  0.4522170000000 1.0
C      1  0.4463040000000  0.6016720000000  0.4764240000000 1.0
C      1  0.5042880000000  0.5957600000000  0.4762180000000 1.0
C      1  0.5255400000000  0.4836950000000  0.4057420000000 1.0
C      1  0.5267860000000  0.4511980000000  0.5272960000000 1.0
C      1  0.4882210000000  0.4466230000000  0.4126990000000 1.0
C      1  0.4971180000000  0.5474200000000  0.4281500000000 1.0
C      1  0.5084370000000  0.5238660000000  0.3809330000000 1.0
C      1  0.5817300000000  0.5410780000000  0.5541290000000 1.0
C      1  0.5331120000000  0.5619150000000  0.5560190000000 1.0
C      1  0.4968470000000  0.5009120000000  0.3992030000000 1.0
C      1  0.4648790000000  0.5341290000000  0.5971530000000 1.0
C      1  0.4731620000000  0.4599790000000  0.4610100000000 1.0
C      1  0.4202140000000  0.4462000000000  0.4672740000000 1.0
C      1  0.4702990000000  0.4263210000000  0.4569810000000 1.0
C      1  0.5597610000000  0.5038770000000  0.4895620000000 1.0
C      1  0.5300640000000  0.4993300000000  0.5158130000000 1.0
C      1  0.4843670000000  0.5737020000000  0.5382630000000 1.0
C      1  0.5414060000000  0.4542840000000  0.5560130000000 1.0
C      1  0.6096270000000  0.4982000000000  0.5432300000000 1.0
C      1  0.5511290000000  0.4202560000000  0.5336740000000 1.0
C      1  0.3994490000000  0.5199340000000  0.4886760000000 1.0
C      1  0.4422940000000  0.5248360000000  0.4271790000000 1.0
C      1  0.4284300000000  0.5411760000000  0.5333290000000 1.0
C      1  0.4613610000000  0.4559510000000  0.4160960000000 1.0
C      1  0.4106710000000  0.4836540000000  0.4774120000000 1.0
C      1  0.5495780000000  0.5458300000000  0.4578970000000 1.0
C      1  0.5115100000000  0.5551350000000  0.5315540000000 1.0
C      1  0.4380180000000  0.5443990000000  0.5789230000000 1.0
C      1  0.4968090000000  0.4969380000000  0.4327030000000 1.0
C      1  0.5146060000000  0.5273060000000  0.4739190000000 1.0
C      1  0.5363000000000  0.4476120000000  0.4979780000000 1.0
C      1  0.6030710000000  0.4699880000000  0.5031940000000 1.0
C      1  0.4165220000000  0.4592310000000  0.4387020000000 1.0
C      1  0.4020310000000  0.5203420000000  0.5281390000000 1.0
END
