TITL C-2778437-8639-1105 0.0011575586304993 125000 -450.624736138486 0 0 79 (C1) n - 1
REM
REM in /home/nfs/bkarasulu/CARBON/AIRSS/Generating-Clusters/REBO/Only-C1/SD-CG/HFTN-CG
REM
REM
REM
REM
REM
REM ./C.cell (11c1c37f851c82e70ff6c80c92926a4b)
REM
REM compiler GCC version 9.2.1 20190827 (Red Hat 9.2.1-1)
REM options -cpp -mtune=generic -march=x86-64 -g -O0 -fpre-include=/usr/include/finclude/math-vector-fortran.h
REM seed 227021984 467251720 -109370641 -1274884026 227380484 -493958610 -1291823345 -314320089 -301350224 -589247475 -1804805394 1409133149 -807747452 -360159298 832897665 -597793945 -1849473856 593273261 -1292468883 1278152671 -637416612 204311865 1232732389 -1130670025 -1505470528 -2138857993 895465747 -1486203430 -105464 1302411262 -1423495430 526115061 1315915539
REM
CELL 1.54180   50.00000   50.00000   50.00000   90.00000   90.00000   90.00000
LATT -1
SFAC C  
C      1  0.4960640000000  0.4725130000000  0.4352790000000 1.0
C      1  0.5501230000000  0.5116920000000  0.4810450000000 1.0
C      1  0.5222990000000  0.4896810000000  0.5648870000000 1.0
C      1  0.4505830000000  0.5407560000000  0.4419790000000 1.0
C      1  0.5060130000000  0.5075700000000  0.4517040000000 1.0
C      1  0.5524750000000  0.5610430000000  0.5392900000000 1.0
C      1  0.4807070000000  0.5591900000000  0.5701130000000 1.0
C      1  0.5236220000000  0.4370610000000  0.5507650000000 1.0
C      1  0.5529630000000  0.5369480000000  0.4994160000000 1.0
C      1  0.4479110000000  0.5544830000000  0.4895280000000 1.0
C      1  0.5753060000000  0.5042720000000  0.4622320000000 1.0
C      1  0.5644630000000  0.5386780000000  0.5251030000000 1.0
C      1  0.5274700000000  0.5290170000000  0.5604270000000 1.0
C      1  0.4604170000000  0.4646620000000  0.4978110000000 1.0
C      1  0.4670870000000  0.4913420000000  0.4786250000000 1.0
C      1  0.5317480000000  0.4415540000000  0.5189560000000 1.0
C      1  0.4395860000000  0.5058830000000  0.5548380000000 1.0
C      1  0.4700070000000  0.4396420000000  0.4681170000000 1.0
C      1  0.4696760000000  0.5352720000000  0.5809980000000 1.0
C      1  0.5643980000000  0.4777150000000  0.5353690000000 1.0
C      1  0.4647270000000  0.5974650000000  0.5060810000000 1.0
C      1  0.4550440000000  0.4851880000000  0.5369690000000 1.0
C      1  0.5244400000000  0.4906710000000  0.4311760000000 1.0
C      1  0.5404950000000  0.4790150000000  0.4737190000000 1.0
C      1  0.4894220000000  0.5152720000000  0.5867670000000 1.0
C      1  0.5575410000000  0.4797160000000  0.5035330000000 1.0
C      1  0.5162830000000  0.5729590000000  0.5137350000000 1.0
C      1  0.4797710000000  0.5477160000000  0.4831800000000 1.0
C      1  0.4946150000000  0.5627440000000  0.4594780000000 1.0
C      1  0.5765280000000  0.4764320000000  0.4572260000000 1.0
C      1  0.5226390000000  0.5377040000000  0.4180460000000 1.0
C      1  0.4571320000000  0.4129820000000  0.4948830000000 1.0
C      1  0.5181780000000  0.4274410000000  0.4545290000000 1.0
C      1  0.5021840000000  0.5422170000000  0.4397180000000 1.0
C      1  0.5168600000000  0.5249460000000  0.5862820000000 1.0
C      1  0.4271930000000  0.4664520000000  0.4758180000000 1.0
C      1  0.5322500000000  0.5146690000000  0.4128520000000 1.0
C      1  0.5133580000000  0.4669880000000  0.4800760000000 1.0
C      1  0.5065430000000  0.4167670000000  0.4767290000000 1.0
C      1  0.4319730000000  0.5449400000000  0.4659710000000 1.0
C      1  0.4872790000000  0.4199540000000  0.5012830000000 1.0
C      1  0.4209180000000  0.4977480000000  0.4571290000000 1.0
C      1  0.5164230000000  0.5098600000000  0.4803490000000 1.0
C      1  0.4983540000000  0.5644100000000  0.5483970000000 1.0
C      1  0.5759430000000  0.4628200000000  0.4827610000000 1.0
C      1  0.4418740000000  0.4736180000000  0.4472330000000 1.0
C      1  0.4798070000000  0.4748600000000  0.5530350000000 1.0
C      1  0.4939820000000  0.5911270000000  0.4990850000000 1.0
C      1  0.4924830000000  0.4536610000000  0.4702640000000 1.0
C      1  0.4413710000000  0.4395890000000  0.4843370000000 1.0
C      1  0.4124060000000  0.5254610000000  0.4671330000000 1.0
C      1  0.4617460000000  0.5046020000000  0.5097640000000 1.0
C      1  0.5134080000000  0.4633200000000  0.5105470000000 1.0
C      1  0.4990620000000  0.5885540000000  0.4689580000000 1.0
C      1  0.4779310000000  0.5211950000000  0.4407860000000 1.0
C      1  0.5289120000000  0.5525120000000  0.4985370000000 1.0
C      1  0.4943420000000  0.4913470000000  0.5705970000000 1.0
C      1  0.4845520000000  0.4518800000000  0.5094290000000 1.0
C      1  0.4341820000000  0.4869130000000  0.5002280000000 1.0
C      1  0.5305130000000  0.5059740000000  0.5358950000000 1.0
C      1  0.5262870000000  0.5560000000000  0.5504130000000 1.0
C      1  0.5481600000000  0.4702100000000  0.4424750000000 1.0
C      1  0.4980790000000  0.4241280000000  0.5314390000000 1.0
C      1  0.4926120000000  0.4512230000000  0.5482310000000 1.0
C      1  0.5783060000000  0.4364070000000  0.4925800000000 1.0
C      1  0.5640970000000  0.5117910000000  0.5399900000000 1.0
C      1  0.5548960000000  0.4478120000000  0.5416400000000 1.0
C      1  0.4446380000000  0.5256960000000  0.5723290000000 1.0
C      1  0.5531230000000  0.4906680000000  0.5644740000000 1.0
C      1  0.5264000000000  0.4930340000000  0.5082360000000 1.0
C      1  0.4381700000000  0.4627390000000  0.5309500000000 1.0
C      1  0.4662360000000  0.5352450000000  0.5108200000000 1.0
C      1  0.4447810000000  0.5830240000000  0.5004790000000 1.0
C      1  0.4715040000000  0.4784250000000  0.4470880000000 1.0
C      1  0.4848070000000  0.5623700000000  0.5200290000000 1.0
C      1  0.5084880000000  0.5375000000000  0.4870420000000 1.0
C      1  0.4512370000000  0.5108190000000  0.4579390000000 1.0
C      1  0.5197200000000  0.4524560000000  0.4410110000000 1.0
C      1  0.5628780000000  0.4297890000000  0.5138410000000 1.0
END
