TITL C-2778425-5191-215 0.00145722618909466 125000 -767.971512931249 0 0 129 (C1) n - 1
REM
REM in /home/nfs/bkarasulu/CARBON/AIRSS/Generating-Clusters/REBO/Only-C1/SD-CG/HFTN-CG
REM
REM
REM
REM
REM
REM ./C.cell (11c1c37f851c82e70ff6c80c92926a4b)
REM
REM compiler GCC version 9.2.1 20190827 (Red Hat 9.2.1-1)
REM options -cpp -mtune=generic -march=x86-64 -g -O0 -fpre-include=/usr/include/finclude/math-vector-fortran.h
REM seed 213349772 -649696343 282961066 1428371643 1055741993 -26671133 2036525430 -1816098408 2035249920 -1979917626 -1592514826 -1657010076 -1585242506 482925039 886088921 1334020166 321752764 496718848 -1020465417 -813529511 534679822 1369881716 -146947465 1011204112 -1598673685 -450113881 1088841038 1056341693 1075184268 -171059975 -2144169512 205494417 -1956325477
REM
CELL 1.54180   50.00000   50.00000   50.00000   90.00000   90.00000   90.00000
LATT -1
SFAC C  
C      1  0.4270500000000  0.5303590000000  0.4400150000000 1.0
C      1  0.4932070000000  0.5448130000000  0.4190640000000 1.0
C      1  0.5574080000000  0.4478070000000  0.5267470000000 1.0
C      1  0.5377460000000  0.4452830000000  0.4989210000000 1.0
C      1  0.4764440000000  0.5415580000000  0.4841630000000 1.0
C      1  0.5543080000000  0.5036140000000  0.4147220000000 1.0
C      1  0.5258000000000  0.5258650000000  0.4833950000000 1.0
C      1  0.4729490000000  0.4297630000000  0.4460090000000 1.0
C      1  0.5364430000000  0.5457310000000  0.5691200000000 1.0
C      1  0.5519970000000  0.4699930000000  0.4199130000000 1.0
C      1  0.5552230000000  0.5573750000000  0.4586550000000 1.0
C      1  0.5242050000000  0.4526240000000  0.4259720000000 1.0
C      1  0.4820110000000  0.5463700000000  0.5347480000000 1.0
C      1  0.4022560000000  0.5192130000000  0.4876150000000 1.0
C      1  0.5801900000000  0.5336990000000  0.5718310000000 1.0
C      1  0.4594890000000  0.4677030000000  0.5854810000000 1.0
C      1  0.5096890000000  0.4814170000000  0.5053090000000 1.0
C      1  0.5756950000000  0.4728050000000  0.5299870000000 1.0
C      1  0.4225290000000  0.4735000000000  0.5010000000000 1.0
C      1  0.5287790000000  0.5326390000000  0.5445320000000 1.0
C      1  0.5047890000000  0.4377190000000  0.5206300000000 1.0
C      1  0.4578200000000  0.5260800000000  0.5340030000000 1.0
C      1  0.5380180000000  0.5325710000000  0.4595360000000 1.0
C      1  0.5298600000000  0.4205480000000  0.5171470000000 1.0
C      1  0.5512640000000  0.4679870000000  0.4690860000000 1.0
C      1  0.4940010000000  0.5000590000000  0.5916430000000 1.0
C      1  0.5404620000000  0.5807090000000  0.4520480000000 1.0
C      1  0.4758600000000  0.5654080000000  0.5587620000000 1.0
C      1  0.4992140000000  0.4165430000000  0.4729660000000 1.0
C      1  0.4415830000000  0.4400550000000  0.4682850000000 1.0
C      1  0.4515810000000  0.4348410000000  0.5343090000000 1.0
C      1  0.5280090000000  0.4861740000000  0.4807810000000 1.0
C      1  0.5416380000000  0.5034710000000  0.5911930000000 1.0
C      1  0.4245220000000  0.4442730000000  0.4940260000000 1.0
C      1  0.4336290000000  0.4914730000000  0.5645860000000 1.0
C      1  0.4994620000000  0.5243830000000  0.4923960000000 1.0
C      1  0.4368980000000  0.5031620000000  0.4523350000000 1.0
C      1  0.4105550000000  0.5660940000000  0.4658600000000 1.0
C      1  0.5121970000000  0.3934910000000  0.4940500000000 1.0
C      1  0.4725470000000  0.4846360000000  0.4726290000000 1.0
C      1  0.5760580000000  0.5371880000000  0.4709050000000 1.0
C      1  0.5037820000000  0.4496240000000  0.5880070000000 1.0
C      1  0.5765580000000  0.4645100000000  0.4384440000000 1.0
C      1  0.4563720000000  0.4742540000000  0.4223980000000 1.0
C      1  0.5714820000000  0.4467440000000  0.4955280000000 1.0
C      1  0.5018950000000  0.5235470000000  0.5434110000000 1.0
C      1  0.5311370000000  0.4040430000000  0.5442830000000 1.0
C      1  0.5631370000000  0.5570820000000  0.5685600000000 1.0
C      1  0.5774620000000  0.4955980000000  0.4362270000000 1.0
C      1  0.5633490000000  0.5575510000000  0.5162170000000 1.0
C      1  0.4313590000000  0.4703060000000  0.4559390000000 1.0
C      1  0.5811290000000  0.5386470000000  0.4991020000000 1.0
C      1  0.5371450000000  0.4160110000000  0.4343870000000 1.0
C      1  0.4161560000000  0.4741630000000  0.5307000000000 1.0
C      1  0.4976400000000  0.4435910000000  0.5471610000000 1.0
C      1  0.4481830000000  0.5473940000000  0.4311000000000 1.0
C      1  0.4719040000000  0.4299330000000  0.5547380000000 1.0
C      1  0.4088390000000  0.4959260000000  0.5494320000000 1.0
C      1  0.4381200000000  0.5354630000000  0.5117810000000 1.0
C      1  0.5233810000000  0.5556260000000  0.4193570000000 1.0
C      1  0.5795010000000  0.4455900000000  0.4622590000000 1.0
C      1  0.4896460000000  0.5598050000000  0.5077690000000 1.0
C      1  0.5792020000000  0.5181760000000  0.5441620000000 1.0
C      1  0.4840600000000  0.5867010000000  0.4553980000000 1.0
C      1  0.3992070000000  0.5416700000000  0.4703660000000 1.0
C      1  0.5209820000000  0.4425930000000  0.4745220000000 1.0
C      1  0.4966770000000  0.4566540000000  0.5027390000000 1.0
C      1  0.4487290000000  0.4288970000000  0.5059940000000 1.0
C      1  0.5452380000000  0.5092500000000  0.5009050000000 1.0
C      1  0.5412000000000  0.4432810000000  0.4513080000000 1.0
C      1  0.4558720000000  0.5705930000000  0.4450020000000 1.0
C      1  0.5678950000000  0.5042040000000  0.5795610000000 1.0
C      1  0.5726030000000  0.4878370000000  0.5533580000000 1.0
C      1  0.5307200000000  0.4514160000000  0.5713210000000 1.0
C      1  0.4657730000000  0.4995360000000  0.5191610000000 1.0
C      1  0.5013200000000  0.4926310000000  0.4067570000000 1.0
C      1  0.5145140000000  0.5810090000000  0.5067480000000 1.0
C      1  0.4913300000000  0.4986730000000  0.5497460000000 1.0
C      1  0.5148740000000  0.5136340000000  0.4069750000000 1.0
C      1  0.4067720000000  0.5239620000000  0.5423660000000 1.0
C      1  0.5465610000000  0.5363320000000  0.4078680000000 1.0
C      1  0.5046760000000  0.4746890000000  0.4306680000000 1.0
C      1  0.5203030000000  0.4793800000000  0.5884730000000 1.0
C      1  0.4684220000000  0.5322070000000  0.4179860000000 1.0
C      1  0.5065750000000  0.4265700000000  0.4408820000000 1.0
C      1  0.5162210000000  0.5926000000000  0.4473710000000 1.0
C      1  0.5039450000000  0.4909650000000  0.4596910000000 1.0
C      1  0.5146930000000  0.5939210000000  0.5374020000000 1.0
C      1  0.5673690000000  0.4914110000000  0.4823730000000 1.0
C      1  0.5330320000000  0.5200560000000  0.4342810000000 1.0
C      1  0.4489100000000  0.5396990000000  0.4861920000000 1.0
C      1  0.5618310000000  0.4204260000000  0.4767750000000 1.0
C      1  0.4893910000000  0.4552390000000  0.4719510000000 1.0
C      1  0.4440030000000  0.4455330000000  0.4357980000000 1.0
C      1  0.4946540000000  0.5900150000000  0.5554990000000 1.0
C      1  0.5002540000000  0.4709470000000  0.5544300000000 1.0
C      1  0.4765150000000  0.4451650000000  0.5810610000000 1.0
C      1  0.4519410000000  0.4870680000000  0.4952390000000 1.0
C      1  0.4681160000000  0.4945910000000  0.5838980000000 1.0
C      1  0.5401980000000  0.4069530000000  0.4877930000000 1.0
C      1  0.4796920000000  0.4616100000000  0.4408860000000 1.0
C      1  0.4112230000000  0.5274610000000  0.5139780000000 1.0
C      1  0.5898300000000  0.5166520000000  0.5149540000000 1.0
C      1  0.4617900000000  0.5021670000000  0.4203840000000 1.0
C      1  0.5428160000000  0.5822300000000  0.5235780000000 1.0
C      1  0.5003590000000  0.5275360000000  0.5942390000000 1.0
C      1  0.4222570000000  0.5423700000000  0.5584650000000 1.0
C      1  0.4395740000000  0.4600910000000  0.5408370000000 1.0
C      1  0.4612640000000  0.4827580000000  0.5464740000000 1.0
C      1  0.5029190000000  0.5702150000000  0.4775420000000 1.0
C      1  0.5668490000000  0.5734280000000  0.5454200000000 1.0
C      1  0.4166260000000  0.4936390000000  0.4766010000000 1.0
C      1  0.5840680000000  0.4891970000000  0.5078240000000 1.0
C      1  0.5061160000000  0.5539970000000  0.4491140000000 1.0
C      1  0.5285970000000  0.5296700000000  0.5915760000000 1.0
C      1  0.4421400000000  0.5694610000000  0.5586330000000 1.0
C      1  0.5424450000000  0.4351990000000  0.5518730000000 1.0
C      1  0.5123680000000  0.3854130000000  0.5229110000000 1.0
C      1  0.4679650000000  0.4221760000000  0.4788180000000 1.0
C      1  0.4569270000000  0.6014270000000  0.4696160000000 1.0
C      1  0.5776500000000  0.5100180000000  0.4606150000000 1.0
C      1  0.5526230000000  0.5272000000000  0.5250460000000 1.0
C      1  0.4976940000000  0.5236030000000  0.4525840000000 1.0
C      1  0.4529800000000  0.5173540000000  0.5645030000000 1.0
C      1  0.4330370000000  0.5824000000000  0.4624070000000 1.0
C      1  0.4813050000000  0.5468940000000  0.5867260000000 1.0
C      1  0.4695310000000  0.5092660000000  0.4514970000000 1.0
C      1  0.4939150000000  0.5033430000000  0.5098810000000 1.0
C      1  0.4492960000000  0.5443280000000  0.5798270000000 1.0
END
