TITL C-2778425-5191-1225 18.3649378526909 125000 -689.218840406939 0 0 120 (C1) n - 1
REM
REM in /home/nfs/bkarasulu/CARBON/AIRSS/Generating-Clusters/REBO/Only-C1/SD-CG/HFTN-CG
REM
REM
REM
REM
REM
REM ./C.cell (11c1c37f851c82e70ff6c80c92926a4b)
REM
REM compiler GCC version 9.2.1 20190827 (Red Hat 9.2.1-1)
REM options -cpp -mtune=generic -march=x86-64 -g -O0 -fpre-include=/usr/include/finclude/math-vector-fortran.h
REM seed -952313881 1299859525 22537015 -1339753237 842518772 702055728 272119469 -1194630683 -1171161013 1914167635 -418682209 1971090534 -1447993965 -183123823 1553999257 12681276 538017744 -1034389426 2015426129 -1174859960 42830966 -1991118457 1176843741 1170613402 1701234157 1850984772 -1148731721 771099835 2066098202 437926024 -2069509169 -2013862858 739227361
REM
CELL 1.54180   50.00000   50.00000   50.00000   90.00000   90.00000   90.00000
LATT -1
SFAC C  
C      1  0.5225820000000  0.5004860000000  0.4779940000000 1.0
C      1  0.5120150000000  0.4920070000000  0.5912430000000 1.0
C      1  0.4738690000000  0.4927260000000  0.4124310000000 1.0
C      1  0.4971860000000  0.5714650000000  0.5436300000000 1.0
C      1  0.5576630000000  0.4740810000000  0.5510170000000 1.0
C      1  0.4954440000000  0.4777030000000  0.5133530000000 1.0
C      1  0.4086230000000  0.4790090000000  0.5000430000000 1.0
C      1  0.5303660000000  0.5126810000000  0.5476720000000 1.0
C      1  0.5359100000000  0.5282740000000  0.4729700000000 1.0
C      1  0.4454070000000  0.4940830000000  0.5023730000000 1.0
C      1  0.4865090000000  0.5512750000000  0.5658680000000 1.0
C      1  0.4213620000000  0.4968030000000  0.5252270000000 1.0
C      1  0.4265390000000  0.5274580000000  0.5338230000000 1.0
C      1  0.5489710000000  0.4646240000000  0.4708360000000 1.0
C      1  0.4316150000000  0.5498230000000  0.4887770000000 1.0
C      1  0.4412970000000  0.4198660000000  0.4757180000000 1.0
C      1  0.4722150000000  0.5414130000000  0.4170950000000 1.0
C      1  0.4632640000000  0.4325690000000  0.4880590000000 1.0
C      1  0.4315440000000  0.5383010000000  0.4602360000000 1.0
C      1  0.5537220000000  0.5377100000000  0.4981230000000 1.0
C      1  0.4762580000000  0.4977350000000  0.4566460000000 1.0
C      1  0.5707800000000  0.4456470000000  0.4878490000000 1.0
C      1  0.4569050000000  0.5114740000000  0.5361940000000 1.0
C      1  0.4907940000000  0.5064190000000  0.5564330000000 1.0
C      1  0.5702370000000  0.4458970000000  0.5188630000000 1.0
C      1  0.5001760000000  0.4101620000000  0.5155650000000 1.0
C      1  0.5564320000000  0.5202650000000  0.5797440000000 1.0
C      1  0.5338670000000  0.4457640000000  0.5030490000000 1.0
C      1  0.5650370000000  0.5236730000000  0.4558650000000 1.0
C      1  0.5970410000000  0.5026370000000  0.4960880000000 1.0
C      1  0.4406360000000  0.4928260000000  0.4198420000000 1.0
C      1  0.4429040000000  0.4850560000000  0.4746350000000 1.0
C      1  0.5315850000000  0.5188820000000  0.5991460000000 1.0
C      1  0.4936070000000  0.5115860000000  0.4318810000000 1.0
C      1  0.4934580000000  0.4871650000000  0.4821390000000 1.0
C      1  0.5252100000000  0.5431520000000  0.5619710000000 1.0
C      1  0.5666290000000  0.5075180000000  0.4975380000000 1.0
C      1  0.5094930000000  0.4292200000000  0.5348120000000 1.0
C      1  0.4749890000000  0.4243410000000  0.5540730000000 1.0
C      1  0.5936640000000  0.5157130000000  0.4692540000000 1.0
C      1  0.5078290000000  0.4528810000000  0.4963750000000 1.0
C      1  0.5009610000000  0.4757080000000  0.4159080000000 1.0
C      1  0.4811270000000  0.5764840000000  0.5060830000000 1.0
C      1  0.5370180000000  0.4530260000000  0.5636830000000 1.0
C      1  0.5544630000000  0.5113470000000  0.5279530000000 1.0
C      1  0.5022750000000  0.5505290000000  0.4310510000000 1.0
C      1  0.4650300000000  0.5651670000000  0.5339620000000 1.0
C      1  0.4087060000000  0.5078410000000  0.4889350000000 1.0
C      1  0.4895020000000  0.4145230000000  0.4898250000000 1.0
C      1  0.5056540000000  0.5303970000000  0.4575450000000 1.0
C      1  0.4501710000000  0.5497070000000  0.4418270000000 1.0
C      1  0.5027110000000  0.5167340000000  0.5084800000000 1.0
C      1  0.5859710000000  0.4864240000000  0.5435420000000 1.0
C      1  0.5531060000000  0.5519510000000  0.4460850000000 1.0
C      1  0.5125300000000  0.5525540000000  0.5216940000000 1.0
C      1  0.5113610000000  0.4846990000000  0.5426640000000 1.0
C      1  0.4464760000000  0.5217960000000  0.4135230000000 1.0
C      1  0.5096760000000  0.5863950000000  0.5007210000000 1.0
C      1  0.5183480000000  0.5721170000000  0.4745970000000 1.0
C      1  0.4948540000000  0.5319270000000  0.5385570000000 1.0
C      1  0.4404230000000  0.4584440000000  0.5512920000000 1.0
C      1  0.4785220000000  0.5238880000000  0.4774820000000 1.0
C      1  0.5437310000000  0.4264630000000  0.4795430000000 1.0
C      1  0.5489240000000  0.4784400000000  0.4333660000000 1.0
C      1  0.4706620000000  0.5130000000000  0.5063760000000 1.0
C      1  0.4443840000000  0.4470780000000  0.5199940000000 1.0
C      1  0.5471520000000  0.5699440000000  0.4690380000000 1.0
C      1  0.4568470000000  0.4872870000000  0.5874540000000 1.0
C      1  0.5566510000000  0.5775180000000  0.4983900000000 1.0
C      1  0.5040670000000  0.4483600000000  0.4693480000000 1.0
C      1  0.5371180000000  0.4527840000000  0.4463840000000 1.0
C      1  0.5225800000000  0.5250230000000  0.4078830000000 1.0
C      1  0.5397170000000  0.4919680000000  0.5713180000000 1.0
C      1  0.4719380000000  0.4823730000000  0.5458760000000 1.0
C      1  0.4165120000000  0.5307360000000  0.5046660000000 1.0
C      1  0.4848020000000  0.4457570000000  0.5783460000000 1.0
C      1  0.4484900000000  0.5666230000000  0.5041390000000 1.0
C      1  0.5474110000000  0.4711390000000  0.5195460000000 1.0
C      1  0.5430130000000  0.5494760000000  0.5268880000000 1.0
C      1  0.4583560000000  0.4600160000000  0.5759510000000 1.0
C      1  0.4645290000000  0.4442930000000  0.4499770000000 1.0
C      1  0.5586300000000  0.5398110000000  0.5556320000000 1.0
C      1  0.5598890000000  0.4247560000000  0.5337120000000 1.0
C      1  0.5095450000000  0.4658290000000  0.5712060000000 1.0
C      1  0.4252730000000  0.4827940000000  0.5516720000000 1.0
C      1  0.5200600000000  0.4245270000000  0.4550340000000 1.0
C      1  0.4673420000000  0.5693970000000  0.4547550000000 1.0
C      1  0.5311040000000  0.5743870000000  0.5484540000000 1.0
C      1  0.4515170000000  0.5425140000000  0.5489420000000 1.0
C      1  0.4685880000000  0.4644600000000  0.4774400000000 1.0
C      1  0.4672200000000  0.5250640000000  0.5723040000000 1.0
C      1  0.4244830000000  0.4857460000000  0.4461830000000 1.0
C      1  0.5064290000000  0.5473340000000  0.4931500000000 1.0
C      1  0.4665660000000  0.4240450000000  0.5211240000000 1.0
C      1  0.5940800000000  0.5064230000000  0.5264650000000 1.0
C      1  0.5339850000000  0.5867150000000  0.5166450000000 1.0
C      1  0.4978910000000  0.4434950000000  0.4133530000000 1.0
C      1  0.4338080000000  0.4558470000000  0.4603590000000 1.0
C      1  0.4330480000000  0.4984710000000  0.5748330000000 1.0
C      1  0.4622500000000  0.4729790000000  0.5171880000000 1.0
C      1  0.5795780000000  0.5343790000000  0.5313070000000 1.0
C      1  0.5300600000000  0.4972920000000  0.5096260000000 1.0
C      1  0.4826210000000  0.5056040000000  0.5952310000000 1.0
C      1  0.4879820000000  0.5778580000000  0.4380930000000 1.0
C      1  0.5778420000000  0.5585980000000  0.5099010000000 1.0
C      1  0.4778390000000  0.5568810000000  0.4792680000000 1.0
C      1  0.4910990000000  0.4289790000000  0.4371950000000 1.0
C      1  0.4247620000000  0.4549530000000  0.4933250000000 1.0
C      1  0.5151920000000  0.4926430000000  0.4490700000000 1.0
C      1  0.5795800000000  0.4745890000000  0.4717870000000 1.0
C      1  0.5041080000000  0.5308520000000  0.5860680000000 1.0
C      1  0.4620360000000  0.4749050000000  0.4394060000000 1.0
C      1  0.4995240000000  0.4662100000000  0.4486590000000 1.0
C      1  0.5341810000000  0.5473530000000  0.4252660000000 1.0
C      1  0.5350500000000  0.4303540000000  0.5470910000000 1.0
C      1  0.5273920000000  0.4961870000000  0.4173780000000 1.0
C      1  0.5684280000000  0.4920070000000  0.4492880000000 1.0
C      1  0.4871050000000  0.4522760000000  0.5405740000000 1.0
C      1  0.4171110000000  0.5125760000000  0.4616980000000 1.0
C      1  0.4974030000000  0.5305990000000  0.3969770000000 1.0
END
