TITL C-2778426-5645-564 0.00336132873302126 125000 -706.894579888759 0 0 122 (C1) n - 1
REM
REM in /home/nfs/bkarasulu/CARBON/AIRSS/Generating-Clusters/REBO/Only-C1/SD-CG/HFTN-CG
REM
REM
REM
REM
REM
REM ./C.cell (11c1c37f851c82e70ff6c80c92926a4b)
REM
REM compiler GCC version 9.2.1 20190827 (Red Hat 9.2.1-1)
REM options -cpp -mtune=generic -march=x86-64 -g -O0 -fpre-include=/usr/include/finclude/math-vector-fortran.h
REM seed 1175343219 589647424 -1533671891 1600412752 -349831673 2841802 1930708723 -1088877539 -1325183431 -2147342898 1447626749 -805268685 -1026514988 -223908392 2143034646 436549162 -695016359 810128688 485103468 -934488549 -440106739 675921277 -712665955 -274010140 -577479306 126400147 2126789186 26302755 -684229681 -1749579058 889829460 -505852474 757159643
REM
CELL 1.54180   50.00000   50.00000   50.00000   90.00000   90.00000   90.00000
LATT -1
SFAC C  
C      1  0.5508000000000  0.5679380000000  0.5707740000000 1.0
C      1  0.4708560000000  0.4532770000000  0.4688400000000 1.0
C      1  0.4771070000000  0.4980350000000  0.4747510000000 1.0
C      1  0.5503460000000  0.4424240000000  0.5493150000000 1.0
C      1  0.5404460000000  0.5670110000000  0.4420300000000 1.0
C      1  0.5202950000000  0.4354610000000  0.4660970000000 1.0
C      1  0.5480210000000  0.5186370000000  0.4522860000000 1.0
C      1  0.5407330000000  0.4882360000000  0.4511030000000 1.0
C      1  0.4477490000000  0.4210200000000  0.4733680000000 1.0
C      1  0.5406200000000  0.5575420000000  0.5336100000000 1.0
C      1  0.4813400000000  0.4347240000000  0.5267540000000 1.0
C      1  0.4701230000000  0.5786240000000  0.5308170000000 1.0
C      1  0.5312710000000  0.4793310000000  0.5129450000000 1.0
C      1  0.4910750000000  0.5051480000000  0.4381020000000 1.0
C      1  0.5860620000000  0.4642120000000  0.4833620000000 1.0
C      1  0.5085190000000  0.4184760000000  0.5400330000000 1.0
C      1  0.5209810000000  0.4845350000000  0.4747340000000 1.0
C      1  0.4058400000000  0.4666200000000  0.4644290000000 1.0
C      1  0.5263700000000  0.4442100000000  0.4339190000000 1.0
C      1  0.5561230000000  0.5157880000000  0.5091160000000 1.0
C      1  0.4407140000000  0.5071570000000  0.4960460000000 1.0
C      1  0.4771130000000  0.4853740000000  0.5829740000000 1.0
C      1  0.4382240000000  0.4881880000000  0.5499420000000 1.0
C      1  0.5623420000000  0.4808210000000  0.5751780000000 1.0
C      1  0.4945960000000  0.4776400000000  0.4094730000000 1.0
C      1  0.4633420000000  0.5506630000000  0.4553080000000 1.0
C      1  0.4214180000000  0.4590460000000  0.4366570000000 1.0
C      1  0.5018140000000  0.4124070000000  0.4763180000000 1.0
C      1  0.5601120000000  0.4296420000000  0.5106780000000 1.0
C      1  0.5549910000000  0.4413680000000  0.4475210000000 1.0
C      1  0.4648860000000  0.5317060000000  0.5590910000000 1.0
C      1  0.5030300000000  0.5331400000000  0.5708590000000 1.0
C      1  0.4342590000000  0.4577690000000  0.5390040000000 1.0
C      1  0.4204220000000  0.5609410000000  0.5410790000000 1.0
C      1  0.5539840000000  0.4723400000000  0.4935120000000 1.0
C      1  0.5929550000000  0.4903860000000  0.4627300000000 1.0
C      1  0.5651610000000  0.5716350000000  0.4569440000000 1.0
C      1  0.4114040000000  0.4528450000000  0.4916140000000 1.0
C      1  0.5250590000000  0.5076850000000  0.4967960000000 1.0
C      1  0.4576570000000  0.5115290000000  0.4173660000000 1.0
C      1  0.4013200000000  0.4933890000000  0.5173400000000 1.0
C      1  0.4863870000000  0.4762260000000  0.4494580000000 1.0
C      1  0.5090020000000  0.5222830000000  0.5441710000000 1.0
C      1  0.4698690000000  0.5952510000000  0.4294150000000 1.0
C      1  0.4621950000000  0.5829160000000  0.4996970000000 1.0
C      1  0.5285320000000  0.4495710000000  0.5248630000000 1.0
C      1  0.4868020000000  0.5213400000000  0.4097470000000 1.0
C      1  0.5559740000000  0.5088300000000  0.5594460000000 1.0
C      1  0.5095840000000  0.4740830000000  0.5379310000000 1.0
C      1  0.5050450000000  0.4883510000000  0.5884510000000 1.0
C      1  0.4518230000000  0.4843430000000  0.5115590000000 1.0
C      1  0.5852700000000  0.4709410000000  0.5331540000000 1.0
C      1  0.4398040000000  0.5338490000000  0.5039560000000 1.0
C      1  0.5456260000000  0.4598790000000  0.5709420000000 1.0
C      1  0.4759000000000  0.5683590000000  0.4309960000000 1.0
C      1  0.5173200000000  0.5758860000000  0.4569840000000 1.0
C      1  0.4354900000000  0.5202700000000  0.5618120000000 1.0
C      1  0.4645390000000  0.4484970000000  0.5516040000000 1.0
C      1  0.5845560000000  0.5489280000000  0.4688440000000 1.0
C      1  0.4787150000000  0.5029940000000  0.5075380000000 1.0
C      1  0.5666240000000  0.4699430000000  0.4557430000000 1.0
C      1  0.5392780000000  0.5235740000000  0.5369670000000 1.0
C      1  0.6079070000000  0.5007320000000  0.5662550000000 1.0
C      1  0.4669160000000  0.4073580000000  0.5148860000000 1.0
C      1  0.5253200000000  0.5754880000000  0.5658590000000 1.0
C      1  0.5797040000000  0.5204850000000  0.4603090000000 1.0
C      1  0.5823140000000  0.4522410000000  0.5129420000000 1.0
C      1  0.5506310000000  0.4419980000000  0.4804160000000 1.0
C      1  0.5420520000000  0.4138260000000  0.5352950000000 1.0
C      1  0.5004160000000  0.4044900000000  0.5094980000000 1.0
C      1  0.5684860000000  0.5479550000000  0.5490190000000 1.0
C      1  0.4148370000000  0.5096360000000  0.5381130000000 1.0
C      1  0.4422730000000  0.4266200000000  0.5276280000000 1.0
C      1  0.4822690000000  0.5557250000000  0.5730820000000 1.0
C      1  0.5083730000000  0.4609060000000  0.4802190000000 1.0
C      1  0.4427380000000  0.6015150000000  0.4927440000000 1.0
C      1  0.4485650000000  0.4598750000000  0.4227930000000 1.0
C      1  0.4797120000000  0.5340680000000  0.5063430000000 1.0
C      1  0.5685430000000  0.4999330000000  0.4850090000000 1.0
C      1  0.5093490000000  0.5672710000000  0.5113090000000 1.0
C      1  0.5184210000000  0.5008040000000  0.4034770000000 1.0
C      1  0.4627940000000  0.4830770000000  0.4123250000000 1.0
C      1  0.5563590000000  0.5566590000000  0.4854550000000 1.0
C      1  0.4913670000000  0.4981980000000  0.5357140000000 1.0
C      1  0.5260530000000  0.4773070000000  0.4254000000000 1.0
C      1  0.5207830000000  0.5909610000000  0.4818560000000 1.0
C      1  0.5271220000000  0.4222740000000  0.5053250000000 1.0
C      1  0.5162800000000  0.5149970000000  0.5900350000000 1.0
C      1  0.4713510000000  0.4080680000000  0.4826800000000 1.0
C      1  0.4675550000000  0.4594850000000  0.5817820000000 1.0
C      1  0.5187280000000  0.5325560000000  0.4113170000000 1.0
C      1  0.5864460000000  0.4982490000000  0.5484820000000 1.0
C      1  0.4096080000000  0.4663070000000  0.5171530000000 1.0
C      1  0.4920760000000  0.5537050000000  0.4130560000000 1.0
C      1  0.3978960000000  0.5058320000000  0.4920830000000 1.0
C      1  0.4371310000000  0.4409920000000  0.4906780000000 1.0
C      1  0.4964960000000  0.4511220000000  0.4284300000000 1.0
C      1  0.4920900000000  0.5232680000000  0.4599730000000 1.0
C      1  0.4971530000000  0.4431770000000  0.5605100000000 1.0
C      1  0.4764750000000  0.5803140000000  0.5593130000000 1.0
C      1  0.4425550000000  0.4677100000000  0.4614500000000 1.0
C      1  0.5786550000000  0.5247280000000  0.5311530000000 1.0
C      1  0.4965100000000  0.5543740000000  0.4621810000000 1.0
C      1  0.4674360000000  0.4433330000000  0.4373570000000 1.0
C      1  0.4927920000000  0.5915160000000  0.4987130000000 1.0
C      1  0.5359580000000  0.5332540000000  0.4794990000000 1.0
C      1  0.4589970000000  0.5536030000000  0.4876750000000 1.0
C      1  0.4792470000000  0.5471040000000  0.5342860000000 1.0
C      1  0.4110560000000  0.4964390000000  0.4699600000000 1.0
C      1  0.5078390000000  0.5620640000000  0.5425910000000 1.0
C      1  0.5164780000000  0.4669960000000  0.5697000000000 1.0
C      1  0.5627910000000  0.5410710000000  0.5819220000000 1.0
C      1  0.5412130000000  0.5746930000000  0.5042170000000 1.0
C      1  0.4439510000000  0.4993890000000  0.4660220000000 1.0
C      1  0.5390560000000  0.5400810000000  0.4314330000000 1.0
C      1  0.4858150000000  0.4507890000000  0.4993720000000 1.0
C      1  0.4486570000000  0.5263230000000  0.4395280000000 1.0
C      1  0.5448320000000  0.5180390000000  0.5886520000000 1.0
C      1  0.4554920000000  0.4573580000000  0.5052850000000 1.0
C      1  0.5061140000000  0.5432130000000  0.4914070000000 1.0
C      1  0.4253900000000  0.5376700000000  0.5272550000000 1.0
C      1  0.4687600000000  0.4995430000000  0.5574840000000 1.0
END
