TITL C-2778429-3646-29 -0.00393214708740544 125000 -95.4219853198211 0 0 19 (C1) n - 1
REM
REM in /home/nfs/bkarasulu/CARBON/AIRSS/Generating-Clusters/REBO/Only-C1/SD-CG/HFTN-CG
REM
REM
REM
REM
REM
REM ./C.cell (11c1c37f851c82e70ff6c80c92926a4b)
REM
REM compiler GCC version 9.2.1 20190827 (Red Hat 9.2.1-1)
REM options -cpp -mtune=generic -march=x86-64 -g -O0 -fpre-include=/usr/include/finclude/math-vector-fortran.h
REM seed 1742943866 -1419416840 1958290652 837949624 1211520070 -2138435835 -170281164 -1813428187 -1457352618 -753598403 -1790202202 -1295385009 -531944629 830332682 -573920777 -1300708639 -1898452326 390089927 -475784315 -434182408 284548091 -1260792916 -1997591187 425963152 1822771935 -683120449 -1105269268 -866156604 1571963435 -1421300745 147550592 1437487220 108611737
REM
CELL 1.54180   50.00000   50.00000   50.00000   90.00000   90.00000   90.00000
LATT -1
SFAC C  
C      1  0.5214110000000  0.5737450000000  0.5289580000000 1.0
C      1  0.5398040000000  0.5223760000000  0.5258340000000 1.0
C      1  0.4139490000000  0.4770300000000  0.4877630000000 1.0
C      1  0.3965900000000  0.4757250000000  0.5073530000000 1.0
C      1  0.4240770000000  0.4782880000000  0.4409150000000 1.0
C      1  0.5473300000000  0.4938860000000  0.5084860000000 1.0
C      1  0.5630440000000  0.5010670000000  0.5353170000000 1.0
C      1  0.5231530000000  0.5233750000000  0.4965480000000 1.0
C      1  0.5182530000000  0.5517240000000  0.5096170000000 1.0
C      1  0.5348270000000  0.4982440000000  0.4776770000000 1.0
C      1  0.5020620000000  0.5051680000000  0.4774840000000 1.0
C      1  0.5414480000000  0.5478070000000  0.5690270000000 1.0
C      1  0.4324750000000  0.4784230000000  0.4668540000000 1.0
C      1  0.5027750000000  0.4599670000000  0.4865060000000 1.0
C      1  0.5354490000000  0.4678640000000  0.4920440000000 1.0
C      1  0.5222830000000  0.4366700000000  0.4950770000000 1.0
C      1  0.4868100000000  0.4814790000000  0.4789490000000 1.0
C      1  0.5345230000000  0.5472060000000  0.5426680000000 1.0
C      1  0.4597360000000  0.4799560000000  0.4729230000000 1.0
END
