TITL C-2778437-8639-1116 -2.35488462503813e-08 125000 -183.574884821931 0 0 32 (C1) n - 1
REM
REM in /home/nfs/bkarasulu/CARBON/AIRSS/Generating-Clusters/REBO/Only-C1/SD-CG/HFTN-CG
REM
REM
REM
REM
REM
REM ./C.cell (11c1c37f851c82e70ff6c80c92926a4b)
REM
REM compiler GCC version 9.2.1 20190827 (Red Hat 9.2.1-1)
REM options -cpp -mtune=generic -march=x86-64 -g -O0 -fpre-include=/usr/include/finclude/math-vector-fortran.h
REM seed 1769342479 1063871957 281050827 -908577541 433495758 -1188049426 431746591 -748887799 -1371945941 2064763199 -659190721 576236420 817672412 1491546829 -671608124 144828993 -744928031 -515636846 -338878552 -1910167672 -1349602678 -245171007 -1462770943 -145845188 486966019 1716108214 283009109 -448593316 -165258548 1000099753 -551799556 -645891364 2097959202
REM
CELL 1.54180   50.00000   50.00000   50.00000   90.00000   90.00000   90.00000
LATT -1
SFAC C  
C      1  0.5144160000000  0.5335180000000  0.4966660000000 1.0
C      1  0.5487250000000  0.4805990000000  0.4710400000000 1.0
C      1  0.5411160000000  0.4963430000000  0.5196290000000 1.0
C      1  0.5594690000000  0.4893960000000  0.4956350000000 1.0
C      1  0.5086300000000  0.5308070000000  0.4656140000000 1.0
C      1  0.4796620000000  0.4628890000000  0.4878510000000 1.0
C      1  0.5167620000000  0.4777770000000  0.5211020000000 1.0
C      1  0.4999240000000  0.4528110000000  0.5789200000000 1.0
C      1  0.4972130000000  0.4844830000000  0.5411810000000 1.0
C      1  0.4396940000000  0.5239930000000  0.4729030000000 1.0
C      1  0.4605930000000  0.4545940000000  0.5496550000000 1.0
C      1  0.4191870000000  0.5246440000000  0.4565980000000 1.0
C      1  0.4589300000000  0.4751430000000  0.5040050000000 1.0
C      1  0.4485460000000  0.4595750000000  0.5255040000000 1.0
C      1  0.5301230000000  0.5266350000000  0.5176360000000 1.0
C      1  0.5531890000000  0.5249040000000  0.5585460000000 1.0
C      1  0.4861070000000  0.4637370000000  0.5582580000000 1.0
C      1  0.5073650000000  0.4651870000000  0.4489240000000 1.0
C      1  0.5180160000000  0.4868510000000  0.4319250000000 1.0
C      1  0.4639680000000  0.5033540000000  0.5100210000000 1.0
C      1  0.4804220000000  0.4603860000000  0.4588310000000 1.0
C      1  0.5248220000000  0.4641500000000  0.4733690000000 1.0
C      1  0.4614180000000  0.5233040000000  0.4901750000000 1.0
C      1  0.5202470000000  0.5165990000000  0.4455520000000 1.0
C      1  0.5078450000000  0.4649980000000  0.4972500000000 1.0
C      1  0.5376820000000  0.5408270000000  0.5415160000000 1.0
C      1  0.5566210000000  0.4993890000000  0.5477660000000 1.0
C      1  0.4717440000000  0.5965230000000  0.4839000000000 1.0
C      1  0.4842280000000  0.5422580000000  0.4853930000000 1.0
C      1  0.4798600000000  0.5060550000000  0.5336030000000 1.0
C      1  0.5460110000000  0.4966070000000  0.4464480000000 1.0
C      1  0.4774630000000  0.5716620000000  0.4845840000000 1.0
END
