TITL C-2778422-5617-1080 -9.42336616269931e-05 125000 -316.599490384431 0 0 56 (C1) n - 1
REM
REM in /home/nfs/bkarasulu/CARBON/AIRSS/Generating-Clusters/REBO/Only-C1/SD-CG/HFTN-CG
REM
REM
REM
REM
REM
REM ./C.cell (11c1c37f851c82e70ff6c80c92926a4b)
REM
REM compiler GCC version 9.2.1 20190827 (Red Hat 9.2.1-1)
REM options -cpp -mtune=generic -march=x86-64 -g -O0 -fpre-include=/usr/include/finclude/math-vector-fortran.h
REM seed -1985820815 622312423 465473055 1249719722 -1167939412 1317128615 578181113 1909810864 -93826943 640525839 757202500 357034354 -17566427 -857090757 -891406969 949749463 2104869690 1622335005 738899375 -1163659342 -1375699615 -1735944870 -275817672 -407344459 621584977 1013817796 1547473577 -1988427105 19771032 2131045480 -914223424 -1392190569 1872057770
REM
CELL 1.54180   50.00000   50.00000   50.00000   90.00000   90.00000   90.00000
LATT -1
SFAC C  
C      1  0.5611580000000  0.5192000000000  0.5112930000000 1.0
C      1  0.4888190000000  0.4694220000000  0.4673770000000 1.0
C      1  0.5209500000000  0.4910600000000  0.4342130000000 1.0
C      1  0.5408790000000  0.5078290000000  0.4499260000000 1.0
C      1  0.4603900000000  0.4555700000000  0.5128450000000 1.0
C      1  0.5013130000000  0.5051160000000  0.4546230000000 1.0
C      1  0.4427790000000  0.5608460000000  0.5073040000000 1.0
C      1  0.5221870000000  0.5365500000000  0.5575490000000 1.0
C      1  0.4679710000000  0.5181450000000  0.5530970000000 1.0
C      1  0.4869120000000  0.5690930000000  0.4864810000000 1.0
C      1  0.4771700000000  0.5549270000000  0.5403740000000 1.0
C      1  0.5693340000000  0.4622110000000  0.5171140000000 1.0
C      1  0.4900200000000  0.4700940000000  0.5156710000000 1.0
C      1  0.4933890000000  0.5369880000000  0.5589060000000 1.0
C      1  0.5034860000000  0.5424320000000  0.4988150000000 1.0
C      1  0.5429160000000  0.4896170000000  0.5490090000000 1.0
C      1  0.4689430000000  0.5030200000000  0.4587240000000 1.0
C      1  0.5325670000000  0.4298800000000  0.4790990000000 1.0
C      1  0.4835870000000  0.5330060000000  0.4508940000000 1.0
C      1  0.4549060000000  0.5398110000000  0.4651380000000 1.0
C      1  0.5653210000000  0.4675470000000  0.4617730000000 1.0
C      1  0.4375910000000  0.4710040000000  0.5073470000000 1.0
C      1  0.5225210000000  0.4677290000000  0.5631530000000 1.0
C      1  0.5374420000000  0.5195430000000  0.5368020000000 1.0
C      1  0.5060950000000  0.5490100000000  0.4664130000000 1.0
C      1  0.5369290000000  0.5375970000000  0.4621640000000 1.0
C      1  0.5216280000000  0.5204420000000  0.5083560000000 1.0
C      1  0.4616920000000  0.5129870000000  0.4880960000000 1.0
C      1  0.5045010000000  0.4922830000000  0.4857150000000 1.0
C      1  0.4281650000000  0.5235390000000  0.4695020000000 1.0
C      1  0.5594990000000  0.4380680000000  0.5021310000000 1.0
C      1  0.5306730000000  0.4264790000000  0.5113890000000 1.0
C      1  0.4300980000000  0.5079540000000  0.4942360000000 1.0
C      1  0.5074040000000  0.4417720000000  0.5240990000000 1.0
C      1  0.4834580000000  0.5016050000000  0.5070170000000 1.0
C      1  0.5659950000000  0.5269830000000  0.4782590000000 1.0
C      1  0.4927900000000  0.5656790000000  0.5193810000000 1.0
C      1  0.5111740000000  0.4638290000000  0.4437660000000 1.0
C      1  0.5518700000000  0.4908020000000  0.4697760000000 1.0
C      1  0.4409650000000  0.5192440000000  0.5401990000000 1.0
C      1  0.4872970000000  0.4422400000000  0.4964780000000 1.0
C      1  0.4885140000000  0.5032930000000  0.5379210000000 1.0
C      1  0.5352880000000  0.4930590000000  0.4956000000000 1.0
C      1  0.4307340000000  0.4983810000000  0.5225860000000 1.0
C      1  0.4318380000000  0.4703200000000  0.4796800000000 1.0
C      1  0.5126300000000  0.4442070000000  0.5543190000000 1.0
C      1  0.4569400000000  0.5635230000000  0.4836420000000 1.0
C      1  0.4588500000000  0.4739500000000  0.4591880000000 1.0
C      1  0.4283180000000  0.4632980000000  0.4490560000000 1.0
C      1  0.5370800000000  0.5526070000000  0.5746080000000 1.0
C      1  0.5429980000000  0.5434730000000  0.4952510000000 1.0
C      1  0.5614250000000  0.4420570000000  0.4700720000000 1.0
C      1  0.4501090000000  0.5477110000000  0.5318710000000 1.0
C      1  0.5068650000000  0.4414300000000  0.4693060000000 1.0
C      1  0.5555930000000  0.4869520000000  0.5205680000000 1.0
C      1  0.5100300000000  0.4945880000000  0.5518250000000 1.0
END
