TITL C-2778436-5916-586 -0.00416144117624176 125000 -1094.8144761494 0 0 188 (C1) n - 1
REM
REM in /home/nfs/bkarasulu/CARBON/AIRSS/Generating-Clusters/REBO/Only-C1/SD-CG/HFTN-CG
REM
REM
REM
REM
REM
REM ./C.cell (11c1c37f851c82e70ff6c80c92926a4b)
REM
REM compiler GCC version 9.2.1 20190827 (Red Hat 9.2.1-1)
REM options -cpp -mtune=generic -march=x86-64 -g -O0 -fpre-include=/usr/include/finclude/math-vector-fortran.h
REM seed 1892503518 -1209304860 601534660 -696151186 1377878065 -1443819628 878505050 1646952177 1422160901 1289470272 -327250688 38242517 -1824773091 705233743 1165178359 120493776 1824272547 1640126186 -178103518 741506370 -413452180 -1468550998 -389409118 1660780684 -432858177 300700184 673677136 539360867 -764252741 -1445631595 -472094677 1679935129 -1265123542
REM
CELL 1.54180   50.00000   50.00000   50.00000   90.00000   90.00000   90.00000
LATT -1
SFAC C  
C      1  0.4902300000000  0.4014350000000  0.4470480000000 1.0
C      1  0.4932890000000  0.5524200000000  0.5606620000000 1.0
C      1  0.5355080000000  0.4090950000000  0.5429140000000 1.0
C      1  0.5731200000000  0.4404560000000  0.5673280000000 1.0
C      1  0.4628080000000  0.5713440000000  0.5203170000000 1.0
C      1  0.5430470000000  0.5977980000000  0.5385550000000 1.0
C      1  0.5162420000000  0.6136270000000  0.5523470000000 1.0
C      1  0.4830230000000  0.4540570000000  0.5936290000000 1.0
C      1  0.5565500000000  0.5216090000000  0.5705610000000 1.0
C      1  0.5046850000000  0.3988650000000  0.4762630000000 1.0
C      1  0.5668610000000  0.4985320000000  0.3979410000000 1.0
C      1  0.4240900000000  0.4215330000000  0.4831920000000 1.0
C      1  0.5438320000000  0.5663000000000  0.5427510000000 1.0
C      1  0.5128810000000  0.5552280000000  0.5850860000000 1.0
C      1  0.5824440000000  0.5137620000000  0.4342650000000 1.0
C      1  0.5166030000000  0.5035220000000  0.4594900000000 1.0
C      1  0.4930580000000  0.4655470000000  0.4646430000000 1.0
C      1  0.4932120000000  0.5621700000000  0.4395150000000 1.0
C      1  0.4091430000000  0.4722470000000  0.5177850000000 1.0
C      1  0.4512610000000  0.4311730000000  0.4647910000000 1.0
C      1  0.4934700000000  0.6093710000000  0.4514210000000 1.0
C      1  0.5655960000000  0.4219420000000  0.5329230000000 1.0
C      1  0.4414160000000  0.5415720000000  0.5789970000000 1.0
C      1  0.4651080000000  0.4181210000000  0.5609190000000 1.0
C      1  0.5198690000000  0.6142670000000  0.4798440000000 1.0
C      1  0.5083110000000  0.5336130000000  0.4286430000000 1.0
C      1  0.4369590000000  0.5314900000000  0.4174440000000 1.0
C      1  0.4718980000000  0.4516060000000  0.4471600000000 1.0
C      1  0.5754890000000  0.4493010000000  0.5059230000000 1.0
C      1  0.5096780000000  0.4742020000000  0.5923330000000 1.0
C      1  0.4870950000000  0.4284810000000  0.5805770000000 1.0
C      1  0.5036740000000  0.4472020000000  0.5468070000000 1.0
C      1  0.6064490000000  0.4724160000000  0.5444080000000 1.0
C      1  0.5746700000000  0.4965730000000  0.5442830000000 1.0
C      1  0.5217790000000  0.5656380000000  0.4734970000000 1.0
C      1  0.5953130000000  0.5332150000000  0.5556480000000 1.0
C      1  0.4286190000000  0.5442320000000  0.4792560000000 1.0
C      1  0.4480970000000  0.5894840000000  0.4625520000000 1.0
C      1  0.4193440000000  0.5087780000000  0.4273680000000 1.0
C      1  0.5394850000000  0.5155770000000  0.5163540000000 1.0
C      1  0.5795340000000  0.5107910000000  0.5842770000000 1.0
C      1  0.4913110000000  0.5298420000000  0.3991080000000 1.0
C      1  0.5187890000000  0.4195290000000  0.5072030000000 1.0
C      1  0.4616390000000  0.4733160000000  0.5997370000000 1.0
C      1  0.5633590000000  0.4879360000000  0.4625330000000 1.0
C      1  0.4788940000000  0.5869410000000  0.4502440000000 1.0
C      1  0.4947880000000  0.5173020000000  0.6138020000000 1.0
C      1  0.5979940000000  0.5381700000000  0.4742250000000 1.0
C      1  0.4609100000000  0.4015660000000  0.5100300000000 1.0
C      1  0.5540490000000  0.4828490000000  0.5618300000000 1.0
C      1  0.4732050000000  0.5000030000000  0.6090880000000 1.0
C      1  0.5267780000000  0.4349090000000  0.4133280000000 1.0
C      1  0.4133100000000  0.5667930000000  0.4960650000000 1.0
C      1  0.5709280000000  0.5546900000000  0.4612040000000 1.0
C      1  0.5087660000000  0.5001920000000  0.4920480000000 1.0
C      1  0.4084510000000  0.4823730000000  0.4595300000000 1.0
C      1  0.5360530000000  0.4401640000000  0.4714520000000 1.0
C      1  0.4732600000000  0.4928410000000  0.4064080000000 1.0
C      1  0.4187780000000  0.5454890000000  0.4412010000000 1.0
C      1  0.4772720000000  0.3977690000000  0.5379460000000 1.0
C      1  0.4905610000000  0.5232310000000  0.4653120000000 1.0
C      1  0.5231120000000  0.4509910000000  0.5746370000000 1.0
C      1  0.5339300000000  0.5041160000000  0.4197110000000 1.0
C      1  0.4393640000000  0.6188800000000  0.4605690000000 1.0
C      1  0.4231010000000  0.5712100000000  0.4632830000000 1.0
C      1  0.4672790000000  0.5817560000000  0.4881020000000 1.0
C      1  0.4519840000000  0.5009500000000  0.4756570000000 1.0
C      1  0.4263310000000  0.4823370000000  0.4237830000000 1.0
C      1  0.5350010000000  0.4859100000000  0.4902260000000 1.0
C      1  0.5495710000000  0.5260360000000  0.4052890000000 1.0
C      1  0.4378190000000  0.5234660000000  0.5118360000000 1.0
C      1  0.6143490000000  0.4968360000000  0.5263690000000 1.0
C      1  0.5459030000000  0.4732970000000  0.5162480000000 1.0
C      1  0.4327950000000  0.4913460000000  0.5019980000000 1.0
C      1  0.5448590000000  0.5593880000000  0.5742260000000 1.0
C      1  0.5084500000000  0.4601190000000  0.4138230000000 1.0
C      1  0.4071550000000  0.4603710000000  0.4331680000000 1.0
C      1  0.4924780000000  0.5050900000000  0.4298710000000 1.0
C      1  0.5349800000000  0.5823540000000  0.4039560000000 1.0
C      1  0.5360210000000  0.4689990000000  0.4645890000000 1.0
C      1  0.4023760000000  0.5222520000000  0.5302550000000 1.0
C      1  0.4781480000000  0.5513470000000  0.4772960000000 1.0
C      1  0.5074150000000  0.4455610000000  0.4882590000000 1.0
C      1  0.5034130000000  0.5076670000000  0.3848000000000 1.0
C      1  0.5324820000000  0.5303920000000  0.4524110000000 1.0
C      1  0.5722740000000  0.5455220000000  0.5184480000000 1.0
C      1  0.5605700000000  0.5245260000000  0.5377790000000 1.0
C      1  0.6046920000000  0.4932160000000  0.4975540000000 1.0
C      1  0.4203570000000  0.4196370000000  0.5327000000000 1.0
C      1  0.5140140000000  0.4759160000000  0.4417990000000 1.0
C      1  0.4350420000000  0.5581320000000  0.5522720000000 1.0
C      1  0.4707700000000  0.5366440000000  0.4410750000000 1.0
C      1  0.5787170000000  0.4816300000000  0.5166710000000 1.0
C      1  0.4650750000000  0.4943040000000  0.5126750000000 1.0
C      1  0.5474590000000  0.4020580000000  0.5113920000000 1.0
C      1  0.4533740000000  0.5325560000000  0.5407510000000 1.0
C      1  0.5253040000000  0.5366470000000  0.4854620000000 1.0
C      1  0.4626160000000  0.5077740000000  0.5795910000000 1.0
C      1  0.4302730000000  0.4530970000000  0.4901380000000 1.0
C      1  0.4895060000000  0.5434730000000  0.6034260000000 1.0
C      1  0.4518070000000  0.5318030000000  0.4685380000000 1.0
C      1  0.4770310000000  0.4657240000000  0.5544240000000 1.0
C      1  0.5075050000000  0.4629190000000  0.5181140000000 1.0
C      1  0.4310040000000  0.5103970000000  0.5771840000000 1.0
C      1  0.6013740000000  0.4998760000000  0.5639210000000 1.0
C      1  0.4612450000000  0.5241360000000  0.4044180000000 1.0
C      1  0.4335340000000  0.4273610000000  0.5577380000000 1.0
C      1  0.4535800000000  0.4781790000000  0.5380240000000 1.0
C      1  0.3989380000000  0.4427590000000  0.4929830000000 1.0
C      1  0.4792210000000  0.4218040000000  0.4377930000000 1.0
C      1  0.5458150000000  0.4224510000000  0.4459830000000 1.0
C      1  0.5999240000000  0.4974500000000  0.4498940000000 1.0
C      1  0.5261800000000  0.5687460000000  0.4339130000000 1.0
C      1  0.4103520000000  0.5221870000000  0.4911110000000 1.0
C      1  0.4127800000000  0.5513380000000  0.5269500000000 1.0
C      1  0.5209580000000  0.5044200000000  0.6032920000000 1.0
C      1  0.4946210000000  0.3964590000000  0.5083000000000 1.0
C      1  0.5188000000000  0.4088030000000  0.4200820000000 1.0
C      1  0.4653520000000  0.4402930000000  0.5377280000000 1.0
C      1  0.5893960000000  0.4680980000000  0.4599460000000 1.0
C      1  0.4453940000000  0.4557110000000  0.5143060000000 1.0
C      1  0.5624070000000  0.5301310000000  0.4429060000000 1.0
C      1  0.5483260000000  0.5747970000000  0.4577410000000 1.0
C      1  0.5794940000000  0.5747720000000  0.5278650000000 1.0
C      1  0.5067930000000  0.5033110000000  0.5527810000000 1.0
C      1  0.5385880000000  0.4003890000000  0.4783290000000 1.0
C      1  0.5094880000000  0.5857120000000  0.4890130000000 1.0
C      1  0.4318750000000  0.4066010000000  0.5093120000000 1.0
C      1  0.5561710000000  0.5105440000000  0.4870170000000 1.0
C      1  0.5305780000000  0.5013690000000  0.5718020000000 1.0
C      1  0.4898140000000  0.6032190000000  0.5555950000000 1.0
C      1  0.5361590000000  0.5334950000000  0.5942160000000 1.0
C      1  0.6084830000000  0.5114050000000  0.4733930000000 1.0
C      1  0.6075370000000  0.4395290000000  0.5110710000000 1.0
C      1  0.5210870000000  0.6137760000000  0.5196550000000 1.0
C      1  0.3930810000000  0.4549960000000  0.5535070000000 1.0
C      1  0.4141240000000  0.5075480000000  0.5517480000000 1.0
C      1  0.5532450000000  0.5846810000000  0.5086060000000 1.0
C      1  0.5657790000000  0.4708790000000  0.4135250000000 1.0
C      1  0.5068020000000  0.5241300000000  0.5114470000000 1.0
C      1  0.3908000000000  0.5036380000000  0.5062420000000 1.0
C      1  0.4625990000000  0.5455320000000  0.5043250000000 1.0
C      1  0.4652380000000  0.6070730000000  0.5379880000000 1.0
C      1  0.5589180000000  0.4419570000000  0.4220750000000 1.0
C      1  0.4288920000000  0.4427740000000  0.4194920000000 1.0
C      1  0.5185120000000  0.4192190000000  0.5710510000000 1.0
C      1  0.4826570000000  0.4916670000000  0.4768600000000 1.0
C      1  0.5115520000000  0.5806810000000  0.5208070000000 1.0
C      1  0.4769480000000  0.4639940000000  0.4063700000000 1.0
C      1  0.4771830000000  0.5212830000000  0.5184360000000 1.0
C      1  0.5519240000000  0.4880760000000  0.4335260000000 1.0
C      1  0.4628370000000  0.5478950000000  0.5945930000000 1.0
C      1  0.4368190000000  0.4780160000000  0.5862000000000 1.0
C      1  0.4728640000000  0.6080660000000  0.5085280000000 1.0
C      1  0.3982170000000  0.4404510000000  0.5249720000000 1.0
C      1  0.5205380000000  0.4909430000000  0.5288610000000 1.0
C      1  0.5922590000000  0.4416290000000  0.5412410000000 1.0
C      1  0.6145730000000  0.5240970000000  0.5352340000000 1.0
C      1  0.4778150000000  0.4651380000000  0.5090440000000 1.0
C      1  0.5699850000000  0.5379260000000  0.4901060000000 1.0
C      1  0.4813960000000  0.4238060000000  0.4788650000000 1.0
C      1  0.5740850000000  0.5569400000000  0.5565440000000 1.0
C      1  0.4226770000000  0.4560530000000  0.5682310000000 1.0
C      1  0.5167100000000  0.4895860000000  0.4022140000000 1.0
C      1  0.5999510000000  0.4635120000000  0.4881270000000 1.0
C      1  0.4098320000000  0.5164910000000  0.4575510000000 1.0
C      1  0.5437710000000  0.4412980000000  0.5152310000000 1.0
C      1  0.4874390000000  0.5739700000000  0.5397080000000 1.0
C      1  0.4867540000000  0.4873920000000  0.5719700000000 1.0
C      1  0.4299070000000  0.5799760000000  0.5197340000000 1.0
C      1  0.4360510000000  0.4622690000000  0.4604500000000 1.0
C      1  0.5648920000000  0.4220250000000  0.4732340000000 1.0
C      1  0.5338460000000  0.5565980000000  0.5117180000000 1.0
C      1  0.4637340000000  0.5031690000000  0.4437310000000 1.0
C      1  0.5402810000000  0.5515350000000  0.4078450000000 1.0
C      1  0.5795080000000  0.4414490000000  0.4492850000000 1.0
C      1  0.5467270000000  0.5972900000000  0.4809500000000 1.0
C      1  0.4811850000000  0.5243550000000  0.5579120000000 1.0
C      1  0.5289830000000  0.3955320000000  0.4454710000000 1.0
C      1  0.4763050000000  0.4316000000000  0.5089020000000 1.0
C      1  0.4421360000000  0.5912360000000  0.5475460000000 1.0
C      1  0.4968210000000  0.6216110000000  0.5012740000000 1.0
C      1  0.4541780000000  0.4469970000000  0.4087850000000 1.0
C      1  0.4535230000000  0.4756210000000  0.4366180000000 1.0
C      1  0.5517240000000  0.4566950000000  0.5698480000000 1.0
C      1  0.3949930000000  0.4759640000000  0.4868510000000 1.0
C      1  0.4231890000000  0.4795140000000  0.5442890000000 1.0
C      1  0.5024310000000  0.4149620000000  0.5428860000000 1.0
END
