TITL C-2778435-5768-426 -0.00256449582848211 125000 -416.889728711654 0 0 73 (C1) n - 1
REM
REM in /home/nfs/bkarasulu/CARBON/AIRSS/Generating-Clusters/REBO/Only-C1/SD-CG/HFTN-CG
REM
REM
REM
REM
REM
REM ./C.cell (11c1c37f851c82e70ff6c80c92926a4b)
REM
REM compiler GCC version 9.2.1 20190827 (Red Hat 9.2.1-1)
REM options -cpp -mtune=generic -march=x86-64 -g -O0 -fpre-include=/usr/include/finclude/math-vector-fortran.h
REM seed 644300382 -1190709489 503825532 1945620556 846199542 1143612562 1625487875 -1895823461 1501926708 1697424475 -1027067176 1773189648 1542339218 -666556115 -1047176662 1318988317 -689356106 1682974491 1283241159 -1823364207 -354776683 -2121768530 788822988 -1436819635 -657705715 697190985 281831944 1982647526 -1860097990 -270478417 1335288962 141565830 786307214
REM
CELL 1.54180   50.00000   50.00000   50.00000   90.00000   90.00000   90.00000
LATT -1
SFAC C  
C      1  0.5136250000000  0.4773510000000  0.4319450000000 1.0
C      1  0.4711140000000  0.4654950000000  0.5357910000000 1.0
C      1  0.4858800000000  0.5588500000000  0.5030440000000 1.0
C      1  0.5691960000000  0.4772630000000  0.4943240000000 1.0
C      1  0.4853240000000  0.5379380000000  0.5504000000000 1.0
C      1  0.4908040000000  0.5104850000000  0.5655960000000 1.0
C      1  0.5277420000000  0.5320810000000  0.5412380000000 1.0
C      1  0.4140290000000  0.5073680000000  0.4885820000000 1.0
C      1  0.5344920000000  0.4849570000000  0.5592420000000 1.0
C      1  0.4604610000000  0.4105290000000  0.5389170000000 1.0
C      1  0.5460600000000  0.4314740000000  0.4691300000000 1.0
C      1  0.4432960000000  0.4765780000000  0.5224960000000 1.0
C      1  0.5556760000000  0.4844530000000  0.5407240000000 1.0
C      1  0.4505350000000  0.5125410000000  0.4529380000000 1.0
C      1  0.4686760000000  0.4797370000000  0.5784360000000 1.0
C      1  0.5151400000000  0.4593220000000  0.5619990000000 1.0
C      1  0.4904150000000  0.4881310000000  0.4962180000000 1.0
C      1  0.5207130000000  0.5544120000000  0.4460130000000 1.0
C      1  0.5206860000000  0.5091510000000  0.5614070000000 1.0
C      1  0.4236940000000  0.5327960000000  0.4826110000000 1.0
C      1  0.4940930000000  0.4866110000000  0.5410830000000 1.0
C      1  0.4999830000000  0.5174510000000  0.5277830000000 1.0
C      1  0.4548600000000  0.5136160000000  0.5415440000000 1.0
C      1  0.5581240000000  0.5324770000000  0.5321270000000 1.0
C      1  0.5644210000000  0.5461580000000  0.4831990000000 1.0
C      1  0.4623700000000  0.5228990000000  0.4831040000000 1.0
C      1  0.5621820000000  0.4766390000000  0.4665230000000 1.0
C      1  0.4948500000000  0.5353600000000  0.4509230000000 1.0
C      1  0.5477130000000  0.5608000000000  0.4596390000000 1.0
C      1  0.4674080000000  0.4411770000000  0.4784870000000 1.0
C      1  0.4458960000000  0.5589360000000  0.5184790000000 1.0
C      1  0.4163820000000  0.4782340000000  0.4743840000000 1.0
C      1  0.5108420000000  0.4608830000000  0.4613960000000 1.0
C      1  0.4957350000000  0.5070920000000  0.4517190000000 1.0
C      1  0.5325110000000  0.5009310000000  0.5116160000000 1.0
C      1  0.5807940000000  0.5013820000000  0.5038400000000 1.0
C      1  0.5317370000000  0.5614490000000  0.5263110000000 1.0
C      1  0.5075840000000  0.5744320000000  0.5221380000000 1.0
C      1  0.4732680000000  0.4327520000000  0.5373180000000 1.0
C      1  0.5584560000000  0.5554860000000  0.5116740000000 1.0
C      1  0.4661140000000  0.4998680000000  0.5160240000000 1.0
C      1  0.4199680000000  0.4801430000000  0.5071450000000 1.0
C      1  0.4699280000000  0.4636960000000  0.4961210000000 1.0
C      1  0.4532610000000  0.4970400000000  0.5642330000000 1.0
C      1  0.5229460000000  0.5192380000000  0.4925810000000 1.0
C      1  0.5412340000000  0.4474770000000  0.5450730000000 1.0
C      1  0.4919240000000  0.5280150000000  0.4979290000000 1.0
C      1  0.4473310000000  0.5403690000000  0.5381920000000 1.0
C      1  0.5231750000000  0.4420620000000  0.4802700000000 1.0
C      1  0.5432170000000  0.5235340000000  0.4731620000000 1.0
C      1  0.4495350000000  0.5528240000000  0.4877920000000 1.0
C      1  0.5193360000000  0.4806400000000  0.5226010000000 1.0
C      1  0.4421840000000  0.4738780000000  0.4588060000000 1.0
C      1  0.5699320000000  0.5072130000000  0.5299030000000 1.0
C      1  0.4956070000000  0.5747860000000  0.4566950000000 1.0
C      1  0.4865370000000  0.4594730000000  0.4386510000000 1.0
C      1  0.5022390000000  0.4472220000000  0.5346930000000 1.0
C      1  0.4617010000000  0.4533910000000  0.4517740000000 1.0
C      1  0.5050420000000  0.4896480000000  0.4725110000000 1.0
C      1  0.5305050000000  0.5004650000000  0.4330890000000 1.0
C      1  0.5230330000000  0.4503250000000  0.5096640000000 1.0
C      1  0.4707280000000  0.4985900000000  0.4397700000000 1.0
C      1  0.5541440000000  0.4617950000000  0.5173700000000 1.0
C      1  0.4814860000000  0.5622390000000  0.5366560000000 1.0
C      1  0.5488070000000  0.5004540000000  0.4559310000000 1.0
C      1  0.4757860000000  0.5709710000000  0.4759250000000 1.0
C      1  0.4708000000000  0.4149400000000  0.4838020000000 1.0
C      1  0.4699450000000  0.5465520000000  0.4448410000000 1.0
C      1  0.4915600000000  0.4655770000000  0.5807060000000 1.0
C      1  0.5243180000000  0.5276630000000  0.4252640000000 1.0
C      1  0.5864690000000  0.5231840000000  0.4861740000000 1.0
C      1  0.4521400000000  0.4911070000000  0.4861970000000 1.0
C      1  0.5623000000000  0.4499410000000  0.4561170000000 1.0
END
