TITL C-2778422-5617-27 0.00919173329873809 125000 -1097.80965391371 0 0 188 (C1) n - 1
REM
REM in /home/nfs/bkarasulu/CARBON/AIRSS/Generating-Clusters/REBO/Only-C1/SD-CG/HFTN-CG
REM
REM
REM
REM
REM
REM ./C.cell (11c1c37f851c82e70ff6c80c92926a4b)
REM
REM compiler GCC version 9.2.1 20190827 (Red Hat 9.2.1-1)
REM options -cpp -mtune=generic -march=x86-64 -g -O0 -fpre-include=/usr/include/finclude/math-vector-fortran.h
REM seed 86155258 -1180251425 -1697051018 344735142 1562589732 -907069593 -317104906 -448002951 -1359644492 -1503763809 248630917 1673720009 -992565815 -1626721237 1790054840 1702396126 -975318712 13430909 1655350825 -1251105290 -777504888 -1882489092 -942889570 686924031 630497289 1029073629 1136944971 950138108 1856209603 872064287 -425384315 1836274761 1004910908
REM
CELL 1.54180   50.00000   50.00000   50.00000   90.00000   90.00000   90.00000
LATT -1
SFAC C  
C      1  0.5535690000000  0.4651250000000  0.4082800000000 1.0
C      1  0.5741490000000  0.4436180000000  0.5225650000000 1.0
C      1  0.4428090000000  0.4215340000000  0.4800640000000 1.0
C      1  0.5508650000000  0.4970510000000  0.6049220000000 1.0
C      1  0.4561340000000  0.4391660000000  0.4101200000000 1.0
C      1  0.6057740000000  0.4933090000000  0.4679120000000 1.0
C      1  0.5453930000000  0.4532680000000  0.5328810000000 1.0
C      1  0.5709760000000  0.4296820000000  0.4542290000000 1.0
C      1  0.5123510000000  0.5025170000000  0.4943060000000 1.0
C      1  0.4499510000000  0.5506490000000  0.5302090000000 1.0
C      1  0.5179220000000  0.5060950000000  0.6069650000000 1.0
C      1  0.4761620000000  0.4946150000000  0.4416470000000 1.0
C      1  0.4944200000000  0.4914520000000  0.5177560000000 1.0
C      1  0.4587050000000  0.5094280000000  0.4003350000000 1.0
C      1  0.5549440000000  0.3938660000000  0.4599420000000 1.0
C      1  0.4023020000000  0.5157340000000  0.4278490000000 1.0
C      1  0.4763640000000  0.3991260000000  0.5160490000000 1.0
C      1  0.5363790000000  0.4154110000000  0.4754750000000 1.0
C      1  0.4101010000000  0.4475840000000  0.5220600000000 1.0
C      1  0.5397960000000  0.4209800000000  0.5290810000000 1.0
C      1  0.5082810000000  0.6009800000000  0.4613690000000 1.0
C      1  0.4696470000000  0.4568720000000  0.3903350000000 1.0
C      1  0.5206510000000  0.5517790000000  0.5610440000000 1.0
C      1  0.4756750000000  0.6027300000000  0.4532730000000 1.0
C      1  0.4980580000000  0.4151450000000  0.4866230000000 1.0
C      1  0.5734910000000  0.5365880000000  0.5806640000000 1.0
C      1  0.5352280000000  0.3922280000000  0.5272220000000 1.0
C      1  0.4489520000000  0.5141740000000  0.4787240000000 1.0
C      1  0.5002320000000  0.5780830000000  0.5610780000000 1.0
C      1  0.5112930000000  0.5891450000000  0.5245090000000 1.0
C      1  0.5319790000000  0.5899900000000  0.5586720000000 1.0
C      1  0.5756660000000  0.4081330000000  0.4803810000000 1.0
C      1  0.5062460000000  0.3859540000000  0.5240530000000 1.0
C      1  0.5274220000000  0.4693470000000  0.3879890000000 1.0
C      1  0.4768840000000  0.4776430000000  0.5388120000000 1.0
C      1  0.5872640000000  0.4876100000000  0.5647570000000 1.0
C      1  0.4858130000000  0.5421020000000  0.5794660000000 1.0
C      1  0.4868240000000  0.4932230000000  0.3917610000000 1.0
C      1  0.4284640000000  0.4932970000000  0.4836730000000 1.0
C      1  0.5005280000000  0.5235600000000  0.5413590000000 1.0
C      1  0.5783630000000  0.5342590000000  0.4588170000000 1.0
C      1  0.4898620000000  0.4712280000000  0.4836400000000 1.0
C      1  0.4619190000000  0.5317010000000  0.4201050000000 1.0
C      1  0.6158690000000  0.4701890000000  0.4549010000000 1.0
C      1  0.5907170000000  0.4911060000000  0.5164810000000 1.0
C      1  0.4343990000000  0.4413620000000  0.5403920000000 1.0
C      1  0.4711010000000  0.4493420000000  0.5268590000000 1.0
C      1  0.5823400000000  0.4860690000000  0.4880390000000 1.0
C      1  0.4849510000000  0.5333890000000  0.4453460000000 1.0
C      1  0.4011650000000  0.5036580000000  0.4666060000000 1.0
C      1  0.5190990000000  0.5474860000000  0.4604530000000 1.0
C      1  0.5045530000000  0.5361050000000  0.5140170000000 1.0
C      1  0.5244330000000  0.4440060000000  0.4254600000000 1.0
C      1  0.5162730000000  0.4131310000000  0.4299390000000 1.0
C      1  0.5057590000000  0.5354840000000  0.4116710000000 1.0
C      1  0.4179300000000  0.6172260000000  0.5256430000000 1.0
C      1  0.5294610000000  0.5191570000000  0.5591010000000 1.0
C      1  0.4821750000000  0.4504650000000  0.5765110000000 1.0
C      1  0.4002840000000  0.4743090000000  0.4824210000000 1.0
C      1  0.4506080000000  0.4790750000000  0.3854990000000 1.0
C      1  0.4130050000000  0.5446700000000  0.5596150000000 1.0
C      1  0.4214060000000  0.4657780000000  0.5867120000000 1.0
C      1  0.4456340000000  0.5307220000000  0.4495610000000 1.0
C      1  0.4946850000000  0.3827860000000  0.4921990000000 1.0
C      1  0.4952870000000  0.5054930000000  0.4188740000000 1.0
C      1  0.4921380000000  0.5085620000000  0.5772600000000 1.0
C      1  0.5315100000000  0.4287670000000  0.5611780000000 1.0
C      1  0.5936430000000  0.5104690000000  0.4483270000000 1.0
C      1  0.5094590000000  0.4284210000000  0.4592330000000 1.0
C      1  0.4874640000000  0.3867730000000  0.4605300000000 1.0
C      1  0.4094120000000  0.4598670000000  0.4369020000000 1.0
C      1  0.5260170000000  0.5656580000000  0.4958600000000 1.0
C      1  0.4615610000000  0.5657640000000  0.4952360000000 1.0
C      1  0.5953480000000  0.5535760000000  0.4813820000000 1.0
C      1  0.5578680000000  0.5595680000000  0.5182830000000 1.0
C      1  0.4794450000000  0.4116500000000  0.5679400000000 1.0
C      1  0.4457180000000  0.4574540000000  0.4534420000000 1.0
C      1  0.4289110000000  0.4486910000000  0.4182660000000 1.0
C      1  0.5490810000000  0.4136450000000  0.4332630000000 1.0
C      1  0.5593070000000  0.5226180000000  0.4810590000000 1.0
C      1  0.5166320000000  0.5368480000000  0.5920520000000 1.0
C      1  0.5939990000000  0.5720120000000  0.5294180000000 1.0
C      1  0.5518190000000  0.4481810000000  0.5719410000000 1.0
C      1  0.5811930000000  0.4580500000000  0.4703560000000 1.0
C      1  0.4182280000000  0.4404360000000  0.4931200000000 1.0
C      1  0.5987130000000  0.4645420000000  0.5294110000000 1.0
C      1  0.5713610000000  0.5637780000000  0.5815720000000 1.0
C      1  0.4479640000000  0.5924460000000  0.4935200000000 1.0
C      1  0.4427560000000  0.5748390000000  0.4537640000000 1.0
C      1  0.5669240000000  0.4404920000000  0.4220690000000 1.0
C      1  0.5785910000000  0.4560890000000  0.5546000000000 1.0
C      1  0.4483630000000  0.4287300000000  0.4524030000000 1.0
C      1  0.4151260000000  0.5332760000000  0.4439740000000 1.0
C      1  0.4699960000000  0.5311570000000  0.5446310000000 1.0
C      1  0.4580040000000  0.5587170000000  0.4091730000000 1.0
C      1  0.4668480000000  0.5810500000000  0.4317650000000 1.0
C      1  0.4197070000000  0.5128010000000  0.5642830000000 1.0
C      1  0.5662390000000  0.5655510000000  0.4858390000000 1.0
C      1  0.4830360000000  0.6133210000000  0.5103910000000 1.0
C      1  0.4786090000000  0.4985520000000  0.4719230000000 1.0
C      1  0.4564640000000  0.6082560000000  0.4719740000000 1.0
C      1  0.4523540000000  0.4788280000000  0.4362520000000 1.0
C      1  0.5569350000000  0.5948960000000  0.4995700000000 1.0
C      1  0.5225420000000  0.4291390000000  0.5034120000000 1.0
C      1  0.5428070000000  0.5999400000000  0.5295600000000 1.0
C      1  0.3965980000000  0.4710820000000  0.5337480000000 1.0
C      1  0.4594510000000  0.5167700000000  0.6152690000000 1.0
C      1  0.5119980000000  0.5179090000000  0.4529040000000 1.0
C      1  0.4436970000000  0.4936230000000  0.5234370000000 1.0
C      1  0.4359310000000  0.4720560000000  0.5399140000000 1.0
C      1  0.4901460000000  0.5660750000000  0.5122950000000 1.0
C      1  0.4327200000000  0.5215250000000  0.5339360000000 1.0
C      1  0.4378820000000  0.4872980000000  0.4129550000000 1.0
C      1  0.5389830000000  0.4606290000000  0.4459080000000 1.0
C      1  0.4875710000000  0.4026000000000  0.4380790000000 1.0
C      1  0.4346040000000  0.5604770000000  0.5659990000000 1.0
C      1  0.4726030000000  0.4747170000000  0.5956330000000 1.0
C      1  0.5280340000000  0.4783210000000  0.5895060000000 1.0
C      1  0.5102190000000  0.4932680000000  0.5543510000000 1.0
C      1  0.5054190000000  0.4115130000000  0.5464640000000 1.0
C      1  0.5655490000000  0.4945620000000  0.5392140000000 1.0
C      1  0.4849070000000  0.5213020000000  0.4933550000000 1.0
C      1  0.4272810000000  0.5622540000000  0.4680560000000 1.0
C      1  0.6072100000000  0.5519680000000  0.5096140000000 1.0
C      1  0.4438970000000  0.5377070000000  0.4991910000000 1.0
C      1  0.5795790000000  0.4910670000000  0.4319520000000 1.0
C      1  0.4093330000000  0.5349540000000  0.4776180000000 1.0
C      1  0.4995010000000  0.4671640000000  0.3859820000000 1.0
C      1  0.5558940000000  0.5220830000000  0.5316240000000 1.0
C      1  0.5485750000000  0.4863700000000  0.4334570000000 1.0
C      1  0.4657660000000  0.4194490000000  0.4304410000000 1.0
C      1  0.5168800000000  0.4676400000000  0.5411040000000 1.0
C      1  0.4689770000000  0.4240510000000  0.4959980000000 1.0
C      1  0.5677190000000  0.4735350000000  0.5888700000000 1.0
C      1  0.5427160000000  0.4488300000000  0.4754140000000 1.0
C      1  0.5366910000000  0.4793490000000  0.5154770000000 1.0
C      1  0.4679540000000  0.5477720000000  0.4689310000000 1.0
C      1  0.5733440000000  0.5319170000000  0.5062650000000 1.0
C      1  0.5894210000000  0.4603200000000  0.4371840000000 1.0
C      1  0.5910300000000  0.5198260000000  0.5568070000000 1.0
C      1  0.4398820000000  0.4637370000000  0.4828700000000 1.0
C      1  0.4973810000000  0.5567750000000  0.4806990000000 1.0
C      1  0.4445070000000  0.4894170000000  0.5851970000000 1.0
C      1  0.6005720000000  0.5217640000000  0.5240070000000 1.0
C      1  0.4042930000000  0.4503790000000  0.4639100000000 1.0
C      1  0.5056050000000  0.4276400000000  0.5827100000000 1.0
C      1  0.5495880000000  0.4910750000000  0.4862710000000 1.0
C      1  0.5480890000000  0.4808930000000  0.5619050000000 1.0
C      1  0.5080460000000  0.4593500000000  0.4584730000000 1.0
C      1  0.4523520000000  0.5811600000000  0.5375210000000 1.0
C      1  0.4118380000000  0.5349810000000  0.5102330000000 1.0
C      1  0.5274100000000  0.5061750000000  0.4279750000000 1.0
C      1  0.4923490000000  0.5613260000000  0.4290970000000 1.0
C      1  0.5174530000000  0.4531530000000  0.5950130000000 1.0
C      1  0.5293590000000  0.5624580000000  0.5298970000000 1.0
C      1  0.5471110000000  0.4962200000000  0.3949000000000 1.0
C      1  0.4680730000000  0.5670090000000  0.5645060000000 1.0
C      1  0.5197290000000  0.4609570000000  0.4963340000000 1.0
C      1  0.4688070000000  0.5118160000000  0.5200930000000 1.0
C      1  0.3864700000000  0.5003560000000  0.5372360000000 1.0
C      1  0.4018980000000  0.4875360000000  0.4364530000000 1.0
C      1  0.5214090000000  0.4893980000000  0.4672710000000 1.0
C      1  0.5169600000000  0.5767860000000  0.4421390000000 1.0
C      1  0.4364360000000  0.5983360000000  0.5184570000000 1.0
C      1  0.4928300000000  0.6133830000000  0.4877620000000 1.0
C      1  0.4673620000000  0.4192000000000  0.5370450000000 1.0
C      1  0.4346050000000  0.5189480000000  0.5946420000000 1.0
C      1  0.5516840000000  0.5815770000000  0.5754260000000 1.0
C      1  0.4809290000000  0.5945990000000  0.5385600000000 1.0
C      1  0.5346240000000  0.5233680000000  0.5049700000000 1.0
C      1  0.4965490000000  0.4443860000000  0.5476360000000 1.0
C      1  0.4672590000000  0.4942050000000  0.5611200000000 1.0
C      1  0.5460570000000  0.5259690000000  0.4115060000000 1.0
C      1  0.5614980000000  0.5460680000000  0.4344230000000 1.0
C      1  0.5475670000000  0.5229910000000  0.5865170000000 1.0
C      1  0.5766780000000  0.5473450000000  0.5427450000000 1.0
C      1  0.4507590000000  0.4285770000000  0.5649810000000 1.0
C      1  0.5695760000000  0.4371140000000  0.4932560000000 1.0
C      1  0.5764120000000  0.5946560000000  0.5260220000000 1.0
C      1  0.5481610000000  0.5604040000000  0.4606830000000 1.0
C      1  0.5311770000000  0.5548360000000  0.4222990000000 1.0
C      1  0.4567480000000  0.5252440000000  0.5724790000000 1.0
C      1  0.4499210000000  0.4501020000000  0.5876370000000 1.0
C      1  0.3940150000000  0.5284570000000  0.5372960000000 1.0
C      1  0.5360660000000  0.5890960000000  0.4748280000000 1.0
C      1  0.4842410000000  0.5015090000000  0.6084920000000 1.0
C      1  0.4668740000000  0.4559310000000  0.4964140000000 1.0
C      1  0.4136730000000  0.4829560000000  0.5607440000000 1.0
END
