TITL C-2778435-5768-528 0.103737267723713 125000 -145.095397640671 0 0 27 (C1) n - 1
REM
REM in /home/nfs/bkarasulu/CARBON/AIRSS/Generating-Clusters/REBO/Only-C1/SD-CG/HFTN-CG
REM
REM
REM
REM
REM
REM ./C.cell (11c1c37f851c82e70ff6c80c92926a4b)
REM
REM compiler GCC version 9.2.1 20190827 (Red Hat 9.2.1-1)
REM options -cpp -mtune=generic -march=x86-64 -g -O0 -fpre-include=/usr/include/finclude/math-vector-fortran.h
REM seed -223382574 135754891 1741717921 -1943500216 -691776392 -1763736694 -434509146 1119887640 154665065 1709585529 873694982 907233807 374088179 248097919 376866926 -714958099 -1836982356 -948579716 -1835775385 -1046816771 -1491030395 1004305049 -159277158 -1813932384 756685875 756641372 1516247536 1786887352 888043969 -258917308 -392887601 1204431380 -847231926
REM
CELL 1.54180   50.00000   50.00000   50.00000   90.00000   90.00000   90.00000
LATT -1
SFAC C  
C      1  0.4698380000000  0.4708410000000  0.4807640000000 1.0
C      1  0.5072200000000  0.4371460000000  0.4878260000000 1.0
C      1  0.4613540000000  0.5386300000000  0.5393480000000 1.0
C      1  0.5106870000000  0.4567330000000  0.5121950000000 1.0
C      1  0.4865190000000  0.4767550000000  0.5066760000000 1.0
C      1  0.5366090000000  0.4719220000000  0.5103610000000 1.0
C      1  0.5518790000000  0.5057190000000  0.4960360000000 1.0
C      1  0.5430930000000  0.4983030000000  0.5256830000000 1.0
C      1  0.5470170000000  0.5296420000000  0.4827790000000 1.0
C      1  0.4702940000000  0.4945470000000  0.5523190000000 1.0
C      1  0.4918800000000  0.4491690000000  0.5608410000000 1.0
C      1  0.4737280000000  0.5257860000000  0.5161840000000 1.0
C      1  0.5509060000000  0.4766620000000  0.4832050000000 1.0
C      1  0.4839640000000  0.5391550000000  0.4940850000000 1.0
C      1  0.4993330000000  0.5531580000000  0.4757920000000 1.0
C      1  0.4744700000000  0.5924450000000  0.4462060000000 1.0
C      1  0.4894530000000  0.4457750000000  0.4693140000000 1.0
C      1  0.5248140000000  0.5720070000000  0.4519050000000 1.0
C      1  0.4762810000000  0.4708310000000  0.5658520000000 1.0
C      1  0.4826680000000  0.4687770000000  0.4491750000000 1.0
C      1  0.4941250000000  0.5769710000000  0.4552300000000 1.0
C      1  0.5560250000000  0.4644000000000  0.4601510000000 1.0
C      1  0.5307710000000  0.5486830000000  0.4715640000000 1.0
C      1  0.5068780000000  0.4425890000000  0.5393680000000 1.0
C      1  0.4426650000000  0.4756080000000  0.4826460000000 1.0
C      1  0.4779860000000  0.4975590000000  0.5238080000000 1.0
C      1  0.4595440000000  0.5201890000000  0.5606870000000 1.0
END
