TITL C-2778429-3646-690 -0.00335581660870633 125000 -971.389787180719 0 0 166 (C1) n - 1
REM
REM in /home/nfs/bkarasulu/CARBON/AIRSS/Generating-Clusters/REBO/Only-C1/SD-CG/HFTN-CG
REM
REM
REM
REM
REM
REM ./C.cell (11c1c37f851c82e70ff6c80c92926a4b)
REM
REM compiler GCC version 9.2.1 20190827 (Red Hat 9.2.1-1)
REM options -cpp -mtune=generic -march=x86-64 -g -O0 -fpre-include=/usr/include/finclude/math-vector-fortran.h
REM seed 1621423264 -1534253514 1051570823 -906997692 2110447618 -618880360 1974040320 2038401886 -1031370505 -1119283325 2098056159 105417275 -994958685 -268326304 -2126182657 303122788 596496249 -741982141 -1081825772 -1124865114 -845571924 -1505702339 606162648 -1360438908 910332390 -1785529075 1582326878 -1245766391 1818565969 818603699 1210932171 -595529954 301210749
REM
CELL 1.54180   50.00000   50.00000   50.00000   90.00000   90.00000   90.00000
LATT -1
SFAC C  
C      1  0.5237690000000  0.4758940000000  0.4920470000000 1.0
C      1  0.5972950000000  0.4729330000000  0.5289940000000 1.0
C      1  0.5339810000000  0.5240500000000  0.5936610000000 1.0
C      1  0.4425290000000  0.4074180000000  0.5318060000000 1.0
C      1  0.4950040000000  0.4274550000000  0.5629100000000 1.0
C      1  0.4653930000000  0.4104680000000  0.4575010000000 1.0
C      1  0.5206300000000  0.4048370000000  0.4900620000000 1.0
C      1  0.4237560000000  0.5626620000000  0.4954510000000 1.0
C      1  0.5686750000000  0.4526150000000  0.4403670000000 1.0
C      1  0.4835360000000  0.5185670000000  0.4199790000000 1.0
C      1  0.4726570000000  0.5222980000000  0.5997940000000 1.0
C      1  0.5517200000000  0.4124240000000  0.4783480000000 1.0
C      1  0.5222410000000  0.5422790000000  0.4064970000000 1.0
C      1  0.4344070000000  0.5326430000000  0.4256600000000 1.0
C      1  0.4448110000000  0.4367690000000  0.5587250000000 1.0
C      1  0.5227990000000  0.4966620000000  0.5900380000000 1.0
C      1  0.4630780000000  0.5446330000000  0.5683370000000 1.0
C      1  0.5554610000000  0.5138980000000  0.5515940000000 1.0
C      1  0.5171390000000  0.5456400000000  0.5866450000000 1.0
C      1  0.4538430000000  0.4966160000000  0.4641540000000 1.0
C      1  0.5673350000000  0.5028820000000  0.5230540000000 1.0
C      1  0.5046360000000  0.4697890000000  0.4392400000000 1.0
C      1  0.4431880000000  0.4016220000000  0.4797810000000 1.0
C      1  0.4599540000000  0.4912230000000  0.5943770000000 1.0
C      1  0.5176540000000  0.4168210000000  0.5464510000000 1.0
C      1  0.5099600000000  0.5445260000000  0.5201820000000 1.0
C      1  0.5254980000000  0.4557180000000  0.5435830000000 1.0
C      1  0.4328350000000  0.4371880000000  0.5267150000000 1.0
C      1  0.6116060000000  0.5031730000000  0.5352220000000 1.0
C      1  0.5553880000000  0.4725770000000  0.4280010000000 1.0
C      1  0.4828450000000  0.5183510000000  0.5679000000000 1.0
C      1  0.4557180000000  0.4603420000000  0.5805180000000 1.0
C      1  0.5457420000000  0.5447710000000  0.4739560000000 1.0
C      1  0.4853450000000  0.5831940000000  0.5560400000000 1.0
C      1  0.4832950000000  0.5455130000000  0.4148230000000 1.0
C      1  0.4510480000000  0.5096170000000  0.5018620000000 1.0
C      1  0.4500320000000  0.4804750000000  0.5289620000000 1.0
C      1  0.4758270000000  0.4771920000000  0.4500320000000 1.0
C      1  0.5046520000000  0.4997790000000  0.5207170000000 1.0
C      1  0.4581880000000  0.5289830000000  0.4749610000000 1.0
C      1  0.4897130000000  0.4380020000000  0.4993220000000 1.0
C      1  0.5764550000000  0.5013590000000  0.5831290000000 1.0
C      1  0.5916720000000  0.4607170000000  0.4543290000000 1.0
C      1  0.4882460000000  0.5342450000000  0.5392120000000 1.0
C      1  0.4160160000000  0.4523820000000  0.4839960000000 1.0
C      1  0.5618750000000  0.5265350000000  0.5889540000000 1.0
C      1  0.5069640000000  0.5228030000000  0.4956140000000 1.0
C      1  0.3945250000000  0.4621900000000  0.4998090000000 1.0
C      1  0.5115170000000  0.6018220000000  0.5521960000000 1.0
C      1  0.4697340000000  0.4185980000000  0.5485020000000 1.0
C      1  0.6045340000000  0.5473470000000  0.5200010000000 1.0
C      1  0.5087040000000  0.4816370000000  0.6127080000000 1.0
C      1  0.5379450000000  0.5296980000000  0.5196470000000 1.0
C      1  0.4339410000000  0.5090630000000  0.5812440000000 1.0
C      1  0.4403720000000  0.5326740000000  0.5326750000000 1.0
C      1  0.5783430000000  0.5691580000000  0.5189490000000 1.0
C      1  0.5574570000000  0.5476190000000  0.5025290000000 1.0
C      1  0.4756690000000  0.5683650000000  0.5827890000000 1.0
C      1  0.4788550000000  0.4121100000000  0.5167670000000 1.0
C      1  0.5953530000000  0.4900510000000  0.4514340000000 1.0
C      1  0.3975920000000  0.4920970000000  0.5162770000000 1.0
C      1  0.5151920000000  0.6121140000000  0.4867040000000 1.0
C      1  0.4521760000000  0.3963440000000  0.5050710000000 1.0
C      1  0.4039870000000  0.5431120000000  0.4749570000000 1.0
C      1  0.5607590000000  0.4959070000000  0.4050870000000 1.0
C      1  0.4148060000000  0.4914320000000  0.5688750000000 1.0
C      1  0.4257740000000  0.4893080000000  0.4721690000000 1.0
C      1  0.5182750000000  0.5216160000000  0.3891230000000 1.0
C      1  0.5609740000000  0.4827910000000  0.4800590000000 1.0
C      1  0.5349560000000  0.5399970000000  0.5513120000000 1.0
C      1  0.5408250000000  0.4460560000000  0.4019410000000 1.0
C      1  0.4864020000000  0.4801200000000  0.3907430000000 1.0
C      1  0.4504660000000  0.4726180000000  0.4159260000000 1.0
C      1  0.4989260000000  0.4940100000000  0.5689960000000 1.0
C      1  0.5799300000000  0.5699020000000  0.5510340000000 1.0
C      1  0.4460050000000  0.5825570000000  0.4828480000000 1.0
C      1  0.5918310000000  0.4444380000000  0.4821070000000 1.0
C      1  0.5096190000000  0.4064670000000  0.5200280000000 1.0
C      1  0.5300100000000  0.5980070000000  0.4657330000000 1.0
C      1  0.4018530000000  0.5020380000000  0.5457480000000 1.0
C      1  0.5786040000000  0.5416420000000  0.4381810000000 1.0
C      1  0.5478140000000  0.5693920000000  0.5573250000000 1.0
C      1  0.4644910000000  0.5795250000000  0.4542730000000 1.0
C      1  0.4820240000000  0.4533520000000  0.3935990000000 1.0
C      1  0.4351730000000  0.5091100000000  0.4106340000000 1.0
C      1  0.4591300000000  0.5956070000000  0.5047180000000 1.0
C      1  0.4854120000000  0.4704310000000  0.6040400000000 1.0
C      1  0.5495770000000  0.5093470000000  0.4949070000000 1.0
C      1  0.5252210000000  0.4852750000000  0.4244160000000 1.0
C      1  0.5014970000000  0.4944600000000  0.4812990000000 1.0
C      1  0.5189680000000  0.5737950000000  0.5151990000000 1.0
C      1  0.4994740000000  0.4733330000000  0.5502390000000 1.0
C      1  0.5843970000000  0.4720640000000  0.4918110000000 1.0
C      1  0.4835890000000  0.5735320000000  0.4266360000000 1.0
C      1  0.4233290000000  0.4647550000000  0.5404870000000 1.0
C      1  0.4871760000000  0.4472220000000  0.5823060000000 1.0
C      1  0.4632120000000  0.5807120000000  0.5341410000000 1.0
C      1  0.4848310000000  0.5743920000000  0.4793450000000 1.0
C      1  0.4968980000000  0.4319210000000  0.4679880000000 1.0
C      1  0.4931330000000  0.5062190000000  0.4502310000000 1.0
C      1  0.5310770000000  0.4946730000000  0.5374420000000 1.0
C      1  0.4063930000000  0.4834040000000  0.4448090000000 1.0
C      1  0.4087310000000  0.5291730000000  0.5437620000000 1.0
C      1  0.4649230000000  0.5505240000000  0.5248040000000 1.0
C      1  0.5304760000000  0.5354520000000  0.4382120000000 1.0
C      1  0.4743500000000  0.5490300000000  0.6064100000000 1.0
C      1  0.4175060000000  0.5584180000000  0.5521010000000 1.0
C      1  0.4004630000000  0.5105710000000  0.4644270000000 1.0
C      1  0.5956540000000  0.5064060000000  0.4749820000000 1.0
C      1  0.5306160000000  0.4368220000000  0.4886120000000 1.0
C      1  0.4695020000000  0.5523750000000  0.4946580000000 1.0
C      1  0.5505990000000  0.5857630000000  0.5091460000000 1.0
C      1  0.5340940000000  0.5889240000000  0.5391560000000 1.0
C      1  0.4824870000000  0.4777700000000  0.5265390000000 1.0
C      1  0.5696950000000  0.5472190000000  0.5717350000000 1.0
C      1  0.5416830000000  0.4715760000000  0.3907840000000 1.0
C      1  0.4653560000000  0.4992130000000  0.4043200000000 1.0
C      1  0.5005620000000  0.5918090000000  0.4994340000000 1.0
C      1  0.6238520000000  0.5316140000000  0.5312220000000 1.0
C      1  0.4956180000000  0.3989950000000  0.4682950000000 1.0
C      1  0.4244920000000  0.4614430000000  0.5716950000000 1.0
C      1  0.5809810000000  0.5299130000000  0.5129990000000 1.0
C      1  0.5725280000000  0.5234180000000  0.4748810000000 1.0
C      1  0.5761790000000  0.4230690000000  0.4947040000000 1.0
C      1  0.5688940000000  0.4281250000000  0.5215580000000 1.0
C      1  0.6051400000000  0.4936610000000  0.5032100000000 1.0
C      1  0.5091880000000  0.5799930000000  0.4562630000000 1.0
C      1  0.4393420000000  0.4469340000000  0.4989100000000 1.0
C      1  0.4355800000000  0.5374320000000  0.5719660000000 1.0
C      1  0.4659750000000  0.4573030000000  0.4960060000000 1.0
C      1  0.4635450000000  0.5115600000000  0.5336130000000 1.0
C      1  0.4855980000000  0.4341220000000  0.4127230000000 1.0
C      1  0.4244500000000  0.5317880000000  0.5066240000000 1.0
C      1  0.4151030000000  0.4912880000000  0.4161320000000 1.0
C      1  0.5793520000000  0.5084200000000  0.4308800000000 1.0
C      1  0.5454020000000  0.5106640000000  0.4324730000000 1.0
C      1  0.5148890000000  0.5641150000000  0.4304670000000 1.0
C      1  0.5633570000000  0.4760890000000  0.5813990000000 1.0
C      1  0.4724650000000  0.4857930000000  0.4888260000000 1.0
C      1  0.4269800000000  0.4850680000000  0.5041370000000 1.0
C      1  0.4696360000000  0.4438080000000  0.4517800000000 1.0
C      1  0.3981540000000  0.5171090000000  0.4969790000000 1.0
C      1  0.4342640000000  0.4250700000000  0.4592490000000 1.0
C      1  0.4188500000000  0.4547940000000  0.4532360000000 1.0
C      1  0.4299330000000  0.5387030000000  0.4584890000000 1.0
C      1  0.5151030000000  0.5369250000000  0.4680040000000 1.0
C      1  0.3962170000000  0.4540010000000  0.5277440000000 1.0
C      1  0.4454600000000  0.4553100000000  0.4361520000000 1.0
C      1  0.5355260000000  0.4789390000000  0.5664580000000 1.0
C      1  0.5707700000000  0.4587410000000  0.5317810000000 1.0
C      1  0.4551480000000  0.5515890000000  0.4423060000000 1.0
C      1  0.5060020000000  0.4391980000000  0.4360360000000 1.0
C      1  0.4838610000000  0.5379380000000  0.4546040000000 1.0
C      1  0.5341900000000  0.4332140000000  0.4255280000000 1.0
C      1  0.5887900000000  0.5073870000000  0.5561780000000 1.0
C      1  0.5495470000000  0.4315350000000  0.4534300000000 1.0
C      1  0.5466330000000  0.4306000000000  0.5466590000000 1.0
C      1  0.5148640000000  0.4909560000000  0.3940880000000 1.0
C      1  0.5412010000000  0.4610700000000  0.4681530000000 1.0
C      1  0.5152410000000  0.4522400000000  0.5135320000000 1.0
C      1  0.5538110000000  0.5838440000000  0.4753390000000 1.0
C      1  0.5089620000000  0.5593660000000  0.5622450000000 1.0
C      1  0.4309190000000  0.5712070000000  0.5279280000000 1.0
C      1  0.5653060000000  0.4525450000000  0.5635290000000 1.0
C      1  0.5656650000000  0.5600530000000  0.4541390000000 1.0
C      1  0.5472010000000  0.4760390000000  0.5168500000000 1.0
END
