TITL C-2778424-3986-1309 0.0476761672384785 125000 -143.345102403453 0 0 27 (C1) n - 1
REM
REM in /home/nfs/bkarasulu/CARBON/AIRSS/Generating-Clusters/REBO/Only-C1/SD-CG/HFTN-CG
REM
REM
REM
REM
REM
REM ./C.cell (11c1c37f851c82e70ff6c80c92926a4b)
REM
REM compiler GCC version 9.2.1 20190827 (Red Hat 9.2.1-1)
REM options -cpp -mtune=generic -march=x86-64 -g -O0 -fpre-include=/usr/include/finclude/math-vector-fortran.h
REM seed 2135417183 101683558 260793401 1507671240 468651808 293644271 429623120 -936308078 1679780101 -26207644 -566869422 -1329736636 -1112742055 811454736 -1105035662 -1422876824 -1752966202 795077445 -403560314 -897067490 -1040821502 1019728701 1962765993 303279160 475567946 1229214048 -2099804269 29351267 1851099526 -890194810 494176074 195826429 -1739658128
REM
CELL 1.54180   50.00000   50.00000   50.00000   90.00000   90.00000   90.00000
LATT -1
SFAC C  
C      1  0.4607580000000  0.4241950000000  0.5145780000000 1.0
C      1  0.4884570000000  0.5449180000000  0.4836110000000 1.0
C      1  0.5596650000000  0.5163370000000  0.5005120000000 1.0
C      1  0.4952100000000  0.6167790000000  0.4875960000000 1.0
C      1  0.4489210000000  0.4505630000000  0.5167340000000 1.0
C      1  0.5577220000000  0.5053010000000  0.4763530000000 1.0
C      1  0.5431890000000  0.5482380000000  0.5332070000000 1.0
C      1  0.4632810000000  0.3930900000000  0.4783130000000 1.0
C      1  0.4617840000000  0.4981800000000  0.4879900000000 1.0
C      1  0.5465290000000  0.5711370000000  0.5821740000000 1.0
C      1  0.4947200000000  0.4404690000000  0.4778480000000 1.0
C      1  0.5234630000000  0.5561690000000  0.5150590000000 1.0
C      1  0.4598400000000  0.4701530000000  0.4997750000000 1.0
C      1  0.4833150000000  0.4662550000000  0.4784100000000 1.0
C      1  0.4551550000000  0.5333800000000  0.4489420000000 1.0
C      1  0.4277450000000  0.4552590000000  0.5331360000000 1.0
C      1  0.4476140000000  0.4022780000000  0.5001300000000 1.0
C      1  0.5617050000000  0.5279250000000  0.5258790000000 1.0
C      1  0.4889660000000  0.4237990000000  0.5048950000000 1.0
C      1  0.5558110000000  0.4944410000000  0.4525790000000 1.0
C      1  0.5810130000000  0.5200570000000  0.5434400000000 1.0
C      1  0.5449130000000  0.5600570000000  0.5584790000000 1.0
C      1  0.4718560000000  0.5240680000000  0.4691610000000 1.0
C      1  0.4993330000000  0.5912930000000  0.4921010000000 1.0
C      1  0.4889290000000  0.4075480000000  0.4764390000000 1.0
C      1  0.4863780000000  0.4940110000000  0.4657530000000 1.0
C      1  0.5037310000000  0.5641010000000  0.4969060000000 1.0
END
