TITL C-2778432-5617-1377 0.00254082499199843 125000 -645.553836591472 0 0 112 (C1) n - 1
REM
REM in /home/nfs/bkarasulu/CARBON/AIRSS/Generating-Clusters/REBO/Only-C1/SD-CG/HFTN-CG
REM
REM
REM
REM
REM
REM ./C.cell (11c1c37f851c82e70ff6c80c92926a4b)
REM
REM compiler GCC version 9.2.1 20190827 (Red Hat 9.2.1-1)
REM options -cpp -mtune=generic -march=x86-64 -g -O0 -fpre-include=/usr/include/finclude/math-vector-fortran.h
REM seed 1268569130 1722871005 -1875483840 -701049670 -1716510697 1707079325 2059103230 -113800283 -734337727 357483471 1768301192 348783724 -1387592734 1540337275 1223437490 -993759557 1384358073 499715041 -2022454619 1823851453 -180460725 -168735863 -497314271 1789740647 1861637547 1912748772 -1285453502 -1412885905 -1243094738 -1263132563 -871163440 -1079502694 -2063339886
REM
CELL 1.54180   50.00000   50.00000   50.00000   90.00000   90.00000   90.00000
LATT -1
SFAC C  
C      1  0.5187380000000  0.4232940000000  0.5308330000000 1.0
C      1  0.5576210000000  0.5041260000000  0.5703510000000 1.0
C      1  0.5011080000000  0.4634010000000  0.3928590000000 1.0
C      1  0.4227000000000  0.4493020000000  0.5158440000000 1.0
C      1  0.4824470000000  0.4095900000000  0.5751590000000 1.0
C      1  0.5252770000000  0.4115230000000  0.5042550000000 1.0
C      1  0.5448390000000  0.4267900000000  0.4853210000000 1.0
C      1  0.4308980000000  0.4843460000000  0.5597110000000 1.0
C      1  0.5536780000000  0.4979000000000  0.5140080000000 1.0
C      1  0.5406070000000  0.5757760000000  0.4735110000000 1.0
C      1  0.4466980000000  0.4919400000000  0.5089230000000 1.0
C      1  0.4189910000000  0.5340090000000  0.4974800000000 1.0
C      1  0.4992510000000  0.5938890000000  0.5003390000000 1.0
C      1  0.5368300000000  0.4613250000000  0.5609700000000 1.0
C      1  0.5127270000000  0.5498570000000  0.5796400000000 1.0
C      1  0.4937490000000  0.5399930000000  0.5559130000000 1.0
C      1  0.4365580000000  0.4442680000000  0.4905710000000 1.0
C      1  0.4673620000000  0.4568910000000  0.4870300000000 1.0
C      1  0.5098090000000  0.5097270000000  0.5538980000000 1.0
C      1  0.4707930000000  0.5042080000000  0.4711390000000 1.0
C      1  0.4302150000000  0.5593030000000  0.5037680000000 1.0
C      1  0.4432610000000  0.5030700000000  0.5410130000000 1.0
C      1  0.4974680000000  0.4198160000000  0.4689270000000 1.0
C      1  0.5672530000000  0.5224250000000  0.4457380000000 1.0
C      1  0.5035090000000  0.5072380000000  0.4754270000000 1.0
C      1  0.5022360000000  0.5478630000000  0.4356270000000 1.0
C      1  0.4875800000000  0.4360260000000  0.5302760000000 1.0
C      1  0.5153760000000  0.6025380000000  0.5225670000000 1.0
C      1  0.4755860000000  0.5794190000000  0.5089480000000 1.0
C      1  0.5044940000000  0.5063820000000  0.4128990000000 1.0
C      1  0.4634640000000  0.4240150000000  0.4853350000000 1.0
C      1  0.4449310000000  0.5301140000000  0.5576100000000 1.0
C      1  0.4219270000000  0.4549580000000  0.5481670000000 1.0
C      1  0.5312340000000  0.5889580000000  0.5421730000000 1.0
C      1  0.5341320000000  0.4864080000000  0.4903150000000 1.0
C      1  0.4995450000000  0.5241330000000  0.5182450000000 1.0
C      1  0.4359520000000  0.4516000000000  0.4391990000000 1.0
C      1  0.5648400000000  0.5472290000000  0.5386130000000 1.0
C      1  0.5123760000000  0.4674530000000  0.4165580000000 1.0
C      1  0.5001140000000  0.4724010000000  0.5387700000000 1.0
C      1  0.5820850000000  0.4890810000000  0.5071960000000 1.0
C      1  0.5313130000000  0.5047600000000  0.4286690000000 1.0
C      1  0.4392180000000  0.4918660000000  0.4772470000000 1.0
C      1  0.5433620000000  0.4747440000000  0.4216390000000 1.0
C      1  0.4940180000000  0.5605780000000  0.4630560000000 1.0
C      1  0.5438650000000  0.4481630000000  0.4428630000000 1.0
C      1  0.5174180000000  0.5367110000000  0.4707770000000 1.0
C      1  0.4641760000000  0.5604720000000  0.4667190000000 1.0
C      1  0.4508210000000  0.5420850000000  0.4516550000000 1.0
C      1  0.5246720000000  0.4618780000000  0.5229030000000 1.0
C      1  0.4306420000000  0.5122980000000  0.4440180000000 1.0
C      1  0.5643450000000  0.4466850000000  0.4993330000000 1.0
C      1  0.5664890000000  0.5350280000000  0.5639880000000 1.0
C      1  0.5346480000000  0.4897550000000  0.5621010000000 1.0
C      1  0.4917580000000  0.4174000000000  0.5020160000000 1.0
C      1  0.5027220000000  0.4878840000000  0.5021770000000 1.0
C      1  0.5175590000000  0.4408680000000  0.5561130000000 1.0
C      1  0.5259980000000  0.5406680000000  0.5323920000000 1.0
C      1  0.5428890000000  0.4189510000000  0.4559200000000 1.0
C      1  0.4849720000000  0.4901650000000  0.5605190000000 1.0
C      1  0.4254740000000  0.5677660000000  0.5305850000000 1.0
C      1  0.5343420000000  0.5019100000000  0.4613490000000 1.0
C      1  0.4900810000000  0.4814160000000  0.5905070000000 1.0
C      1  0.4634260000000  0.5404510000000  0.5154910000000 1.0
C      1  0.4841190000000  0.4635710000000  0.5104660000000 1.0
C      1  0.4601830000000  0.5165890000000  0.4323770000000 1.0
C      1  0.4151510000000  0.5141540000000  0.4729520000000 1.0
C      1  0.3884220000000  0.5053690000000  0.4709600000000 1.0
C      1  0.5903030000000  0.5246800000000  0.4782110000000 1.0
C      1  0.5754790000000  0.4695120000000  0.4821810000000 1.0
C      1  0.5275210000000  0.5611200000000  0.5553210000000 1.0
C      1  0.5362110000000  0.5732880000000  0.5044380000000 1.0
C      1  0.5304320000000  0.5350880000000  0.4394160000000 1.0
C      1  0.4317250000000  0.5538510000000  0.5532010000000 1.0
C      1  0.5512400000000  0.5259840000000  0.5925250000000 1.0
C      1  0.4125610000000  0.4789230000000  0.5249580000000 1.0
C      1  0.5232320000000  0.5015680000000  0.5253750000000 1.0
C      1  0.4164610000000  0.4857160000000  0.4449810000000 1.0
C      1  0.4872990000000  0.4351400000000  0.5644080000000 1.0
C      1  0.4978240000000  0.4659180000000  0.4447910000000 1.0
C      1  0.4160860000000  0.5060460000000  0.5119810000000 1.0
C      1  0.5182050000000  0.4062860000000  0.4526770000000 1.0
C      1  0.5150660000000  0.4470090000000  0.4612550000000 1.0
C      1  0.4576340000000  0.5280780000000  0.4891340000000 1.0
C      1  0.5223070000000  0.5284950000000  0.5967820000000 1.0
C      1  0.5728120000000  0.5470330000000  0.4766570000000 1.0
C      1  0.4899860000000  0.4594020000000  0.3694680000000 1.0
C      1  0.5645760000000  0.4529020000000  0.5523880000000 1.0
C      1  0.5084230000000  0.5560550000000  0.5092150000000 1.0
C      1  0.5064040000000  0.5036160000000  0.6014820000000 1.0
C      1  0.5507440000000  0.5288930000000  0.5162920000000 1.0
C      1  0.5536550000000  0.4544460000000  0.5246890000000 1.0
C      1  0.4543600000000  0.5706650000000  0.4911520000000 1.0
C      1  0.4722030000000  0.5194110000000  0.5628410000000 1.0
C      1  0.5263940000000  0.4552300000000  0.4903260000000 1.0
C      1  0.5536650000000  0.5534050000000  0.4513790000000 1.0
C      1  0.5552010000000  0.5730770000000  0.5290610000000 1.0
C      1  0.4869120000000  0.5296200000000  0.4200170000000 1.0
C      1  0.4722180000000  0.4737510000000  0.4626110000000 1.0
C      1  0.4820800000000  0.4909430000000  0.4279570000000 1.0
C      1  0.4839400000000  0.5578030000000  0.5328010000000 1.0
C      1  0.5998960000000  0.5090550000000  0.5010000000000 1.0
C      1  0.4708220000000  0.5096130000000  0.5219980000000 1.0
C      1  0.4729820000000  0.4571420000000  0.5792470000000 1.0
C      1  0.5666810000000  0.5008620000000  0.4722650000000 1.0
C      1  0.5692340000000  0.4935430000000  0.4332960000000 1.0
C      1  0.5455740000000  0.5388020000000  0.4876500000000 1.0
C      1  0.5688470000000  0.4673650000000  0.4509970000000 1.0
C      1  0.5105920000000  0.5832830000000  0.4756670000000 1.0
C      1  0.4256250000000  0.4622120000000  0.4675850000000 1.0
C      1  0.4595690000000  0.4605570000000  0.4351580000000 1.0
C      1  0.4466760000000  0.4598410000000  0.5712430000000 1.0
END
