TITL C-2778425-5191-36 -0.00597541549758589 125000 -1075.93088017912 0 0 182 (C1) n - 1
REM
REM in /home/nfs/bkarasulu/CARBON/AIRSS/Generating-Clusters/REBO/Only-C1/SD-CG/HFTN-CG
REM
REM
REM
REM
REM
REM ./C.cell (11c1c37f851c82e70ff6c80c92926a4b)
REM
REM compiler GCC version 9.2.1 20190827 (Red Hat 9.2.1-1)
REM options -cpp -mtune=generic -march=x86-64 -g -O0 -fpre-include=/usr/include/finclude/math-vector-fortran.h
REM seed -797822865 -187754541 -1954085358 1429844074 375132325 -1133880270 -193991436 -323649371 -1278251598 1525434665 643077053 -2093885977 -389404859 69869659 -1770945667 856627360 1913080725 1733387691 -1492870419 -201621795 -1855231476 1840742401 383952950 -717083066 379178444 1146399316 1887679486 -653847852 890669252 -358087416 -1920980981 255848921 -1115688698
REM
CELL 1.54180   50.00000   50.00000   50.00000   90.00000   90.00000   90.00000
LATT -1
SFAC C  
C      1  0.4537800000000  0.5643160000000  0.5622480000000 1.0
C      1  0.5431300000000  0.5858130000000  0.4878080000000 1.0
C      1  0.6206700000000  0.5124040000000  0.5479260000000 1.0
C      1  0.5760040000000  0.4482180000000  0.5624050000000 1.0
C      1  0.5693230000000  0.4332020000000  0.5224720000000 1.0
C      1  0.3995260000000  0.5594350000000  0.5004340000000 1.0
C      1  0.4728750000000  0.4996260000000  0.5959810000000 1.0
C      1  0.4557840000000  0.5924060000000  0.5439350000000 1.0
C      1  0.4604310000000  0.4665050000000  0.5279270000000 1.0
C      1  0.3971090000000  0.5156460000000  0.5406470000000 1.0
C      1  0.4509740000000  0.5087730000000  0.5530970000000 1.0
C      1  0.5443110000000  0.4558420000000  0.4716620000000 1.0
C      1  0.5785430000000  0.5339760000000  0.5201280000000 1.0
C      1  0.5203510000000  0.6389110000000  0.5036010000000 1.0
C      1  0.4111700000000  0.5607500000000  0.5300320000000 1.0
C      1  0.5405110000000  0.5278720000000  0.4784860000000 1.0
C      1  0.4813230000000  0.5053570000000  0.5564490000000 1.0
C      1  0.4133350000000  0.4576490000000  0.4339330000000 1.0
C      1  0.5203990000000  0.4962040000000  0.5713620000000 1.0
C      1  0.5703130000000  0.5375460000000  0.4365200000000 1.0
C      1  0.4823040000000  0.4198340000000  0.4643090000000 1.0
C      1  0.4885920000000  0.5392040000000  0.5764570000000 1.0
C      1  0.4997050000000  0.5307590000000  0.5465450000000 1.0
C      1  0.5700280000000  0.4550830000000  0.4651090000000 1.0
C      1  0.5597340000000  0.4182040000000  0.4977450000000 1.0
C      1  0.4399910000000  0.4606180000000  0.5781060000000 1.0
C      1  0.4723490000000  0.5395560000000  0.4837900000000 1.0
C      1  0.4994610000000  0.4416080000000  0.6025130000000 1.0
C      1  0.3998940000000  0.4667930000000  0.4697760000000 1.0
C      1  0.4161470000000  0.4787370000000  0.5804780000000 1.0
C      1  0.4515550000000  0.4552400000000  0.4454730000000 1.0
C      1  0.5169300000000  0.4541160000000  0.4872460000000 1.0
C      1  0.5181690000000  0.5041370000000  0.4686300000000 1.0
C      1  0.5511880000000  0.4973500000000  0.5962770000000 1.0
C      1  0.5545800000000  0.4574060000000  0.4119590000000 1.0
C      1  0.4647710000000  0.5262970000000  0.5861240000000 1.0
C      1  0.4818220000000  0.5587950000000  0.4495280000000 1.0
C      1  0.3981490000000  0.4758720000000  0.5006450000000 1.0
C      1  0.4219240000000  0.4515090000000  0.4990160000000 1.0
C      1  0.4267130000000  0.4782590000000  0.4135380000000 1.0
C      1  0.4763000000000  0.5121030000000  0.5126010000000 1.0
C      1  0.5281930000000  0.3946990000000  0.5044250000000 1.0
C      1  0.4079420000000  0.5493820000000  0.4689700000000 1.0
C      1  0.4250890000000  0.5338680000000  0.5013820000000 1.0
C      1  0.5686740000000  0.5286640000000  0.4640430000000 1.0
C      1  0.4115570000000  0.4367150000000  0.4611190000000 1.0
C      1  0.4927060000000  0.4490010000000  0.4639240000000 1.0
C      1  0.4900230000000  0.4582900000000  0.5161520000000 1.0
C      1  0.5763820000000  0.4567810000000  0.4320050000000 1.0
C      1  0.4639030000000  0.6029990000000  0.4726690000000 1.0
C      1  0.5588840000000  0.4847270000000  0.5280160000000 1.0
C      1  0.4994830000000  0.4942810000000  0.6062710000000 1.0
C      1  0.5548440000000  0.5920500000000  0.5191760000000 1.0
C      1  0.4717550000000  0.4294940000000  0.5188220000000 1.0
C      1  0.5507960000000  0.4147270000000  0.4729920000000 1.0
C      1  0.5013470000000  0.4535920000000  0.5542140000000 1.0
C      1  0.5941260000000  0.5138620000000  0.5038130000000 1.0
C      1  0.4184450000000  0.4810720000000  0.5462220000000 1.0
C      1  0.3931290000000  0.4986330000000  0.5664440000000 1.0
C      1  0.5426230000000  0.5053370000000  0.4457430000000 1.0
C      1  0.4817770000000  0.5839370000000  0.5645450000000 1.0
C      1  0.5153210000000  0.5818130000000  0.5604210000000 1.0
C      1  0.5218900000000  0.4741440000000  0.4532700000000 1.0
C      1  0.4609590000000  0.5492370000000  0.4168710000000 1.0
C      1  0.4940460000000  0.4793080000000  0.5688010000000 1.0
C      1  0.6074100000000  0.5268120000000  0.4787280000000 1.0
C      1  0.4337970000000  0.5684640000000  0.4624830000000 1.0
C      1  0.5668430000000  0.5022510000000  0.5676870000000 1.0
C      1  0.4720100000000  0.5912150000000  0.4449560000000 1.0
C      1  0.5049570000000  0.5837040000000  0.4411490000000 1.0
C      1  0.4252870000000  0.4257800000000  0.4321380000000 1.0
C      1  0.4445050000000  0.4140230000000  0.5460390000000 1.0
C      1  0.5107550000000  0.5206160000000  0.3991390000000 1.0
C      1  0.5178620000000  0.5457160000000  0.4604100000000 1.0
C      1  0.6050660000000  0.4626580000000  0.4495250000000 1.0
C      1  0.4458520000000  0.5378170000000  0.4657960000000 1.0
C      1  0.4367250000000  0.5404520000000  0.5725530000000 1.0
C      1  0.4301430000000  0.4220700000000  0.4832400000000 1.0
C      1  0.4353220000000  0.4485470000000  0.5284460000000 1.0
C      1  0.5837560000000  0.5481890000000  0.5501710000000 1.0
C      1  0.4888680000000  0.5443640000000  0.4102640000000 1.0
C      1  0.5133820000000  0.5467560000000  0.4291470000000 1.0
C      1  0.5293840000000  0.4160250000000  0.4554140000000 1.0
C      1  0.5256430000000  0.5657710000000  0.5866660000000 1.0
C      1  0.4904590000000  0.6011930000000  0.5142340000000 1.0
C      1  0.4919480000000  0.4074730000000  0.5140090000000 1.0
C      1  0.5201530000000  0.4509070000000  0.5269360000000 1.0
C      1  0.4290960000000  0.5050960000000  0.4261390000000 1.0
C      1  0.5835030000000  0.4877990000000  0.4413150000000 1.0
C      1  0.5411070000000  0.5030830000000  0.5473090000000 1.0
C      1  0.4411500000000  0.4195260000000  0.5129030000000 1.0
C      1  0.3929700000000  0.5279710000000  0.4914950000000 1.0
C      1  0.4540770000000  0.4107670000000  0.4375350000000 1.0
C      1  0.5539080000000  0.5651070000000  0.5871630000000 1.0
C      1  0.5673800000000  0.4966390000000  0.4677830000000 1.0
C      1  0.5170450000000  0.4255200000000  0.5785470000000 1.0
C      1  0.4771020000000  0.4157390000000  0.4234170000000 1.0
C      1  0.4975970000000  0.6246390000000  0.5004270000000 1.0
C      1  0.4421840000000  0.5857290000000  0.4902820000000 1.0
C      1  0.4858340000000  0.4168440000000  0.5876840000000 1.0
C      1  0.5069930000000  0.4836220000000  0.5010690000000 1.0
C      1  0.5452460000000  0.5826560000000  0.5442040000000 1.0
C      1  0.5187630000000  0.4007300000000  0.5345810000000 1.0
C      1  0.5915750000000  0.5181180000000  0.5572560000000 1.0
C      1  0.4480720000000  0.4448240000000  0.4178180000000 1.0
C      1  0.4620460000000  0.5956920000000  0.5162950000000 1.0
C      1  0.4759660000000  0.4759070000000  0.3920020000000 1.0
C      1  0.5927650000000  0.4590180000000  0.5419590000000 1.0
C      1  0.5309900000000  0.4416880000000  0.4144380000000 1.0
C      1  0.5656870000000  0.5635590000000  0.4936630000000 1.0
C      1  0.5085890000000  0.5761400000000  0.4729530000000 1.0
C      1  0.4633610000000  0.4741220000000  0.5825930000000 1.0
C      1  0.6181770000000  0.4985200000000  0.5206420000000 1.0
C      1  0.5405670000000  0.5212720000000  0.4157400000000 1.0
C      1  0.4590510000000  0.5549270000000  0.5305610000000 1.0
C      1  0.4394180000000  0.4621640000000  0.4738150000000 1.0
C      1  0.4781060000000  0.6288850000000  0.4802120000000 1.0
C      1  0.4993170000000  0.4294650000000  0.4117920000000 1.0
C      1  0.3897200000000  0.5062910000000  0.5135320000000 1.0
C      1  0.4878890000000  0.5594420000000  0.5420120000000 1.0
C      1  0.5071550000000  0.4000830000000  0.4612670000000 1.0
C      1  0.5240400000000  0.5653010000000  0.5074310000000 1.0
C      1  0.5566520000000  0.5663850000000  0.4356920000000 1.0
C      1  0.5664040000000  0.4705430000000  0.5800530000000 1.0
C      1  0.5642180000000  0.5679370000000  0.5610690000000 1.0
C      1  0.5366130000000  0.5828190000000  0.4545040000000 1.0
C      1  0.4796120000000  0.5296360000000  0.4461260000000 1.0
C      1  0.5340060000000  0.4515580000000  0.5641620000000 1.0
C      1  0.4784460000000  0.5730160000000  0.4804380000000 1.0
C      1  0.5072420000000  0.5139880000000  0.5077840000000 1.0
C      1  0.4492770000000  0.4664310000000  0.3972870000000 1.0
C      1  0.5182120000000  0.4274750000000  0.5053350000000 1.0
C      1  0.5115470000000  0.5426570000000  0.5929850000000 1.0
C      1  0.4230510000000  0.4855760000000  0.5197910000000 1.0
C      1  0.5971910000000  0.5617800000000  0.5239610000000 1.0
C      1  0.5708990000000  0.5080690000000  0.4185510000000 1.0
C      1  0.6112400000000  0.5512160000000  0.4740000000000 1.0
C      1  0.4376640000000  0.5634080000000  0.5117420000000 1.0
C      1  0.5991900000000  0.4509970000000  0.4803400000000 1.0
C      1  0.4526070000000  0.4064050000000  0.4694690000000 1.0
C      1  0.5075400000000  0.5799120000000  0.5271800000000 1.0
C      1  0.5094370000000  0.4675750000000  0.6063370000000 1.0
C      1  0.5337390000000  0.4125770000000  0.5554110000000 1.0
C      1  0.5054570000000  0.5413370000000  0.4918140000000 1.0
C      1  0.4251190000000  0.5099270000000  0.5724840000000 1.0
C      1  0.5366140000000  0.4672680000000  0.5936900000000 1.0
C      1  0.4482220000000  0.5247850000000  0.4344200000000 1.0
C      1  0.4836780000000  0.4773700000000  0.4773150000000 1.0
C      1  0.4671220000000  0.4183980000000  0.5677670000000 1.0
C      1  0.5838660000000  0.5909540000000  0.5161780000000 1.0
C      1  0.4591200000000  0.5252550000000  0.5300680000000 1.0
C      1  0.4093560000000  0.4886270000000  0.4480100000000 1.0
C      1  0.6026900000000  0.4750160000000  0.5027120000000 1.0
C      1  0.4736060000000  0.4419750000000  0.5484430000000 1.0
C      1  0.5492890000000  0.4567080000000  0.5339930000000 1.0
C      1  0.5394980000000  0.5527570000000  0.4160780000000 1.0
C      1  0.4880490000000  0.5110580000000  0.4724360000000 1.0
C      1  0.5976900000000  0.4440640000000  0.5136770000000 1.0
C      1  0.5971710000000  0.5713440000000  0.4915850000000 1.0
C      1  0.4795130000000  0.4998820000000  0.4342620000000 1.0
C      1  0.5194560000000  0.4422700000000  0.4437670000000 1.0
C      1  0.4832060000000  0.5020770000000  0.4024020000000 1.0
C      1  0.5230160000000  0.5151380000000  0.5989770000000 1.0
C      1  0.4122080000000  0.5392710000000  0.5486700000000 1.0
C      1  0.5733730000000  0.4900470000000  0.4975930000000 1.0
C      1  0.5102670000000  0.3825770000000  0.4853670000000 1.0
C      1  0.4349260000000  0.4405700000000  0.5598180000000 1.0
C      1  0.4382390000000  0.5069580000000  0.5014700000000 1.0
C      1  0.5467350000000  0.5396390000000  0.5092220000000 1.0
C      1  0.4405180000000  0.4953190000000  0.4721160000000 1.0
C      1  0.5266460000000  0.5232260000000  0.5312130000000 1.0
C      1  0.5896600000000  0.4899440000000  0.5373940000000 1.0
C      1  0.5046280000000  0.4795630000000  0.4274740000000 1.0
C      1  0.5600410000000  0.4234320000000  0.5530200000000 1.0
C      1  0.4183870000000  0.5177750000000  0.4623500000000 1.0
C      1  0.4579220000000  0.4847730000000  0.4478200000000 1.0
C      1  0.5214310000000  0.4895770000000  0.4023100000000 1.0
C      1  0.4642530000000  0.4855670000000  0.5027410000000 1.0
C      1  0.4962060000000  0.4583290000000  0.4043390000000 1.0
C      1  0.5501800000000  0.4844510000000  0.4043940000000 1.0
C      1  0.4488980000000  0.5726250000000  0.4322700000000 1.0
C      1  0.4783130000000  0.3939600000000  0.4879340000000 1.0
END
