TITL C-2778423-5760-427 -0.00507247371728487 125000 -724.703426721941 0 0 124 (C1) n - 1
REM
REM in /home/nfs/bkarasulu/CARBON/AIRSS/Generating-Clusters/REBO/Only-C1/SD-CG/HFTN-CG
REM
REM
REM
REM
REM
REM ./C.cell (11c1c37f851c82e70ff6c80c92926a4b)
REM
REM compiler GCC version 9.2.1 20190827 (Red Hat 9.2.1-1)
REM options -cpp -mtune=generic -march=x86-64 -g -O0 -fpre-include=/usr/include/finclude/math-vector-fortran.h
REM seed 1117864860 -398673003 1935106960 376317078 1653303289 -610569183 -1510858333 -1047541945 1847548718 1655981966 -379004102 -1446288565 -830843332 -1252443490 -923356909 -1469350849 2122627552 847607572 -834869128 1257165662 -309378613 636959302 177818936 111934821 2068725090 217929477 686194122 1779349923 -498722998 -755829234 105670 -81167192 1979951243
REM
CELL 1.54180   50.00000   50.00000   50.00000   90.00000   90.00000   90.00000
LATT -1
SFAC C  
C      1  0.4163270000000  0.4751680000000  0.4724700000000 1.0
C      1  0.3987550000000  0.5166550000000  0.5240780000000 1.0
C      1  0.4923510000000  0.4714300000000  0.5928610000000 1.0
C      1  0.4981960000000  0.5186720000000  0.5746600000000 1.0
C      1  0.4520970000000  0.4280680000000  0.5178720000000 1.0
C      1  0.5089620000000  0.5438330000000  0.5086360000000 1.0
C      1  0.5317260000000  0.4480150000000  0.4498200000000 1.0
C      1  0.4958220000000  0.4406710000000  0.5477160000000 1.0
C      1  0.4726570000000  0.4512870000000  0.5269820000000 1.0
C      1  0.5424500000000  0.5220190000000  0.5092930000000 1.0
C      1  0.5466570000000  0.4832100000000  0.4730530000000 1.0
C      1  0.5695330000000  0.4375630000000  0.5126920000000 1.0
C      1  0.3997950000000  0.5029250000000  0.4618510000000 1.0
C      1  0.5656440000000  0.4899310000000  0.5136990000000 1.0
C      1  0.4451020000000  0.5171070000000  0.5527170000000 1.0
C      1  0.5219060000000  0.4191110000000  0.5836420000000 1.0
C      1  0.5279340000000  0.4969150000000  0.4919760000000 1.0
C      1  0.6142680000000  0.4605450000000  0.5167030000000 1.0
C      1  0.5315090000000  0.4889500000000  0.5650180000000 1.0
C      1  0.4149120000000  0.4553480000000  0.4934820000000 1.0
C      1  0.5579650000000  0.5672720000000  0.5417370000000 1.0
C      1  0.5905370000000  0.5079120000000  0.4468730000000 1.0
C      1  0.4219690000000  0.5438230000000  0.5061100000000 1.0
C      1  0.4643820000000  0.4624080000000  0.5836540000000 1.0
C      1  0.5842930000000  0.4629070000000  0.5226620000000 1.0
C      1  0.4452280000000  0.4877180000000  0.4690680000000 1.0
C      1  0.4442250000000  0.4616250000000  0.5599180000000 1.0
C      1  0.5431830000000  0.5676110000000  0.4902540000000 1.0
C      1  0.5288650000000  0.4069570000000  0.5261470000000 1.0
C      1  0.5108360000000  0.4760370000000  0.4050350000000 1.0
C      1  0.4539840000000  0.4066010000000  0.4843160000000 1.0
C      1  0.5634990000000  0.5144650000000  0.4404140000000 1.0
C      1  0.5453290000000  0.4936510000000  0.4458710000000 1.0
C      1  0.4484230000000  0.4432060000000  0.4347580000000 1.0
C      1  0.5097240000000  0.4689460000000  0.5382470000000 1.0
C      1  0.4322030000000  0.5132760000000  0.5025610000000 1.0
C      1  0.5545840000000  0.5408550000000  0.4526570000000 1.0
C      1  0.5714060000000  0.4112440000000  0.4721110000000 1.0
C      1  0.5259680000000  0.5122520000000  0.4162280000000 1.0
C      1  0.4761680000000  0.4785660000000  0.4804600000000 1.0
C      1  0.5263460000000  0.5316410000000  0.5791810000000 1.0
C      1  0.5590560000000  0.5383490000000  0.4845130000000 1.0
C      1  0.5449990000000  0.6126970000000  0.5089600000000 1.0
C      1  0.5506740000000  0.5192160000000  0.5825300000000 1.0
C      1  0.6400760000000  0.4585120000000  0.5115720000000 1.0
C      1  0.4578240000000  0.5473560000000  0.5555030000000 1.0
C      1  0.4774690000000  0.5359210000000  0.5106920000000 1.0
C      1  0.5660350000000  0.5657330000000  0.4396410000000 1.0
C      1  0.5485270000000  0.5361270000000  0.5463890000000 1.0
C      1  0.4167690000000  0.5171090000000  0.5408790000000 1.0
C      1  0.5108650000000  0.5256950000000  0.4332880000000 1.0
C      1  0.4712320000000  0.4018500000000  0.5088240000000 1.0
C      1  0.5095200000000  0.5395320000000  0.5395660000000 1.0
C      1  0.4254590000000  0.4556390000000  0.4274970000000 1.0
C      1  0.5110230000000  0.5692180000000  0.4594250000000 1.0
C      1  0.4784350000000  0.4985100000000  0.5885760000000 1.0
C      1  0.4596820000000  0.5761290000000  0.4154970000000 1.0
C      1  0.5274160000000  0.4430020000000  0.5721300000000 1.0
C      1  0.5107430000000  0.4271600000000  0.4552810000000 1.0
C      1  0.4929460000000  0.4937940000000  0.5519580000000 1.0
C      1  0.4619790000000  0.5926610000000  0.4631120000000 1.0
C      1  0.4342120000000  0.4489350000000  0.5376270000000 1.0
C      1  0.5232970000000  0.5409220000000  0.4570540000000 1.0
C      1  0.4525350000000  0.5948760000000  0.4339320000000 1.0
C      1  0.4852010000000  0.5451050000000  0.5610210000000 1.0
C      1  0.4576700000000  0.5840770000000  0.5197120000000 1.0
C      1  0.5341980000000  0.5855800000000  0.5469890000000 1.0
C      1  0.5270760000000  0.5124360000000  0.5441060000000 1.0
C      1  0.5024940000000  0.4303860000000  0.4859500000000 1.0
C      1  0.5176620000000  0.4679210000000  0.5811310000000 1.0
C      1  0.5417140000000  0.4464420000000  0.5481270000000 1.0
C      1  0.4430040000000  0.4915440000000  0.4286070000000 1.0
C      1  0.4805820000000  0.5272450000000  0.4295920000000 1.0
C      1  0.4675780000000  0.4769290000000  0.4474210000000 1.0
C      1  0.5268900000000  0.4743140000000  0.4313490000000 1.0
C      1  0.4685350000000  0.5331760000000  0.4572210000000 1.0
C      1  0.4411930000000  0.5173650000000  0.4638570000000 1.0
C      1  0.4791040000000  0.5688290000000  0.5018740000000 1.0
C      1  0.5697360000000  0.5662700000000  0.5117010000000 1.0
C      1  0.5247240000000  0.5591760000000  0.5618460000000 1.0
C      1  0.5010100000000  0.4520540000000  0.5097890000000 1.0
C      1  0.5426720000000  0.4768030000000  0.5350970000000 1.0
C      1  0.4332950000000  0.4324630000000  0.4898300000000 1.0
C      1  0.5244620000000  0.5976070000000  0.5229250000000 1.0
C      1  0.5124730000000  0.5755080000000  0.5027230000000 1.0
C      1  0.4800430000000  0.4473240000000  0.4706870000000 1.0
C      1  0.6657030000000  0.4564930000000  0.5064770000000 1.0
C      1  0.5204890000000  0.5279110000000  0.4841410000000 1.0
C      1  0.4362180000000  0.4892600000000  0.5197640000000 1.0
C      1  0.5041440000000  0.4141790000000  0.5455800000000 1.0
C      1  0.5954940000000  0.5035230000000  0.4738040000000 1.0
C      1  0.4928480000000  0.4284730000000  0.4325880000000 1.0
C      1  0.3980660000000  0.5152960000000  0.4925170000000 1.0
C      1  0.5005910000000  0.4830900000000  0.4991810000000 1.0
C      1  0.4152170000000  0.4831470000000  0.4402400000000 1.0
C      1  0.5503840000000  0.4546920000000  0.4719600000000 1.0
C      1  0.4827210000000  0.4741420000000  0.4095440000000 1.0
C      1  0.4734800000000  0.5166160000000  0.5355580000000 1.0
C      1  0.4446300000000  0.5673400000000  0.5397590000000 1.0
C      1  0.4540950000000  0.4333520000000  0.4632900000000 1.0
C      1  0.4181990000000  0.4662550000000  0.5195180000000 1.0
C      1  0.4508060000000  0.4931370000000  0.5715160000000 1.0
C      1  0.4967940000000  0.3978560000000  0.5191390000000 1.0
C      1  0.4933010000000  0.5854310000000  0.4637160000000 1.0
C      1  0.4694750000000  0.5002980000000  0.4158290000000 1.0
C      1  0.4609640000000  0.5239330000000  0.4894560000000 1.0
C      1  0.4303140000000  0.5604920000000  0.4804410000000 1.0
C      1  0.5495640000000  0.4268360000000  0.5294650000000 1.0
C      1  0.4636980000000  0.5603940000000  0.4734400000000 1.0
C      1  0.5912260000000  0.5162610000000  0.5294130000000 1.0
C      1  0.5652810000000  0.4346130000000  0.4846930000000 1.0
C      1  0.4144850000000  0.5330330000000  0.4685230000000 1.0
C      1  0.5618840000000  0.5948860000000  0.4954390000000 1.0
C      1  0.4737020000000  0.4473560000000  0.4213040000000 1.0
C      1  0.4715690000000  0.5521110000000  0.4125170000000 1.0
C      1  0.5803340000000  0.4890050000000  0.5445050000000 1.0
C      1  0.4990950000000  0.4646600000000  0.4484040000000 1.0
C      1  0.4606280000000  0.4797280000000  0.5282570000000 1.0
C      1  0.5024090000000  0.5045580000000  0.5217740000000 1.0
C      1  0.5758600000000  0.5096890000000  0.4921110000000 1.0
C      1  0.4441840000000  0.5893610000000  0.4919200000000 1.0
C      1  0.5707350000000  0.5350250000000  0.5225450000000 1.0
C      1  0.5636110000000  0.4963470000000  0.5686800000000 1.0
C      1  0.4199910000000  0.5573300000000  0.5295060000000 1.0
END
