TITL C-2778436-5916-1143 -0.00132172246631152 125000 -286.239221506171 0 0 51 (C1) n - 1
REM
REM in /home/nfs/bkarasulu/CARBON/AIRSS/Generating-Clusters/REBO/Only-C1/SD-CG/HFTN-CG
REM
REM
REM
REM
REM
REM ./C.cell (11c1c37f851c82e70ff6c80c92926a4b)
REM
REM compiler GCC version 9.2.1 20190827 (Red Hat 9.2.1-1)
REM options -cpp -mtune=generic -march=x86-64 -g -O0 -fpre-include=/usr/include/finclude/math-vector-fortran.h
REM seed -702416891 -577335004 339823929 2147253038 -1556592498 524692336 -377891699 1085882633 1653495882 -1189180586 1598938242 -1261059897 853416190 -789875246 2089624603 -1112289290 -1151496535 201174954 176669273 1509987679 -2067318750 -1419073079 1949669539 -1265647860 665670023 1439736878 -852663745 1568593626 -1037352429 -1270766612 1789324288 -118634778 1332491310
REM
CELL 1.54180   50.00000   50.00000   50.00000   90.00000   90.00000   90.00000
LATT -1
SFAC C  
C      1  0.5556400000000  0.4863070000000  0.6040580000000 1.0
C      1  0.4968360000000  0.4989190000000  0.5181320000000 1.0
C      1  0.4564900000000  0.5421350000000  0.5364570000000 1.0
C      1  0.4800600000000  0.4984990000000  0.5478290000000 1.0
C      1  0.5742500000000  0.4701510000000  0.4756340000000 1.0
C      1  0.5106370000000  0.4496180000000  0.5471860000000 1.0
C      1  0.4233800000000  0.4806740000000  0.4866450000000 1.0
C      1  0.4737660000000  0.5671080000000  0.4383750000000 1.0
C      1  0.5246940000000  0.4686380000000  0.4976730000000 1.0
C      1  0.5355870000000  0.5286990000000  0.5260100000000 1.0
C      1  0.5503130000000  0.4694240000000  0.4862780000000 1.0
C      1  0.4412540000000  0.4716910000000  0.4656440000000 1.0
C      1  0.4664830000000  0.4873940000000  0.5203750000000 1.0
C      1  0.5192640000000  0.5373970000000  0.5474820000000 1.0
C      1  0.5578570000000  0.5179450000000  0.4697010000000 1.0
C      1  0.5099140000000  0.5598560000000  0.4914750000000 1.0
C      1  0.4257860000000  0.5104580000000  0.5000540000000 1.0
C      1  0.4875960000000  0.4584070000000  0.4677230000000 1.0
C      1  0.5750390000000  0.4949620000000  0.6194050000000 1.0
C      1  0.4584220000000  0.5473720000000  0.5085790000000 1.0
C      1  0.5606760000000  0.5187660000000  0.5346700000000 1.0
C      1  0.4925040000000  0.5078330000000  0.4793800000000 1.0
C      1  0.5157270000000  0.4685000000000  0.5724820000000 1.0
C      1  0.5320690000000  0.5236330000000  0.4476240000000 1.0
C      1  0.4798940000000  0.5638470000000  0.5004130000000 1.0
C      1  0.5386110000000  0.5502340000000  0.5044680000000 1.0
C      1  0.4947050000000  0.5381880000000  0.4736000000000 1.0
C      1  0.4890060000000  0.5462620000000  0.4462920000000 1.0
C      1  0.4855840000000  0.4744980000000  0.5651200000000 1.0
C      1  0.5336000000000  0.5492450000000  0.4697450000000 1.0
C      1  0.4631830000000  0.5138860000000  0.4710090000000 1.0
C      1  0.5057230000000  0.5297030000000  0.4298790000000 1.0
C      1  0.4552770000000  0.4933080000000  0.4519080000000 1.0
C      1  0.4565290000000  0.4405570000000  0.5009300000000 1.0
C      1  0.4765300000000  0.4888780000000  0.4331090000000 1.0
C      1  0.5206130000000  0.5079360000000  0.5078020000000 1.0
C      1  0.5008980000000  0.4437430000000  0.4490270000000 1.0
C      1  0.4466880000000  0.5280840000000  0.4902440000000 1.0
C      1  0.4602470000000  0.4521610000000  0.4753680000000 1.0
C      1  0.4395810000000  0.4849960000000  0.5144360000000 1.0
C      1  0.5322530000000  0.5048910000000  0.4827140000000 1.0
C      1  0.5026040000000  0.5001930000000  0.4342800000000 1.0
C      1  0.5261970000000  0.4901940000000  0.4534140000000 1.0
C      1  0.4670960000000  0.5253530000000  0.5550970000000 1.0
C      1  0.5359260000000  0.4775120000000  0.5884620000000 1.0
C      1  0.4788940000000  0.4479020000000  0.5485580000000 1.0
C      1  0.4629220000000  0.4399320000000  0.5271970000000 1.0
C      1  0.5013160000000  0.4796710000000  0.4829130000000 1.0
C      1  0.5215630000000  0.4549280000000  0.5219650000000 1.0
C      1  0.5358300000000  0.4647960000000  0.4492930000000 1.0
C      1  0.5644820000000  0.5447160000000  0.4838840000000 1.0
END
