TITL C-2778436-5916-594 -0.00484702425249408 125000 -218.866907910479 0 0 39 (C1) n - 1
REM
REM in /home/nfs/bkarasulu/CARBON/AIRSS/Generating-Clusters/REBO/Only-C1/SD-CG/HFTN-CG
REM
REM
REM
REM
REM
REM ./C.cell (11c1c37f851c82e70ff6c80c92926a4b)
REM
REM compiler GCC version 9.2.1 20190827 (Red Hat 9.2.1-1)
REM options -cpp -mtune=generic -march=x86-64 -g -O0 -fpre-include=/usr/include/finclude/math-vector-fortran.h
REM seed 2099709321 -1413071239 751299622 -93943608 878081699 -1913433464 305129603 -144753467 1452996575 1837235071 1030471855 -1603160302 -179438212 1133463248 806713044 -879646274 334380283 -108479976 -1603685520 -1120729322 406967772 1530102405 -2016034429 -745457390 -182737909 -1210864691 -1334265862 -1117914172 -253447075 -559326788 -478850985 1173530536 135729264
REM
CELL 1.54180   50.00000   50.00000   50.00000   90.00000   90.00000   90.00000
LATT -1
SFAC C  
C      1  0.4586910000000  0.4531980000000  0.4803620000000 1.0
C      1  0.5560660000000  0.5141730000000  0.5016250000000 1.0
C      1  0.4847890000000  0.5413440000000  0.5231920000000 1.0
C      1  0.5249100000000  0.5112020000000  0.5072830000000 1.0
C      1  0.4475640000000  0.4617670000000  0.5034360000000 1.0
C      1  0.5188670000000  0.4571140000000  0.5322160000000 1.0
C      1  0.5341700000000  0.4485400000000  0.4867730000000 1.0
C      1  0.4888730000000  0.5373920000000  0.4484030000000 1.0
C      1  0.4245910000000  0.4881210000000  0.5385340000000 1.0
C      1  0.5111680000000  0.5222360000000  0.4781660000000 1.0
C      1  0.5357800000000  0.5409650000000  0.4659830000000 1.0
C      1  0.4861280000000  0.5104730000000  0.4979680000000 1.0
C      1  0.5193390000000  0.5306260000000  0.4400460000000 1.0
C      1  0.5097040000000  0.4895800000000  0.4854010000000 1.0
C      1  0.5346800000000  0.4807420000000  0.5311330000000 1.0
C      1  0.5110600000000  0.5612820000000  0.5104220000000 1.0
C      1  0.5182570000000  0.5074090000000  0.5384420000000 1.0
C      1  0.4923920000000  0.4617890000000  0.5416910000000 1.0
C      1  0.5548320000000  0.4849960000000  0.5108590000000 1.0
C      1  0.5058610000000  0.5613270000000  0.5411050000000 1.0
C      1  0.4874750000000  0.5097810000000  0.5296300000000 1.0
C      1  0.5259490000000  0.4379020000000  0.5121540000000 1.0
C      1  0.5605280000000  0.5244970000000  0.4754390000000 1.0
C      1  0.5702290000000  0.4776690000000  0.4654910000000 1.0
C      1  0.4875020000000  0.5538960000000  0.4720600000000 1.0
C      1  0.4703800000000  0.5486280000000  0.4948270000000 1.0
C      1  0.4950160000000  0.4805370000000  0.4493240000000 1.0
C      1  0.4803650000000  0.4556810000000  0.4634360000000 1.0
C      1  0.4976660000000  0.5063570000000  0.4415640000000 1.0
C      1  0.3999000000000  0.4824290000000  0.5267050000000 1.0
C      1  0.5722070000000  0.5045830000000  0.4585430000000 1.0
C      1  0.3767600000000  0.4770930000000  0.5156200000000 1.0
C      1  0.4481250000000  0.4772830000000  0.5269980000000 1.0
C      1  0.5265980000000  0.5224670000000  0.5629930000000 1.0
C      1  0.4262160000000  0.5038000000000  0.5607760000000 1.0
C      1  0.5143250000000  0.5614710000000  0.4826300000000 1.0
C      1  0.4740580000000  0.4832980000000  0.5377100000000 1.0
C      1  0.5572070000000  0.4662280000000  0.4884190000000 1.0
C      1  0.5117740000000  0.4621240000000  0.4726390000000 1.0
END
