TITL C-2778436-5916-698 0.000568373891849327 125000 -1060.56332309504 0 0 178 (C1) n - 1
REM
REM in /home/nfs/bkarasulu/CARBON/AIRSS/Generating-Clusters/REBO/Only-C1/SD-CG/HFTN-CG
REM
REM
REM
REM
REM
REM ./C.cell (11c1c37f851c82e70ff6c80c92926a4b)
REM
REM compiler GCC version 9.2.1 20190827 (Red Hat 9.2.1-1)
REM options -cpp -mtune=generic -march=x86-64 -g -O0 -fpre-include=/usr/include/finclude/math-vector-fortran.h
REM seed 525487332 1508518271 -1586153027 -930416503 1243072779 1087850560 -1372616429 -1585492753 -1222299862 1030883738 -1365414981 -877566933 1796105518 1494678410 -211524921 -1352705100 -61369842 -654860666 -1253397206 -1719064705 -348104027 2039584101 -2066575209 -1317365157 559655795 -872752983 -478966437 -1657329938 -492035919 1300606011 -1002150888 -659953855 124037653
REM
CELL 1.54180   50.00000   50.00000   50.00000   90.00000   90.00000   90.00000
LATT -1
SFAC C  
C      1  0.6024260000000  0.5444570000000  0.5380540000000 1.0
C      1  0.5454380000000  0.5546070000000  0.4233510000000 1.0
C      1  0.5112230000000  0.5329840000000  0.5171010000000 1.0
C      1  0.4991150000000  0.5536840000000  0.5502750000000 1.0
C      1  0.5815760000000  0.4506290000000  0.4922340000000 1.0
C      1  0.5463430000000  0.5080840000000  0.4567900000000 1.0
C      1  0.5185920000000  0.4250790000000  0.4995150000000 1.0
C      1  0.4886400000000  0.5133150000000  0.5689880000000 1.0
C      1  0.4457660000000  0.4097230000000  0.5214190000000 1.0
C      1  0.5331750000000  0.4055200000000  0.5444040000000 1.0
C      1  0.5005060000000  0.5081630000000  0.5376850000000 1.0
C      1  0.5007120000000  0.4321370000000  0.4076520000000 1.0
C      1  0.4962350000000  0.5678250000000  0.4253280000000 1.0
C      1  0.5210970000000  0.5946070000000  0.4412390000000 1.0
C      1  0.4851120000000  0.5399790000000  0.4976020000000 1.0
C      1  0.4476540000000  0.6080700000000  0.4668390000000 1.0
C      1  0.5293720000000  0.5455480000000  0.4492150000000 1.0
C      1  0.5471990000000  0.5219350000000  0.5836490000000 1.0
C      1  0.5989120000000  0.4848770000000  0.4812370000000 1.0
C      1  0.4675190000000  0.5245900000000  0.4432060000000 1.0
C      1  0.5986880000000  0.5617680000000  0.4970330000000 1.0
C      1  0.5632220000000  0.5822270000000  0.4729470000000 1.0
C      1  0.5227670000000  0.4479640000000  0.4094580000000 1.0
C      1  0.3891270000000  0.4973160000000  0.5124920000000 1.0
C      1  0.6116120000000  0.5096070000000  0.5008620000000 1.0
C      1  0.5758990000000  0.4494520000000  0.5825300000000 1.0
C      1  0.5073720000000  0.4780300000000  0.4936980000000 1.0
C      1  0.4792390000000  0.4980400000000  0.3887450000000 1.0
C      1  0.5163350000000  0.4737940000000  0.4262070000000 1.0
C      1  0.4371820000000  0.5525150000000  0.5846070000000 1.0
C      1  0.4139260000000  0.4588640000000  0.4517960000000 1.0
C      1  0.5750960000000  0.4241170000000  0.5627420000000 1.0
C      1  0.5755800000000  0.5043940000000  0.4094380000000 1.0
C      1  0.4696500000000  0.5414400000000  0.5479490000000 1.0
C      1  0.4247260000000  0.4238070000000  0.5326260000000 1.0
C      1  0.5946290000000  0.5350470000000  0.4936740000000 1.0
C      1  0.5853000000000  0.4737380000000  0.4592590000000 1.0
C      1  0.4405950000000  0.4825790000000  0.5278240000000 1.0
C      1  0.5699260000000  0.4711250000000  0.4050480000000 1.0
C      1  0.5400940000000  0.4919330000000  0.4208880000000 1.0
C      1  0.4661110000000  0.4008920000000  0.5389540000000 1.0
C      1  0.5207170000000  0.5052680000000  0.4992820000000 1.0
C      1  0.4615730000000  0.4026460000000  0.4720050000000 1.0
C      1  0.4874850000000  0.4828850000000  0.4694940000000 1.0
C      1  0.4913240000000  0.4025310000000  0.5253210000000 1.0
C      1  0.5854270000000  0.4741580000000  0.5351310000000 1.0
C      1  0.5273400000000  0.4792980000000  0.4562710000000 1.0
C      1  0.5188490000000  0.4762680000000  0.5970240000000 1.0
C      1  0.4857430000000  0.5466850000000  0.4118010000000 1.0
C      1  0.5470870000000  0.4576560000000  0.5968240000000 1.0
C      1  0.4226710000000  0.5608770000000  0.4544780000000 1.0
C      1  0.5411770000000  0.5725240000000  0.5674530000000 1.0
C      1  0.4595790000000  0.5775810000000  0.4378430000000 1.0
C      1  0.5013340000000  0.4280250000000  0.5840070000000 1.0
C      1  0.4259170000000  0.4663280000000  0.5032380000000 1.0
C      1  0.5096920000000  0.4523170000000  0.5392410000000 1.0
C      1  0.4146210000000  0.5072780000000  0.4422640000000 1.0
C      1  0.4634320000000  0.4528200000000  0.5049910000000 1.0
C      1  0.5338090000000  0.4049140000000  0.4483360000000 1.0
C      1  0.5177490000000  0.5886330000000  0.4965540000000 1.0
C      1  0.5669830000000  0.5353210000000  0.4573230000000 1.0
C      1  0.4613470000000  0.4526510000000  0.5982110000000 1.0
C      1  0.4750800000000  0.4218960000000  0.5632760000000 1.0
C      1  0.4607410000000  0.5133450000000  0.6031530000000 1.0
C      1  0.4842070000000  0.5760420000000  0.5143410000000 1.0
C      1  0.5634140000000  0.4611640000000  0.5537710000000 1.0
C      1  0.4638390000000  0.4692000000000  0.4282150000000 1.0
C      1  0.5372500000000  0.5105170000000  0.3999860000000 1.0
C      1  0.4337140000000  0.4516560000000  0.4783140000000 1.0
C      1  0.5116040000000  0.5693090000000  0.4621900000000 1.0
C      1  0.5970740000000  0.4347870000000  0.5084610000000 1.0
C      1  0.4571310000000  0.5700490000000  0.5728530000000 1.0
C      1  0.5573300000000  0.5702730000000  0.5213300000000 1.0
C      1  0.4910620000000  0.5097570000000  0.4555050000000 1.0
C      1  0.5493420000000  0.4972660000000  0.4886240000000 1.0
C      1  0.5424750000000  0.4442840000000  0.5084410000000 1.0
C      1  0.5021790000000  0.3886290000000  0.5004840000000 1.0
C      1  0.5066070000000  0.5261370000000  0.4781900000000 1.0
C      1  0.4577480000000  0.5651060000000  0.5321530000000 1.0
C      1  0.5756710000000  0.4421090000000  0.4624080000000 1.0
C      1  0.5561950000000  0.4365370000000  0.5345620000000 1.0
C      1  0.4214780000000  0.5383040000000  0.4389470000000 1.0
C      1  0.3936300000000  0.4803600000000  0.5353300000000 1.0
C      1  0.5864750000000  0.4251100000000  0.5313950000000 1.0
C      1  0.4282280000000  0.5902940000000  0.4590980000000 1.0
C      1  0.4153640000000  0.5350050000000  0.5218160000000 1.0
C      1  0.4609470000000  0.5526100000000  0.3993510000000 1.0
C      1  0.5505910000000  0.4924420000000  0.5281420000000 1.0
C      1  0.4755910000000  0.5033820000000  0.5165390000000 1.0
C      1  0.5201350000000  0.4852540000000  0.5371510000000 1.0
C      1  0.5631240000000  0.5268970000000  0.4902070000000 1.0
C      1  0.5506370000000  0.4535530000000  0.4199770000000 1.0
C      1  0.4409590000000  0.4053830000000  0.4530550000000 1.0
C      1  0.5190930000000  0.5384590000000  0.5938590000000 1.0
C      1  0.4791990000000  0.4815180000000  0.5649880000000 1.0
C      1  0.5421660000000  0.5172180000000  0.5501380000000 1.0
C      1  0.4359620000000  0.3862020000000  0.4344410000000 1.0
C      1  0.5288820000000  0.5609420000000  0.5089510000000 1.0
C      1  0.3903480000000  0.5250480000000  0.5184150000000 1.0
C      1  0.4878940000000  0.5953090000000  0.4432070000000 1.0
C      1  0.4124480000000  0.4543740000000  0.5305500000000 1.0
C      1  0.4811880000000  0.6131600000000  0.5279070000000 1.0
C      1  0.5088200000000  0.4221100000000  0.5380760000000 1.0
C      1  0.5976800000000  0.4823810000000  0.5133860000000 1.0
C      1  0.4537570000000  0.6017930000000  0.5127440000000 1.0
C      1  0.4751820000000  0.6082560000000  0.4686480000000 1.0
C      1  0.5180500000000  0.5185740000000  0.4407680000000 1.0
C      1  0.5194790000000  0.5368470000000  0.5598850000000 1.0
C      1  0.4861870000000  0.5632540000000  0.4755690000000 1.0
C      1  0.5097080000000  0.5940030000000  0.5283680000000 1.0
C      1  0.4856170000000  0.4394430000000  0.6062900000000 1.0
C      1  0.4504010000000  0.4394300000000  0.5751420000000 1.0
C      1  0.4917560000000  0.4662400000000  0.5166350000000 1.0
C      1  0.4895450000000  0.6048410000000  0.4956280000000 1.0
C      1  0.4891390000000  0.4319240000000  0.4827940000000 1.0
C      1  0.5036410000000  0.3916290000000  0.4398510000000 1.0
C      1  0.4537290000000  0.4931070000000  0.4076450000000 1.0
C      1  0.4652500000000  0.4823700000000  0.5951830000000 1.0
C      1  0.4511980000000  0.4717320000000  0.4579630000000 1.0
C      1  0.4396330000000  0.5241710000000  0.5872450000000 1.0
C      1  0.5097800000000  0.5090840000000  0.3880140000000 1.0
C      1  0.4700390000000  0.5911500000000  0.5497530000000 1.0
C      1  0.5351050000000  0.5925720000000  0.4711450000000 1.0
C      1  0.4281960000000  0.5613450000000  0.5164280000000 1.0
C      1  0.4949190000000  0.5792400000000  0.5669430000000 1.0
C      1  0.4359160000000  0.5083720000000  0.5632960000000 1.0
C      1  0.5754890000000  0.5783040000000  0.4982210000000 1.0
C      1  0.4386200000000  0.4970400000000  0.4771190000000 1.0
C      1  0.5139570000000  0.4129710000000  0.4711470000000 1.0
C      1  0.5295020000000  0.3972110000000  0.5149560000000 1.0
C      1  0.4915000000000  0.5279480000000  0.6058850000000 1.0
C      1  0.5177380000000  0.5693150000000  0.5830270000000 1.0
C      1  0.4762790000000  0.4389850000000  0.4294220000000 1.0
C      1  0.4907690000000  0.4869050000000  0.4195790000000 1.0
C      1  0.4184210000000  0.4884760000000  0.5511120000000 1.0
C      1  0.5299420000000  0.4309750000000  0.5844600000000 1.0
C      1  0.5305210000000  0.4585040000000  0.4812990000000 1.0
C      1  0.4076190000000  0.4895700000000  0.4892460000000 1.0
C      1  0.5060520000000  0.4658580000000  0.5688350000000 1.0
C      1  0.4972430000000  0.5200840000000  0.4164930000000 1.0
C      1  0.4585400000000  0.5246050000000  0.4980810000000 1.0
C      1  0.4757130000000  0.5427090000000  0.5805650000000 1.0
C      1  0.5601080000000  0.4723790000000  0.5042210000000 1.0
C      1  0.5586070000000  0.4157840000000  0.4499540000000 1.0
C      1  0.4796240000000  0.4522220000000  0.4605610000000 1.0
C      1  0.4596490000000  0.4218760000000  0.4967700000000 1.0
C      1  0.6183120000000  0.5299160000000  0.5254080000000 1.0
C      1  0.4290670000000  0.4425550000000  0.5578890000000 1.0
C      1  0.4960020000000  0.4960170000000  0.5980360000000 1.0
C      1  0.5591600000000  0.5241040000000  0.5225520000000 1.0
C      1  0.5585860000000  0.5494470000000  0.5670990000000 1.0
C      1  0.4585620000000  0.5150150000000  0.5427940000000 1.0
C      1  0.5394100000000  0.5815380000000  0.4191090000000 1.0
C      1  0.4478090000000  0.5725740000000  0.4135130000000 1.0
C      1  0.4282930000000  0.4300050000000  0.4529260000000 1.0
C      1  0.4372760000000  0.5144060000000  0.5190870000000 1.0
C      1  0.4618670000000  0.5532600000000  0.4566190000000 1.0
C      1  0.4666360000000  0.4723440000000  0.5395640000000 1.0
C      1  0.5366320000000  0.5842730000000  0.5415900000000 1.0
C      1  0.4892680000000  0.3901490000000  0.4707120000000 1.0
C      1  0.5385530000000  0.4757750000000  0.5624000000000 1.0
C      1  0.4297650000000  0.5927120000000  0.5253110000000 1.0
C      1  0.4688310000000  0.4404760000000  0.5364600000000 1.0
C      1  0.4432440000000  0.5150770000000  0.4261180000000 1.0
C      1  0.5472680000000  0.4917510000000  0.5902070000000 1.0
C      1  0.5716990000000  0.5476400000000  0.5393440000000 1.0
C      1  0.5685940000000  0.4903710000000  0.4397340000000 1.0
C      1  0.5481650000000  0.4542290000000  0.4520300000000 1.0
C      1  0.4350870000000  0.5610020000000  0.4853970000000 1.0
C      1  0.5459380000000  0.4148280000000  0.5670990000000 1.0
C      1  0.4058450000000  0.4858790000000  0.4571990000000 1.0
C      1  0.4883220000000  0.4077780000000  0.4225880000000 1.0
C      1  0.4647470000000  0.4840700000000  0.4933560000000 1.0
C      1  0.4602640000000  0.5782230000000  0.4902170000000 1.0
C      1  0.4418280000000  0.5305710000000  0.4724340000000 1.0
C      1  0.5572720000000  0.5330000000000  0.4069230000000 1.0
C      1  0.5702980000000  0.5621190000000  0.4536970000000 1.0
C      1  0.5342340000000  0.5432960000000  0.4828670000000 1.0
END
