TITL C-2778430-5657-1483 -0.00277738296045683 125000 -1094.64176409228 0 0 188 (C1) n - 1
REM
REM in /home/nfs/bkarasulu/CARBON/AIRSS/Generating-Clusters/REBO/Only-C1/SD-CG/HFTN-CG
REM
REM
REM
REM
REM
REM ./C.cell (11c1c37f851c82e70ff6c80c92926a4b)
REM
REM compiler GCC version 9.2.1 20190827 (Red Hat 9.2.1-1)
REM options -cpp -mtune=generic -march=x86-64 -g -O0 -fpre-include=/usr/include/finclude/math-vector-fortran.h
REM seed 1972601400 -1074835112 1250721524 -2037155703 398993468 929137006 -1297328301 -707885491 -1672491659 -603671061 1756185637 1058244655 1945095650 740930163 -2002169801 1046342168 -1407937137 -1009533421 1994937586 754453525 151907347 -1662066764 35776229 -1303261852 -1645276844 210720786 -1487179551 823318833 -1184179558 1911303694 -1028381990 -1627429966 527447318
REM
CELL 1.54180   50.00000   50.00000   50.00000   90.00000   90.00000   90.00000
LATT -1
SFAC C  
C      1  0.5349890000000  0.5097320000000  0.4867380000000 1.0
C      1  0.5638470000000  0.4481620000000  0.5049340000000 1.0
C      1  0.5032810000000  0.5774810000000  0.4735320000000 1.0
C      1  0.5565640000000  0.5194110000000  0.6054600000000 1.0
C      1  0.4543290000000  0.5686090000000  0.4435450000000 1.0
C      1  0.4654580000000  0.5600440000000  0.5337600000000 1.0
C      1  0.4823410000000  0.4508070000000  0.6031770000000 1.0
C      1  0.5989190000000  0.5096960000000  0.4684600000000 1.0
C      1  0.5011870000000  0.5717080000000  0.4331930000000 1.0
C      1  0.5451170000000  0.5971840000000  0.4966960000000 1.0
C      1  0.5625780000000  0.4690250000000  0.4780670000000 1.0
C      1  0.4540850000000  0.4636290000000  0.5304510000000 1.0
C      1  0.4652950000000  0.5130050000000  0.5891330000000 1.0
C      1  0.5524510000000  0.4940590000000  0.4000960000000 1.0
C      1  0.4250400000000  0.4782750000000  0.5295440000000 1.0
C      1  0.5516780000000  0.5378740000000  0.4300240000000 1.0
C      1  0.3863240000000  0.4866550000000  0.5364240000000 1.0
C      1  0.5454320000000  0.5445080000000  0.5667510000000 1.0
C      1  0.4682260000000  0.4915010000000  0.4152380000000 1.0
C      1  0.4434870000000  0.5557160000000  0.5799770000000 1.0
C      1  0.4687000000000  0.5596430000000  0.4138910000000 1.0
C      1  0.4428880000000  0.4621760000000  0.4079360000000 1.0
C      1  0.3965070000000  0.5340200000000  0.5174460000000 1.0
C      1  0.4421370000000  0.4158340000000  0.5195070000000 1.0
C      1  0.5342570000000  0.5201330000000  0.4481620000000 1.0
C      1  0.5022610000000  0.4555680000000  0.5512040000000 1.0
C      1  0.5375420000000  0.6135320000000  0.5780640000000 1.0
C      1  0.4304630000000  0.5021330000000  0.5060810000000 1.0
C      1  0.4902970000000  0.5651650000000  0.5543770000000 1.0
C      1  0.5849060000000  0.5369840000000  0.4532630000000 1.0
C      1  0.5783900000000  0.5872030000000  0.5165050000000 1.0
C      1  0.4835720000000  0.4942520000000  0.5674600000000 1.0
C      1  0.4692950000000  0.4028350000000  0.5159110000000 1.0
C      1  0.4953020000000  0.3993560000000  0.4740370000000 1.0
C      1  0.5554190000000  0.4755640000000  0.5565160000000 1.0
C      1  0.4451470000000  0.5486290000000  0.4699070000000 1.0
C      1  0.4698000000000  0.4826920000000  0.6031050000000 1.0
C      1  0.5917140000000  0.5565720000000  0.5482590000000 1.0
C      1  0.5082690000000  0.4999850000000  0.4438550000000 1.0
C      1  0.4552910000000  0.4817230000000  0.5566380000000 1.0
C      1  0.4801900000000  0.4859530000000  0.3901530000000 1.0
C      1  0.4365020000000  0.5624090000000  0.5502430000000 1.0
C      1  0.5013070000000  0.6032000000000  0.5207320000000 1.0
C      1  0.3839280000000  0.4961310000000  0.4858280000000 1.0
C      1  0.5594710000000  0.5929050000000  0.4665500000000 1.0
C      1  0.5646370000000  0.4271640000000  0.4461410000000 1.0
C      1  0.4914820000000  0.5174760000000  0.4869010000000 1.0
C      1  0.4250460000000  0.4208450000000  0.4913660000000 1.0
C      1  0.5556140000000  0.4378990000000  0.4190190000000 1.0
C      1  0.5797120000000  0.4954560000000  0.4207210000000 1.0
C      1  0.3998250000000  0.5450320000000  0.4918410000000 1.0
C      1  0.5054470000000  0.4176010000000  0.5621580000000 1.0
C      1  0.4506550000000  0.4319310000000  0.5660420000000 1.0
C      1  0.4501950000000  0.5126220000000  0.5475600000000 1.0
C      1  0.5881990000000  0.5146100000000  0.5680260000000 1.0
C      1  0.5143090000000  0.5284700000000  0.3977020000000 1.0
C      1  0.5567860000000  0.4232690000000  0.5489150000000 1.0
C      1  0.4860310000000  0.4872490000000  0.4362400000000 1.0
C      1  0.3837490000000  0.4695870000000  0.5068160000000 1.0
C      1  0.5216780000000  0.5539920000000  0.5167410000000 1.0
C      1  0.5313410000000  0.4634780000000  0.5860630000000 1.0
C      1  0.5306750000000  0.4565340000000  0.4381430000000 1.0
C      1  0.5166290000000  0.5802030000000  0.5011360000000 1.0
C      1  0.4668930000000  0.4313880000000  0.4752490000000 1.0
C      1  0.5004900000000  0.3935020000000  0.4464240000000 1.0
C      1  0.4473830000000  0.5939610000000  0.5434670000000 1.0
C      1  0.6128870000000  0.4660670000000  0.4899370000000 1.0
C      1  0.5506660000000  0.4915230000000  0.5868870000000 1.0
C      1  0.4473900000000  0.5644990000000  0.4984880000000 1.0
C      1  0.4930810000000  0.5533680000000  0.5824420000000 1.0
C      1  0.4142360000000  0.5056160000000  0.5759530000000 1.0
C      1  0.5785950000000  0.5259030000000  0.4232860000000 1.0
C      1  0.4265310000000  0.5245380000000  0.5581320000000 1.0
C      1  0.4882290000000  0.5436350000000  0.4448350000000 1.0
C      1  0.5314420000000  0.4652290000000  0.4679310000000 1.0
C      1  0.5617990000000  0.5811200000000  0.5342340000000 1.0
C      1  0.4577770000000  0.5293930000000  0.4375230000000 1.0
C      1  0.4953650000000  0.5445020000000  0.5295610000000 1.0
C      1  0.4680440000000  0.6047620000000  0.5595920000000 1.0
C      1  0.5827670000000  0.4345580000000  0.4665980000000 1.0
C      1  0.4161850000000  0.5666400000000  0.4905210000000 1.0
C      1  0.4912710000000  0.5239670000000  0.4168850000000 1.0
C      1  0.5442100000000  0.4056340000000  0.4842420000000 1.0
C      1  0.4978630000000  0.5956580000000  0.5508620000000 1.0
C      1  0.5561140000000  0.4097980000000  0.5216830000000 1.0
C      1  0.4501610000000  0.5095770000000  0.4592590000000 1.0
C      1  0.4467810000000  0.4041300000000  0.4724750000000 1.0
C      1  0.5254990000000  0.5644920000000  0.5843480000000 1.0
C      1  0.5268140000000  0.4283220000000  0.4103530000000 1.0
C      1  0.5524830000000  0.5287270000000  0.5201750000000 1.0
C      1  0.3863370000000  0.5081960000000  0.5162340000000 1.0
C      1  0.5150510000000  0.4498750000000  0.3937810000000 1.0
C      1  0.4620620000000  0.5292270000000  0.4041760000000 1.0
C      1  0.5338670000000  0.4438690000000  0.4896280000000 1.0
C      1  0.5570590000000  0.5664200000000  0.4876880000000 1.0
C      1  0.4574570000000  0.4473450000000  0.5003980000000 1.0
C      1  0.5277620000000  0.4551560000000  0.5204570000000 1.0
C      1  0.6040550000000  0.5469140000000  0.5212420000000 1.0
C      1  0.5275410000000  0.5762980000000  0.4491540000000 1.0
C      1  0.5086030000000  0.4241430000000  0.4835610000000 1.0
C      1  0.4685840000000  0.5385390000000  0.5005040000000 1.0
C      1  0.4844120000000  0.5959300000000  0.4411180000000 1.0
C      1  0.3993560000000  0.5201600000000  0.4685990000000 1.0
C      1  0.4423500000000  0.4357960000000  0.4292760000000 1.0
C      1  0.5008900000000  0.5594770000000  0.4027660000000 1.0
C      1  0.5950360000000  0.4087590000000  0.5881900000000 1.0
C      1  0.4998350000000  0.4056140000000  0.5307640000000 1.0
C      1  0.4447600000000  0.4642990000000  0.4473400000000 1.0
C      1  0.5770210000000  0.4215610000000  0.5752460000000 1.0
C      1  0.4001790000000  0.4807070000000  0.4622220000000 1.0
C      1  0.4205870000000  0.5156550000000  0.4422500000000 1.0
C      1  0.6052790000000  0.5048880000000  0.5484350000000 1.0
C      1  0.4772750000000  0.4325810000000  0.5539820000000 1.0
C      1  0.5259430000000  0.4848390000000  0.5081770000000 1.0
C      1  0.5219130000000  0.4085770000000  0.4345780000000 1.0
C      1  0.4003920000000  0.4848920000000  0.5602700000000 1.0
C      1  0.4630800000000  0.5930340000000  0.4657930000000 1.0
C      1  0.4742760000000  0.4679370000000  0.4585490000000 1.0
C      1  0.5428600000000  0.4108010000000  0.4555510000000 1.0
C      1  0.4404790000000  0.4728510000000  0.4932140000000 1.0
C      1  0.4771080000000  0.4411630000000  0.5240860000000 1.0
C      1  0.5462820000000  0.5549220000000  0.5372590000000 1.0
C      1  0.5314030000000  0.5168090000000  0.5745870000000 1.0
C      1  0.5382850000000  0.5405660000000  0.6057820000000 1.0
C      1  0.5287460000000  0.6157980000000  0.5141400000000 1.0
C      1  0.5915020000000  0.4848990000000  0.4504320000000 1.0
C      1  0.5091570000000  0.4377490000000  0.5884690000000 1.0
C      1  0.5977470000000  0.5344920000000  0.4909390000000 1.0
C      1  0.5181480000000  0.4908640000000  0.4698290000000 1.0
C      1  0.5336140000000  0.5438130000000  0.4883780000000 1.0
C      1  0.5881840000000  0.5642240000000  0.4965250000000 1.0
C      1  0.4790150000000  0.6023400000000  0.4947680000000 1.0
C      1  0.4294820000000  0.5208800000000  0.4806730000000 1.0
C      1  0.5268090000000  0.5013500000000  0.3924930000000 1.0
C      1  0.5290260000000  0.4370780000000  0.5472420000000 1.0
C      1  0.5220100000000  0.5931180000000  0.5718890000000 1.0
C      1  0.4282750000000  0.4330150000000  0.5424060000000 1.0
C      1  0.5276740000000  0.4009680000000  0.5116630000000 1.0
C      1  0.4398430000000  0.4669230000000  0.5820350000000 1.0
C      1  0.5101030000000  0.5327840000000  0.4663410000000 1.0
C      1  0.4366910000000  0.4900870000000  0.4265970000000 1.0
C      1  0.4594050000000  0.5873710000000  0.5138680000000 1.0
C      1  0.4656500000000  0.5420650000000  0.5888720000000 1.0
C      1  0.5736520000000  0.4191250000000  0.4947500000000 1.0
C      1  0.4383210000000  0.4953380000000  0.5960030000000 1.0
C      1  0.5003170000000  0.4869840000000  0.5387730000000 1.0
C      1  0.5574260000000  0.4480150000000  0.5728220000000 1.0
C      1  0.4721050000000  0.4960430000000  0.4725980000000 1.0
C      1  0.5717420000000  0.5171940000000  0.4996770000000 1.0
C      1  0.4978950000000  0.6113250000000  0.4678910000000 1.0
C      1  0.5100450000000  0.5296650000000  0.5949170000000 1.0
C      1  0.4056190000000  0.4514150000000  0.5248600000000 1.0
C      1  0.5006120000000  0.4761940000000  0.5896090000000 1.0
C      1  0.5045140000000  0.4333310000000  0.5142180000000 1.0
C      1  0.5306790000000  0.4951860000000  0.5527680000000 1.0
C      1  0.5790840000000  0.5688980000000  0.4544270000000 1.0
C      1  0.4867390000000  0.4306770000000  0.4507770000000 1.0
C      1  0.4716610000000  0.3940220000000  0.4883880000000 1.0
C      1  0.4681930000000  0.4897850000000  0.5038450000000 1.0
C      1  0.5610880000000  0.5223330000000  0.4689410000000 1.0
C      1  0.5992060000000  0.4576890000000  0.4670600000000 1.0
C      1  0.4576950000000  0.5162050000000  0.5184020000000 1.0
C      1  0.5081250000000  0.4783340000000  0.3889690000000 1.0
C      1  0.5524470000000  0.5640670000000  0.4397850000000 1.0
C      1  0.4948020000000  0.4731830000000  0.5070720000000 1.0
C      1  0.4083980000000  0.5466520000000  0.5432330000000 1.0
C      1  0.4298770000000  0.5471260000000  0.4331960000000 1.0
C      1  0.3873550000000  0.5580520000000  0.5586390000000 1.0
C      1  0.4209600000000  0.4614260000000  0.5597100000000 1.0
C      1  0.5749760000000  0.4861660000000  0.5020780000000 1.0
C      1  0.6106910000000  0.5148960000000  0.5232480000000 1.0
C      1  0.4986490000000  0.5157430000000  0.5193270000000 1.0
C      1  0.5769060000000  0.5406580000000  0.5652080000000 1.0
C      1  0.4206220000000  0.4601430000000  0.4707740000000 1.0
C      1  0.5008990000000  0.4505170000000  0.4310470000000 1.0
C      1  0.4923310000000  0.4541100000000  0.4823930000000 1.0
C      1  0.4717830000000  0.4238080000000  0.4255830000000 1.0
C      1  0.5290110000000  0.6062590000000  0.4632480000000 1.0
C      1  0.5303240000000  0.5100210000000  0.5261780000000 1.0
C      1  0.4779760000000  0.5574000000000  0.4737370000000 1.0
C      1  0.6059750000000  0.4965090000000  0.4991960000000 1.0
C      1  0.4736310000000  0.4521690000000  0.4105340000000 1.0
C      1  0.4295050000000  0.4289750000000  0.4580610000000 1.0
C      1  0.5676170000000  0.4704020000000  0.5293760000000 1.0
C      1  0.4538470000000  0.4430270000000  0.5941860000000 1.0
C      1  0.5628380000000  0.4678770000000  0.4440580000000 1.0
C      1  0.4021340000000  0.4437510000000  0.4939490000000 1.0
C      1  0.5661230000000  0.4660880000000  0.4103680000000 1.0
END
