TITL C-2778432-5617-186 0.00343541053964475 125000 -548.987170079108 0 0 96 (C1) n - 1
REM
REM in /home/nfs/bkarasulu/CARBON/AIRSS/Generating-Clusters/REBO/Only-C1/SD-CG/HFTN-CG
REM
REM
REM
REM
REM
REM ./C.cell (11c1c37f851c82e70ff6c80c92926a4b)
REM
REM compiler GCC version 9.2.1 20190827 (Red Hat 9.2.1-1)
REM options -cpp -mtune=generic -march=x86-64 -g -O0 -fpre-include=/usr/include/finclude/math-vector-fortran.h
REM seed -2105524982 103263386 -716473653 -1179483082 965815522 2068032492 -1412027740 -1106870385 -1852748630 -1475279408 -998866405 1753923815 1329522942 655913459 319104702 -359438956 1482439588 690405269 1167082023 -1049999570 -175403559 -1016617272 -950599699 -1379320054 1687980444 -454477534 -156535034 547145898 -1100566242 1579818913 826377967 1691623940 -1667247524
REM
CELL 1.54180   50.00000   50.00000   50.00000   90.00000   90.00000   90.00000
LATT -1
SFAC C  
C      1  0.5047960000000  0.4178960000000  0.4544870000000 1.0
C      1  0.5127220000000  0.5998620000000  0.5721050000000 1.0
C      1  0.4792650000000  0.4192690000000  0.5007900000000 1.0
C      1  0.4764860000000  0.4514060000000  0.4298940000000 1.0
C      1  0.4891900000000  0.5310450000000  0.5426100000000 1.0
C      1  0.4266870000000  0.4724160000000  0.4888500000000 1.0
C      1  0.5317830000000  0.4920860000000  0.4350800000000 1.0
C      1  0.4337110000000  0.4959750000000  0.4670890000000 1.0
C      1  0.5109180000000  0.4159290000000  0.5124150000000 1.0
C      1  0.4095530000000  0.5239290000000  0.4823690000000 1.0
C      1  0.4481320000000  0.5254690000000  0.4730330000000 1.0
C      1  0.5045660000000  0.5100830000000  0.4751530000000 1.0
C      1  0.4667440000000  0.5064310000000  0.4869020000000 1.0
C      1  0.4930600000000  0.5582000000000  0.4854470000000 1.0
C      1  0.4933350000000  0.4389110000000  0.5427530000000 1.0
C      1  0.5260200000000  0.4627580000000  0.4320960000000 1.0
C      1  0.5755550000000  0.4208890000000  0.4581610000000 1.0
C      1  0.5505380000000  0.5250300000000  0.5281370000000 1.0
C      1  0.4675400000000  0.5456310000000  0.4292160000000 1.0
C      1  0.5637460000000  0.5592180000000  0.5616290000000 1.0
C      1  0.5339950000000  0.5362970000000  0.4790690000000 1.0
C      1  0.4451560000000  0.4288430000000  0.4703290000000 1.0
C      1  0.4776050000000  0.4241690000000  0.4379030000000 1.0
C      1  0.5871530000000  0.4946820000000  0.5565390000000 1.0
C      1  0.5078060000000  0.5033150000000  0.5830290000000 1.0
C      1  0.5597810000000  0.4432530000000  0.4639420000000 1.0
C      1  0.4784940000000  0.4853990000000  0.5809590000000 1.0
C      1  0.5417450000000  0.5079600000000  0.5771290000000 1.0
C      1  0.4636420000000  0.4640110000000  0.5302470000000 1.0
C      1  0.4754950000000  0.4537640000000  0.5677830000000 1.0
C      1  0.4438990000000  0.5396610000000  0.4437850000000 1.0
C      1  0.5718390000000  0.4703700000000  0.4554220000000 1.0
C      1  0.5291350000000  0.4419080000000  0.4547380000000 1.0
C      1  0.4568660000000  0.4917660000000  0.5135450000000 1.0
C      1  0.5028150000000  0.4679420000000  0.4939790000000 1.0
C      1  0.4687420000000  0.5509350000000  0.5302150000000 1.0
C      1  0.5421590000000  0.4209700000000  0.5056760000000 1.0
C      1  0.4983920000000  0.4589800000000  0.4146870000000 1.0
C      1  0.4851010000000  0.4843700000000  0.4697260000000 1.0
C      1  0.4350440000000  0.4405590000000  0.4978250000000 1.0
C      1  0.5120350000000  0.4326870000000  0.4828200000000 1.0
C      1  0.5599290000000  0.4001300000000  0.5095140000000 1.0
C      1  0.4448810000000  0.4884730000000  0.5427940000000 1.0
C      1  0.4974030000000  0.4753400000000  0.5566390000000 1.0
C      1  0.5057090000000  0.4950370000000  0.5322370000000 1.0
C      1  0.5343670000000  0.5053820000000  0.4635050000000 1.0
C      1  0.5251250000000  0.4520350000000  0.3996440000000 1.0
C      1  0.4561040000000  0.5869630000000  0.5048380000000 1.0
C      1  0.5749510000000  0.5288720000000  0.4909050000000 1.0
C      1  0.4873230000000  0.4481690000000  0.5139030000000 1.0
C      1  0.5187450000000  0.5507160000000  0.5603580000000 1.0
C      1  0.4945660000000  0.5428280000000  0.4388840000000 1.0
C      1  0.4938190000000  0.5375220000000  0.4672130000000 1.0
C      1  0.4544290000000  0.5018500000000  0.5709970000000 1.0
C      1  0.5061020000000  0.5874600000000  0.4852810000000 1.0
C      1  0.5209930000000  0.5811350000000  0.5533140000000 1.0
C      1  0.5093310000000  0.4033780000000  0.5376420000000 1.0
C      1  0.5310480000000  0.5879900000000  0.5040980000000 1.0
C      1  0.5656890000000  0.4961800000000  0.4556920000000 1.0
C      1  0.5210460000000  0.5176440000000  0.5027870000000 1.0
C      1  0.4783070000000  0.5972680000000  0.4927780000000 1.0
C      1  0.4295170000000  0.5164420000000  0.5518470000000 1.0
C      1  0.5521260000000  0.5790600000000  0.5460640000000 1.0
C      1  0.5091550000000  0.5827710000000  0.5248070000000 1.0
C      1  0.5685120000000  0.5259270000000  0.4623260000000 1.0
C      1  0.4639670000000  0.5316480000000  0.5649010000000 1.0
C      1  0.5710650000000  0.4967980000000  0.5785640000000 1.0
C      1  0.4110170000000  0.4996970000000  0.4996860000000 1.0
C      1  0.5177610000000  0.5329380000000  0.5308830000000 1.0
C      1  0.4959500000000  0.5319400000000  0.5755700000000 1.0
C      1  0.4406570000000  0.5605780000000  0.5156630000000 1.0
C      1  0.5260440000000  0.4890860000000  0.5575940000000 1.0
C      1  0.4440730000000  0.4579560000000  0.4634050000000 1.0
C      1  0.4395780000000  0.5465690000000  0.5466250000000 1.0
C      1  0.4298880000000  0.5441260000000  0.4938660000000 1.0
C      1  0.5484470000000  0.4453470000000  0.4931350000000 1.0
C      1  0.4522190000000  0.4280230000000  0.5175250000000 1.0
C      1  0.4147480000000  0.5270770000000  0.4512360000000 1.0
C      1  0.5435020000000  0.5420350000000  0.4495190000000 1.0
C      1  0.5222320000000  0.5376170000000  0.4291260000000 1.0
C      1  0.5211640000000  0.5075750000000  0.3892960000000 1.0
C      1  0.4897130000000  0.5657870000000  0.5145860000000 1.0
C      1  0.4539580000000  0.4374240000000  0.5470450000000 1.0
C      1  0.4672320000000  0.4681020000000  0.4511780000000 1.0
C      1  0.4896950000000  0.4934090000000  0.5082380000000 1.0
C      1  0.4158810000000  0.4970580000000  0.4427520000000 1.0
C      1  0.5461310000000  0.5328860000000  0.5595450000000 1.0
C      1  0.5338260000000  0.4692220000000  0.4993820000000 1.0
C      1  0.5753760000000  0.5031730000000  0.5060010000000 1.0
C      1  0.5440910000000  0.4961590000000  0.5098220000000 1.0
C      1  0.5548980000000  0.5758880000000  0.5169310000000 1.0
C      1  0.4120280000000  0.5044390000000  0.5267420000000 1.0
C      1  0.5901430000000  0.4972760000000  0.5295180000000 1.0
C      1  0.4745550000000  0.4161230000000  0.4708000000000 1.0
C      1  0.5257630000000  0.5118080000000  0.4156340000000 1.0
C      1  0.5639750000000  0.5493890000000  0.5095960000000 1.0
END
