TITL C-2778426-5645-458 0.00529530626277838 125000 -1131.71897520969 0 0 193 (C1) n - 1
REM
REM in /home/nfs/bkarasulu/CARBON/AIRSS/Generating-Clusters/REBO/Only-C1/SD-CG/HFTN-CG
REM
REM
REM
REM
REM
REM ./C.cell (11c1c37f851c82e70ff6c80c92926a4b)
REM
REM compiler GCC version 9.2.1 20190827 (Red Hat 9.2.1-1)
REM options -cpp -mtune=generic -march=x86-64 -g -O0 -fpre-include=/usr/include/finclude/math-vector-fortran.h
REM seed 472509552 -1511663213 -1108445356 -804420027 -199775054 -2038910154 -1231184770 -476992021 -1459924545 1349662763 -1215063161 1964282966 1583298363 336651907 -82780420 -2035859258 -1087951804 1116078435 -1699741041 -968484713 1602090610 -114792994 -95586943 703563342 -1941591 -116183679 314064543 -1416996516 1254399151 -906925646 762361882 -1474774304 -1575868596
REM
CELL 1.54180   50.00000   50.00000   50.00000   90.00000   90.00000   90.00000
LATT -1
SFAC C  
C      1  0.4723810000000  0.4241290000000  0.5167760000000 1.0
C      1  0.4325820000000  0.4669940000000  0.5126160000000 1.0
C      1  0.4952220000000  0.4779510000000  0.5868200000000 1.0
C      1  0.5139850000000  0.3988180000000  0.4449770000000 1.0
C      1  0.5641230000000  0.5640370000000  0.4971840000000 1.0
C      1  0.5153260000000  0.5834000000000  0.5788240000000 1.0
C      1  0.5898080000000  0.4110610000000  0.4953200000000 1.0
C      1  0.5313560000000  0.4417540000000  0.5071780000000 1.0
C      1  0.5584790000000  0.5388560000000  0.5782670000000 1.0
C      1  0.4787710000000  0.4383020000000  0.4416810000000 1.0
C      1  0.5001120000000  0.4800060000000  0.4746770000000 1.0
C      1  0.4804510000000  0.5567770000000  0.4452150000000 1.0
C      1  0.5315590000000  0.5820910000000  0.4512860000000 1.0
C      1  0.6072920000000  0.4740360000000  0.4506300000000 1.0
C      1  0.5467420000000  0.5915120000000  0.4739060000000 1.0
C      1  0.5299100000000  0.5157830000000  0.5938350000000 1.0
C      1  0.4865680000000  0.5094480000000  0.3833500000000 1.0
C      1  0.5190160000000  0.3979690000000  0.4750320000000 1.0
C      1  0.4464570000000  0.4752060000000  0.5381140000000 1.0
C      1  0.4347110000000  0.5503580000000  0.4480230000000 1.0
C      1  0.5152410000000  0.6115330000000  0.5279910000000 1.0
C      1  0.4634930000000  0.3924180000000  0.4602940000000 1.0
C      1  0.5555280000000  0.4464530000000  0.5464560000000 1.0
C      1  0.4027080000000  0.5203840000000  0.4474590000000 1.0
C      1  0.4587010000000  0.5057580000000  0.5930680000000 1.0
C      1  0.5421870000000  0.6088590000000  0.5485700000000 1.0
C      1  0.4923760000000  0.5541300000000  0.4132000000000 1.0
C      1  0.5057290000000  0.5003910000000  0.6079090000000 1.0
C      1  0.4753830000000  0.4830080000000  0.5302810000000 1.0
C      1  0.4514200000000  0.4388970000000  0.4209290000000 1.0
C      1  0.5515920000000  0.5982080000000  0.5719550000000 1.0
C      1  0.4393220000000  0.5476260000000  0.4179550000000 1.0
C      1  0.5349800000000  0.4440410000000  0.4767530000000 1.0
C      1  0.4567580000000  0.3870720000000  0.4895570000000 1.0
C      1  0.4693620000000  0.5440700000000  0.5962040000000 1.0
C      1  0.3868380000000  0.5074140000000  0.5128400000000 1.0
C      1  0.5403890000000  0.3918240000000  0.4924450000000 1.0
C      1  0.4145660000000  0.4538330000000  0.5491810000000 1.0
C      1  0.4960070000000  0.5633160000000  0.4714270000000 1.0
C      1  0.5172490000000  0.5011240000000  0.5486940000000 1.0
C      1  0.4045600000000  0.5367690000000  0.4723950000000 1.0
C      1  0.5890550000000  0.4484090000000  0.5408530000000 1.0
C      1  0.6173590000000  0.4807650000000  0.5035350000000 1.0
C      1  0.4964420000000  0.5259500000000  0.5258300000000 1.0
C      1  0.3935180000000  0.5028890000000  0.5461640000000 1.0
C      1  0.4876070000000  0.6024110000000  0.5355580000000 1.0
C      1  0.5328410000000  0.4731230000000  0.3857240000000 1.0
C      1  0.4896720000000  0.5118720000000  0.4754990000000 1.0
C      1  0.4257030000000  0.4611750000000  0.4575710000000 1.0
C      1  0.4526540000000  0.4761640000000  0.4885820000000 1.0
C      1  0.5268110000000  0.5516630000000  0.4454840000000 1.0
C      1  0.4377820000000  0.4965130000000  0.4718910000000 1.0
C      1  0.3922150000000  0.4942870000000  0.4538850000000 1.0
C      1  0.5051390000000  0.4417500000000  0.4209920000000 1.0
C      1  0.4284250000000  0.4059640000000  0.4920680000000 1.0
C      1  0.5266410000000  0.4985140000000  0.4691740000000 1.0
C      1  0.4196180000000  0.5142750000000  0.4916630000000 1.0
C      1  0.5095970000000  0.5376700000000  0.4800680000000 1.0
C      1  0.4516850000000  0.5532240000000  0.5515710000000 1.0
C      1  0.5628840000000  0.5034930000000  0.5232950000000 1.0
C      1  0.5743410000000  0.5944170000000  0.4732910000000 1.0
C      1  0.5236570000000  0.5736210000000  0.5501380000000 1.0
C      1  0.4395910000000  0.4885340000000  0.4416190000000 1.0
C      1  0.4597000000000  0.3977350000000  0.5438960000000 1.0
C      1  0.5413480000000  0.4415940000000  0.4377970000000 1.0
C      1  0.4137690000000  0.4613570000000  0.4842910000000 1.0
C      1  0.4632940000000  0.4528660000000  0.4683880000000 1.0
C      1  0.5769030000000  0.4205730000000  0.5253040000000 1.0
C      1  0.5242930000000  0.4169310000000  0.4253790000000 1.0
C      1  0.5142700000000  0.5195350000000  0.4451300000000 1.0
C      1  0.5599530000000  0.4726260000000  0.4040210000000 1.0
C      1  0.5213790000000  0.4694610000000  0.4174680000000 1.0
C      1  0.5646710000000  0.4010460000000  0.4810100000000 1.0
C      1  0.4818980000000  0.5579910000000  0.5464860000000 1.0
C      1  0.5696490000000  0.5582960000000  0.4319340000000 1.0
C      1  0.5639040000000  0.5587910000000  0.4585170000000 1.0
C      1  0.5148540000000  0.5432880000000  0.5087280000000 1.0
C      1  0.5382150000000  0.4944570000000  0.5011510000000 1.0
C      1  0.4466240000000  0.5419240000000  0.5791300000000 1.0
C      1  0.5765600000000  0.5230020000000  0.5554060000000 1.0
C      1  0.5373400000000  0.4874890000000  0.4388680000000 1.0
C      1  0.4893820000000  0.4772630000000  0.4126790000000 1.0
C      1  0.4310320000000  0.4657830000000  0.4183310000000 1.0
C      1  0.4581450000000  0.5816680000000  0.4401170000000 1.0
C      1  0.4627620000000  0.5647610000000  0.4107440000000 1.0
C      1  0.5768490000000  0.4691730000000  0.5100490000000 1.0
C      1  0.5568420000000  0.5324100000000  0.5306200000000 1.0
C      1  0.4523110000000  0.5575750000000  0.5036980000000 1.0
C      1  0.5675360000000  0.5322930000000  0.4208290000000 1.0
C      1  0.4021040000000  0.4780110000000  0.5166150000000 1.0
C      1  0.5199010000000  0.5726860000000  0.5208880000000 1.0
C      1  0.4990630000000  0.4199510000000  0.4876070000000 1.0
C      1  0.6086160000000  0.4936750000000  0.4750650000000 1.0
C      1  0.5060690000000  0.5061400000000  0.4180740000000 1.0
C      1  0.4861760000000  0.3917710000000  0.5469950000000 1.0
C      1  0.4906260000000  0.5621790000000  0.5870700000000 1.0
C      1  0.5666100000000  0.4922260000000  0.5552730000000 1.0
C      1  0.4896900000000  0.4918410000000  0.5570210000000 1.0
C      1  0.5594670000000  0.4914460000000  0.6065860000000 1.0
C      1  0.5166930000000  0.4580460000000  0.4556120000000 1.0
C      1  0.4033500000000  0.4729430000000  0.4367680000000 1.0
C      1  0.5314400000000  0.6036550000000  0.4984220000000 1.0
C      1  0.4778380000000  0.4466130000000  0.4027940000000 1.0
C      1  0.5137190000000  0.4969580000000  0.3878710000000 1.0
C      1  0.6106650000000  0.5324240000000  0.5228090000000 1.0
C      1  0.5648230000000  0.4595300000000  0.4733830000000 1.0
C      1  0.4982770000000  0.5814840000000  0.4984290000000 1.0
C      1  0.4572740000000  0.4732850000000  0.4015430000000 1.0
C      1  0.5902290000000  0.4537190000000  0.4433100000000 1.0
C      1  0.4088710000000  0.5877380000000  0.5007670000000 1.0
C      1  0.4642820000000  0.5045230000000  0.3982190000000 1.0
C      1  0.4622900000000  0.5973330000000  0.5216270000000 1.0
C      1  0.3918340000000  0.5332820000000  0.5346910000000 1.0
C      1  0.4957040000000  0.6135140000000  0.4586730000000 1.0
C      1  0.5410590000000  0.5285500000000  0.4054870000000 1.0
C      1  0.5757600000000  0.5114970000000  0.4393890000000 1.0
C      1  0.5179000000000  0.4649650000000  0.5657210000000 1.0
C      1  0.5460650000000  0.5459310000000  0.5082830000000 1.0
C      1  0.5146640000000  0.4099240000000  0.5518510000000 1.0
C      1  0.4147800000000  0.4353450000000  0.5293570000000 1.0
C      1  0.5487690000000  0.5907270000000  0.5229410000000 1.0
C      1  0.4438130000000  0.4529700000000  0.5632030000000 1.0
C      1  0.4800640000000  0.5184420000000  0.6089510000000 1.0
C      1  0.4863960000000  0.4114900000000  0.4570480000000 1.0
C      1  0.4798110000000  0.5236390000000  0.4451000000000 1.0
C      1  0.5884960000000  0.5499540000000  0.4785520000000 1.0
C      1  0.6005040000000  0.4791850000000  0.5317650000000 1.0
C      1  0.4406070000000  0.4151220000000  0.5225640000000 1.0
C      1  0.5603730000000  0.5213990000000  0.6055310000000 1.0
C      1  0.5192890000000  0.5452010000000  0.4150130000000 1.0
C      1  0.3911600000000  0.4870730000000  0.4855470000000 1.0
C      1  0.5152040000000  0.6029490000000  0.4406880000000 1.0
C      1  0.4485740000000  0.4797720000000  0.5987400000000 1.0
C      1  0.5796770000000  0.5796950000000  0.5191270000000 1.0
C      1  0.5313210000000  0.3926530000000  0.5193810000000 1.0
C      1  0.4655980000000  0.5216410000000  0.5314940000000 1.0
C      1  0.4630250000000  0.5089620000000  0.5629370000000 1.0
C      1  0.5416430000000  0.5355460000000  0.4697780000000 1.0
C      1  0.4795010000000  0.4465030000000  0.4935670000000 1.0
C      1  0.4879560000000  0.4258500000000  0.5667750000000 1.0
C      1  0.4804870000000  0.5623480000000  0.5160020000000 1.0
C      1  0.4500800000000  0.5293210000000  0.4934800000000 1.0
C      1  0.5448260000000  0.4681080000000  0.5222970000000 1.0
C      1  0.6008670000000  0.5118510000000  0.5385390000000 1.0
C      1  0.5461620000000  0.5000990000000  0.4109970000000 1.0
C      1  0.4146730000000  0.5442740000000  0.5041950000000 1.0
C      1  0.4343540000000  0.5333670000000  0.5298470000000 1.0
C      1  0.5056080000000  0.4315040000000  0.5194500000000 1.0
C      1  0.5459030000000  0.4146650000000  0.5387560000000 1.0
C      1  0.5110090000000  0.4961860000000  0.5178230000000 1.0
C      1  0.4032930000000  0.4812700000000  0.5603430000000 1.0
C      1  0.5039660000000  0.3853990000000  0.5221580000000 1.0
C      1  0.5666570000000  0.4557780000000  0.4262040000000 1.0
C      1  0.5370620000000  0.5283690000000  0.5539840000000 1.0
C      1  0.4932830000000  0.4712360000000  0.5052880000000 1.0
C      1  0.5195940000000  0.5445060000000  0.5856000000000 1.0
C      1  0.5859790000000  0.4326570000000  0.4691460000000 1.0
C      1  0.5719030000000  0.4768280000000  0.5838030000000 1.0
C      1  0.5014510000000  0.6115620000000  0.4885770000000 1.0
C      1  0.4312340000000  0.5773790000000  0.4580600000000 1.0
C      1  0.5546380000000  0.4536200000000  0.5766200000000 1.0
C      1  0.4696180000000  0.5030600000000  0.5016750000000 1.0
C      1  0.4249150000000  0.4730920000000  0.5820930000000 1.0
C      1  0.4402080000000  0.4352960000000  0.4508600000000 1.0
C      1  0.6008160000000  0.5556230000000  0.5093110000000 1.0
C      1  0.4596420000000  0.5951880000000  0.4925240000000 1.0
C      1  0.4712420000000  0.4616900000000  0.5957160000000 1.0
C      1  0.4423910000000  0.5285920000000  0.4625160000000 1.0
C      1  0.4131010000000  0.4329640000000  0.4998390000000 1.0
C      1  0.5089600000000  0.4431630000000  0.5493150000000 1.0
C      1  0.4067050000000  0.5616190000000  0.5313000000000 1.0
C      1  0.4323340000000  0.5803120000000  0.4878720000000 1.0
C      1  0.4758810000000  0.5902870000000  0.4665370000000 1.0
C      1  0.5630400000000  0.4859710000000  0.4586060000000 1.0
C      1  0.4771270000000  0.3936290000000  0.5081560000000 1.0
C      1  0.4663620000000  0.4391810000000  0.5780670000000 1.0
C      1  0.5651420000000  0.4407030000000  0.5022910000000 1.0
C      1  0.4383100000000  0.5743060000000  0.5303190000000 1.0
C      1  0.5306160000000  0.4567600000000  0.5948710000000 1.0
C      1  0.4374010000000  0.4076510000000  0.4615700000000 1.0
C      1  0.5553650000000  0.4229760000000  0.4607180000000 1.0
C      1  0.4873800000000  0.5854550000000  0.5618240000000 1.0
C      1  0.5816690000000  0.4968550000000  0.4955760000000 1.0
C      1  0.5377250000000  0.4922260000000  0.5705860000000 1.0
C      1  0.5447690000000  0.5675720000000  0.5835660000000 1.0
C      1  0.4272220000000  0.5219840000000  0.5749750000000 1.0
C      1  0.5051980000000  0.5385880000000  0.5553060000000 1.0
C      1  0.4556420000000  0.5124230000000  0.4274760000000 1.0
C      1  0.5620270000000  0.5149650000000  0.4764970000000 1.0
C      1  0.4334430000000  0.5039310000000  0.5470460000000 1.0
C      1  0.4222450000000  0.5204180000000  0.4251840000000 1.0
C      1  0.5941520000000  0.5209240000000  0.4663930000000 1.0
C      1  0.5327370000000  0.4801260000000  0.6116510000000 1.0
END
