TITL C-2778432-5617-166 0.00431118656022092 125000 -561.098389620456 0 0 96 (C1) n - 1
REM
REM in /home/nfs/bkarasulu/CARBON/AIRSS/Generating-Clusters/REBO/Only-C1/SD-CG/HFTN-CG
REM
REM
REM
REM
REM
REM ./C.cell (11c1c37f851c82e70ff6c80c92926a4b)
REM
REM compiler GCC version 9.2.1 20190827 (Red Hat 9.2.1-1)
REM options -cpp -mtune=generic -march=x86-64 -g -O0 -fpre-include=/usr/include/finclude/math-vector-fortran.h
REM seed 2057248291 1448148555 -1148599048 36942043 -1081798379 1271094140 -1458476441 -2120796416 -753803190 1300609866 -712756086 -996593914 -102385612 1693929759 -1079642968 -796733476 1236233640 1749581590 1578102194 1164971844 786888476 -1546733821 -296529597 206433653 1215867202 1215785074 541627378 -227458911 -329199352 269982944 149786373 1555840185 161673191
REM
CELL 1.54180   50.00000   50.00000   50.00000   90.00000   90.00000   90.00000
LATT -1
SFAC C  
C      1  0.4671830000000  0.5187510000000  0.5815280000000 1.0
C      1  0.5743030000000  0.5641040000000  0.5017790000000 1.0
C      1  0.5261890000000  0.4285150000000  0.4677430000000 1.0
C      1  0.4465180000000  0.5581520000000  0.5400740000000 1.0
C      1  0.5077730000000  0.4882890000000  0.4003300000000 1.0
C      1  0.4897210000000  0.4487060000000  0.4221130000000 1.0
C      1  0.4982650000000  0.5543840000000  0.5741960000000 1.0
C      1  0.5397160000000  0.5370710000000  0.5572120000000 1.0
C      1  0.4852080000000  0.5962030000000  0.5106800000000 1.0
C      1  0.4701090000000  0.4480180000000  0.5667810000000 1.0
C      1  0.4626040000000  0.4905860000000  0.5866360000000 1.0
C      1  0.5301150000000  0.5258280000000  0.4835290000000 1.0
C      1  0.4340840000000  0.4870280000000  0.5846000000000 1.0
C      1  0.5485020000000  0.4783430000000  0.4862790000000 1.0
C      1  0.5783910000000  0.4406310000000  0.5052340000000 1.0
C      1  0.5292580000000  0.4447080000000  0.4197280000000 1.0
C      1  0.4523140000000  0.4928350000000  0.4253070000000 1.0
C      1  0.4611800000000  0.5433510000000  0.4830690000000 1.0
C      1  0.5414060000000  0.4298770000000  0.5374200000000 1.0
C      1  0.4218690000000  0.5446750000000  0.4901500000000 1.0
C      1  0.5108670000000  0.4304190000000  0.4419210000000 1.0
C      1  0.4949370000000  0.4990430000000  0.5238160000000 1.0
C      1  0.5395150000000  0.4815390000000  0.5561690000000 1.0
C      1  0.5070780000000  0.4498470000000  0.5025500000000 1.0
C      1  0.5083130000000  0.4339690000000  0.5307000000000 1.0
C      1  0.5031440000000  0.4964940000000  0.5501650000000 1.0
C      1  0.5219690000000  0.4459450000000  0.5589960000000 1.0
C      1  0.4239930000000  0.4758280000000  0.4985110000000 1.0
C      1  0.4507720000000  0.5203090000000  0.5029910000000 1.0
C      1  0.5837200000000  0.5372500000000  0.4986090000000 1.0
C      1  0.4692760000000  0.4565490000000  0.5136710000000 1.0
C      1  0.4995780000000  0.5863270000000  0.4662840000000 1.0
C      1  0.5224600000000  0.5033710000000  0.4693230000000 1.0
C      1  0.5046890000000  0.5008380000000  0.4256000000000 1.0
C      1  0.4665740000000  0.4629710000000  0.4244620000000 1.0
C      1  0.5562170000000  0.4955850000000  0.5100730000000 1.0
C      1  0.6066570000000  0.4945660000000  0.5067610000000 1.0
C      1  0.4650930000000  0.5439810000000  0.4125650000000 1.0
C      1  0.5099030000000  0.4599660000000  0.4016180000000 1.0
C      1  0.4223310000000  0.5140080000000  0.5705160000000 1.0
C      1  0.4866270000000  0.4864680000000  0.4745980000000 1.0
C      1  0.4822290000000  0.4807180000000  0.5066800000000 1.0
C      1  0.5823030000000  0.4361280000000  0.4785110000000 1.0
C      1  0.4807490000000  0.4956800000000  0.4424550000000 1.0
C      1  0.5442970000000  0.4466160000000  0.4852310000000 1.0
C      1  0.4556290000000  0.4898800000000  0.4647400000000 1.0
C      1  0.5300020000000  0.5787100000000  0.5344970000000 1.0
C      1  0.5744720000000  0.4492820000000  0.4548150000000 1.0
C      1  0.5340280000000  0.5105570000000  0.5635290000000 1.0
C      1  0.4551270000000  0.5747810000000  0.4803480000000 1.0
C      1  0.5144370000000  0.5917220000000  0.5132670000000 1.0
C      1  0.5630880000000  0.4495240000000  0.5271760000000 1.0
C      1  0.4811760000000  0.4695490000000  0.5815240000000 1.0
C      1  0.4381320000000  0.4643850000000  0.4571530000000 1.0
C      1  0.5151860000000  0.4739850000000  0.4851650000000 1.0
C      1  0.4343220000000  0.5158930000000  0.4431570000000 1.0
C      1  0.4761270000000  0.5570710000000  0.5573460000000 1.0
C      1  0.4271160000000  0.5530210000000  0.5154750000000 1.0
C      1  0.4932270000000  0.5304740000000  0.5895000000000 1.0
C      1  0.5515770000000  0.4879350000000  0.4353390000000 1.0
C      1  0.5356700000000  0.5192510000000  0.5131250000000 1.0
C      1  0.5229690000000  0.5835420000000  0.4856270000000 1.0
C      1  0.5497810000000  0.5384600000000  0.5312180000000 1.0
C      1  0.5139150000000  0.4706790000000  0.5761690000000 1.0
C      1  0.4306040000000  0.4526980000000  0.4819940000000 1.0
C      1  0.4853010000000  0.4245930000000  0.4959170000000 1.0
C      1  0.5139000000000  0.4122590000000  0.4914130000000 1.0
C      1  0.4697890000000  0.5784640000000  0.5257140000000 1.0
C      1  0.5379780000000  0.4248050000000  0.5056120000000 1.0
C      1  0.4346010000000  0.5299890000000  0.4665590000000 1.0
C      1  0.4401360000000  0.4982920000000  0.4902710000000 1.0
C      1  0.5835050000000  0.5096480000000  0.5049380000000 1.0
C      1  0.4941510000000  0.5600720000000  0.4543430000000 1.0
C      1  0.4678830000000  0.4189680000000  0.4687510000000 1.0
C      1  0.5239220000000  0.5543420000000  0.4801460000000 1.0
C      1  0.5536500000000  0.4561590000000  0.4291390000000 1.0
C      1  0.5276870000000  0.5022660000000  0.4413280000000 1.0
C      1  0.4539960000000  0.4375780000000  0.4926610000000 1.0
C      1  0.4814810000000  0.4172300000000  0.4451370000000 1.0
C      1  0.4890570000000  0.4141340000000  0.5342820000000 1.0
C      1  0.4466210000000  0.5303220000000  0.5598700000000 1.0
C      1  0.5559550000000  0.4759970000000  0.5340410000000 1.0
C      1  0.4464120000000  0.5234220000000  0.4144770000000 1.0
C      1  0.4926730000000  0.5395440000000  0.4814220000000 1.0
C      1  0.4019680000000  0.4916200000000  0.5821920000000 1.0
C      1  0.5539330000000  0.5651330000000  0.5216130000000 1.0
C      1  0.5230830000000  0.5611660000000  0.5605620000000 1.0
C      1  0.4765250000000  0.5941890000000  0.4827480000000 1.0
C      1  0.4829840000000  0.5484830000000  0.5268550000000 1.0
C      1  0.5035890000000  0.5024720000000  0.5834530000000 1.0
C      1  0.5829630000000  0.5852670000000  0.4872510000000 1.0
C      1  0.5020500000000  0.5271200000000  0.5117340000000 1.0
C      1  0.4831730000000  0.5547760000000  0.4295280000000 1.0
C      1  0.4534390000000  0.5204630000000  0.5295590000000 1.0
C      1  0.5653210000000  0.4778920000000  0.4602380000000 1.0
C      1  0.4676900000000  0.4474640000000  0.5399220000000 1.0
END
