TITL C-2778424-3986-307 0.00283131343066378 125000 -1044.20712543205 0 0 184 (C1) n - 1
REM
REM in /home/nfs/bkarasulu/CARBON/AIRSS/Generating-Clusters/REBO/Only-C1/SD-CG/HFTN-CG
REM
REM
REM
REM
REM
REM ./C.cell (11c1c37f851c82e70ff6c80c92926a4b)
REM
REM compiler GCC version 9.2.1 20190827 (Red Hat 9.2.1-1)
REM options -cpp -mtune=generic -march=x86-64 -g -O0 -fpre-include=/usr/include/finclude/math-vector-fortran.h
REM seed -1650921254 472754828 -599240921 1828234831 -2101915429 2143193415 1761687334 55426920 658037819 -976595102 1465488490 1530330240 1156656174 2052732263 1650155022 -322302574 -1446915284 -1631026428 56417490 836145928 1322222555 -1800886342 1739717308 -595449593 -717262671 -1031302634 -2089015901 -208528759 367544908 1955666982 1048407561 -1428095444 -1456525072
REM
CELL 1.54180   50.00000   50.00000   50.00000   90.00000   90.00000   90.00000
LATT -1
SFAC C  
C      1  0.5394140000000  0.4812090000000  0.5018330000000 1.0
C      1  0.5038350000000  0.4530960000000  0.5163280000000 1.0
C      1  0.4781940000000  0.4289530000000  0.4667050000000 1.0
C      1  0.4234050000000  0.5146580000000  0.4417940000000 1.0
C      1  0.5138610000000  0.4667390000000  0.4617530000000 1.0
C      1  0.4581110000000  0.4090270000000  0.4385380000000 1.0
C      1  0.5323100000000  0.4219370000000  0.5782710000000 1.0
C      1  0.4559700000000  0.4002160000000  0.4867370000000 1.0
C      1  0.5191480000000  0.4246970000000  0.5165160000000 1.0
C      1  0.4717790000000  0.4842320000000  0.4007180000000 1.0
C      1  0.4062340000000  0.4821400000000  0.4705090000000 1.0
C      1  0.5452590000000  0.4530450000000  0.4603980000000 1.0
C      1  0.5640040000000  0.5092890000000  0.3995310000000 1.0
C      1  0.4938420000000  0.5907900000000  0.4330030000000 1.0
C      1  0.4733200000000  0.6243270000000  0.4756080000000 1.0
C      1  0.6058330000000  0.4613140000000  0.4856900000000 1.0
C      1  0.4503690000000  0.5525960000000  0.5365270000000 1.0
C      1  0.4942550000000  0.3784130000000  0.5099210000000 1.0
C      1  0.5007950000000  0.5355980000000  0.5146240000000 1.0
C      1  0.4917620000000  0.5427500000000  0.6007840000000 1.0
C      1  0.4776440000000  0.5739370000000  0.4868740000000 1.0
C      1  0.4466940000000  0.5937890000000  0.4546740000000 1.0
C      1  0.5209980000000  0.4555340000000  0.4913820000000 1.0
C      1  0.4505800000000  0.5211680000000  0.4258530000000 1.0
C      1  0.5242510000000  0.4293350000000  0.4694200000000 1.0
C      1  0.5434340000000  0.5736190000000  0.4565720000000 1.0
C      1  0.5353800000000  0.4659280000000  0.3978860000000 1.0
C      1  0.5054410000000  0.5891580000000  0.5339700000000 1.0
C      1  0.5573290000000  0.4633010000000  0.5322910000000 1.0
C      1  0.5670650000000  0.4190340000000  0.5347370000000 1.0
C      1  0.5201470000000  0.5505190000000  0.4661280000000 1.0
C      1  0.5360500000000  0.4992170000000  0.3958050000000 1.0
C      1  0.5460550000000  0.6230600000000  0.5043010000000 1.0
C      1  0.4684310000000  0.4703970000000  0.4293170000000 1.0
C      1  0.5474440000000  0.3968470000000  0.5180330000000 1.0
C      1  0.5205340000000  0.4897930000000  0.5579530000000 1.0
C      1  0.4487570000000  0.4706750000000  0.5737430000000 1.0
C      1  0.5051990000000  0.4340050000000  0.5630440000000 1.0
C      1  0.5370740000000  0.5960040000000  0.4917980000000 1.0
C      1  0.3975920000000  0.5069780000000  0.4894250000000 1.0
C      1  0.4554080000000  0.4391750000000  0.4250010000000 1.0
C      1  0.4291770000000  0.5050220000000  0.5784670000000 1.0
C      1  0.5216770000000  0.6167960000000  0.5259650000000 1.0
C      1  0.5207590000000  0.4558310000000  0.5950350000000 1.0
C      1  0.5253770000000  0.5274960000000  0.5349440000000 1.0
C      1  0.4888160000000  0.4177450000000  0.4298130000000 1.0
C      1  0.5379820000000  0.5502680000000  0.5133620000000 1.0
C      1  0.5000500000000  0.4628260000000  0.5547340000000 1.0
C      1  0.4733330000000  0.4321360000000  0.5940920000000 1.0
C      1  0.5968410000000  0.4313280000000  0.4719120000000 1.0
C      1  0.4265360000000  0.5742840000000  0.5287200000000 1.0
C      1  0.5629230000000  0.4494010000000  0.4355870000000 1.0
C      1  0.5360560000000  0.5437710000000  0.5857760000000 1.0
C      1  0.5978930000000  0.5109300000000  0.5107560000000 1.0
C      1  0.4457400000000  0.5138180000000  0.4749300000000 1.0
C      1  0.4116680000000  0.5467770000000  0.5423180000000 1.0
C      1  0.5937330000000  0.4699580000000  0.5460350000000 1.0
C      1  0.4343530000000  0.5130460000000  0.5036770000000 1.0
C      1  0.4676590000000  0.4703490000000  0.5473410000000 1.0
C      1  0.4335760000000  0.4261870000000  0.5167480000000 1.0
C      1  0.4661240000000  0.4807180000000  0.5960490000000 1.0
C      1  0.4592010000000  0.5761440000000  0.5675290000000 1.0
C      1  0.4590600000000  0.5092390000000  0.5643080000000 1.0
C      1  0.4873060000000  0.4607770000000  0.5987430000000 1.0
C      1  0.5135660000000  0.4947330000000  0.4901800000000 1.0
C      1  0.5123970000000  0.5860070000000  0.5022040000000 1.0
C      1  0.5143160000000  0.5598350000000  0.5942020000000 1.0
C      1  0.5691990000000  0.5386300000000  0.5131310000000 1.0
C      1  0.4525790000000  0.4324020000000  0.4890980000000 1.0
C      1  0.4143380000000  0.4863520000000  0.4382540000000 1.0
C      1  0.5509810000000  0.5643470000000  0.5567140000000 1.0
C      1  0.4375770000000  0.4545710000000  0.5456510000000 1.0
C      1  0.4871810000000  0.5430870000000  0.3966380000000 1.0
C      1  0.4901580000000  0.6227180000000  0.5186670000000 1.0
C      1  0.4393240000000  0.4986480000000  0.5403670000000 1.0
C      1  0.5613640000000  0.4213290000000  0.5642890000000 1.0
C      1  0.4715820000000  0.5487170000000  0.4456760000000 1.0
C      1  0.5724270000000  0.5717740000000  0.5235650000000 1.0
C      1  0.4867090000000  0.4519540000000  0.4503930000000 1.0
C      1  0.5054780000000  0.5168300000000  0.6071050000000 1.0
C      1  0.4951160000000  0.4118990000000  0.5456270000000 1.0
C      1  0.5059370000000  0.4607390000000  0.4236820000000 1.0
C      1  0.5655450000000  0.4858180000000  0.4505040000000 1.0
C      1  0.4318470000000  0.5671670000000  0.4503610000000 1.0
C      1  0.4539180000000  0.5984130000000  0.4879040000000 1.0
C      1  0.5736090000000  0.4150720000000  0.4783450000000 1.0
C      1  0.5578660000000  0.4407710000000  0.4870720000000 1.0
C      1  0.4848900000000  0.4808860000000  0.4948390000000 1.0
C      1  0.4093770000000  0.5269360000000  0.4649710000000 1.0
C      1  0.4281160000000  0.5784440000000  0.4977810000000 1.0
C      1  0.4975690000000  0.4019300000000  0.4592340000000 1.0
C      1  0.5544630000000  0.6005410000000  0.5273670000000 1.0
C      1  0.4660820000000  0.5779700000000  0.4327590000000 1.0
C      1  0.5506120000000  0.5341090000000  0.4277250000000 1.0
C      1  0.4521820000000  0.5035460000000  0.3988610000000 1.0
C      1  0.5103020000000  0.4920010000000  0.4390710000000 1.0
C      1  0.4527570000000  0.4228810000000  0.5795100000000 1.0
C      1  0.4389430000000  0.5461150000000  0.4968250000000 1.0
C      1  0.5317330000000  0.3993860000000  0.4549090000000 1.0
C      1  0.4655870000000  0.6058640000000  0.5197450000000 1.0
C      1  0.4142070000000  0.5567360000000  0.4754560000000 1.0
C      1  0.5788050000000  0.5471260000000  0.4395920000000 1.0
C      1  0.4124210000000  0.5127640000000  0.5414140000000 1.0
C      1  0.5725530000000  0.5674110000000  0.4580990000000 1.0
C      1  0.5878140000000  0.5230190000000  0.4570330000000 1.0
C      1  0.4969410000000  0.4915950000000  0.3929600000000 1.0
C      1  0.5072860000000  0.5835240000000  0.5813840000000 1.0
C      1  0.5637560000000  0.4905950000000  0.4833640000000 1.0
C      1  0.4647630000000  0.5494790000000  0.4139400000000 1.0
C      1  0.4900270000000  0.5794650000000  0.5563560000000 1.0
C      1  0.5736960000000  0.5089690000000  0.4299820000000 1.0
C      1  0.4776470000000  0.5025990000000  0.4356390000000 1.0
C      1  0.4808830000000  0.5143020000000  0.5015290000000 1.0
C      1  0.5128600000000  0.3943120000000  0.4889550000000 1.0
C      1  0.5052250000000  0.4521500000000  0.3942870000000 1.0
C      1  0.5567120000000  0.4984850000000  0.5756260000000 1.0
C      1  0.4348000000000  0.5523150000000  0.5668110000000 1.0
C      1  0.3953570000000  0.4929010000000  0.5203790000000 1.0
C      1  0.5187060000000  0.5952190000000  0.4551660000000 1.0
C      1  0.5510060000000  0.4496810000000  0.5803660000000 1.0
C      1  0.5341400000000  0.5131450000000  0.5965840000000 1.0
C      1  0.5866400000000  0.5603910000000  0.4845540000000 1.0
C      1  0.5694010000000  0.5219730000000  0.4851490000000 1.0
C      1  0.5848160000000  0.4458670000000  0.5235810000000 1.0
C      1  0.4429180000000  0.4229780000000  0.5492990000000 1.0
C      1  0.5343570000000  0.5762340000000  0.5345350000000 1.0
C      1  0.4375580000000  0.4689880000000  0.4650600000000 1.0
C      1  0.4596550000000  0.5058940000000  0.6041610000000 1.0
C      1  0.4511640000000  0.5921740000000  0.5404330000000 1.0
C      1  0.4980660000000  0.5354940000000  0.4492040000000 1.0
C      1  0.4088100000000  0.4389640000000  0.5135960000000 1.0
C      1  0.5483860000000  0.5324580000000  0.4608620000000 1.0
C      1  0.5706440000000  0.4934800000000  0.5232570000000 1.0
C      1  0.5774660000000  0.5204980000000  0.5611640000000 1.0
C      1  0.5415110000000  0.4403800000000  0.4178890000000 1.0
C      1  0.5303030000000  0.5238200000000  0.4933810000000 1.0
C      1  0.4818130000000  0.4359830000000  0.4037180000000 1.0
C      1  0.5434890000000  0.5253550000000  0.5601430000000 1.0
C      1  0.5206140000000  0.5700200000000  0.4313130000000 1.0
C      1  0.4495650000000  0.5422300000000  0.4644730000000 1.0
C      1  0.5751720000000  0.4642180000000  0.4964200000000 1.0
C      1  0.4871670000000  0.5975390000000  0.4658280000000 1.0
C      1  0.6065890000000  0.4782570000000  0.5152790000000 1.0
C      1  0.4532120000000  0.3930920000000  0.4595860000000 1.0
C      1  0.5468080000000  0.4366980000000  0.5154370000000 1.0
C      1  0.4091320000000  0.4426250000000  0.4739980000000 1.0
C      1  0.4672060000000  0.3896840000000  0.5107340000000 1.0
C      1  0.4938490000000  0.4217990000000  0.4937140000000 1.0
C      1  0.4825920000000  0.5243320000000  0.5621270000000 1.0
C      1  0.6038550000000  0.5398950000000  0.4940020000000 1.0
C      1  0.5200710000000  0.4247790000000  0.4355270000000 1.0
C      1  0.4369740000000  0.4805450000000  0.5115270000000 1.0
C      1  0.5113750000000  0.5203940000000  0.3978620000000 1.0
C      1  0.4092480000000  0.4723690000000  0.5391690000000 1.0
C      1  0.4807270000000  0.5500050000000  0.5464180000000 1.0
C      1  0.5954950000000  0.5033480000000  0.5438320000000 1.0
C      1  0.5241570000000  0.5093480000000  0.4631220000000 1.0
C      1  0.4867270000000  0.6385700000000  0.4948670000000 1.0
C      1  0.5467550000000  0.3971190000000  0.4854650000000 1.0
C      1  0.4776960000000  0.4363200000000  0.5192290000000 1.0
C      1  0.5644760000000  0.4714930000000  0.5643460000000 1.0
C      1  0.4063170000000  0.5299860000000  0.5131190000000 1.0
C      1  0.5571270000000  0.5738210000000  0.4940930000000 1.0
C      1  0.5874500000000  0.4603110000000  0.4565450000000 1.0
C      1  0.5165640000000  0.3943880000000  0.5287600000000 1.0
C      1  0.4845010000000  0.5103430000000  0.4678700000000 1.0
C      1  0.4989400000000  0.4820700000000  0.5261090000000 1.0
C      1  0.5414830000000  0.4847830000000  0.4263180000000 1.0
C      1  0.5057650000000  0.5578370000000  0.4911970000000 1.0
C      1  0.5378250000000  0.4975090000000  0.5314370000000 1.0
C      1  0.4611370000000  0.4619590000000  0.5039540000000 1.0
C      1  0.4420440000000  0.5322630000000  0.5918750000000 1.0
C      1  0.5067350000000  0.5115010000000  0.5675640000000 1.0
C      1  0.4169000000000  0.4803380000000  0.5677760000000 1.0
C      1  0.4727830000000  0.5536400000000  0.5129750000000 1.0
C      1  0.4315060000000  0.4581210000000  0.4361120000000 1.0
C      1  0.4666070000000  0.5524310000000  0.5907970000000 1.0
C      1  0.4581010000000  0.4879580000000  0.4668330000000 1.0
C      1  0.4134900000000  0.4658930000000  0.4978110000000 1.0
C      1  0.5193550000000  0.5390520000000  0.4227850000000 1.0
C      1  0.4665080000000  0.4107140000000  0.5331080000000 1.0
C      1  0.5738100000000  0.5469490000000  0.5459070000000 1.0
C      1  0.4693820000000  0.4975640000000  0.5274830000000 1.0
C      1  0.5049310000000  0.4253990000000  0.5963330000000 1.0
END
