TITL C-2778431-5191-415 -0.000136719404927014 125000 -439.305807579211 0 0 77 (C1) n - 1
REM
REM in /home/nfs/bkarasulu/CARBON/AIRSS/Generating-Clusters/REBO/Only-C1/SD-CG/HFTN-CG
REM
REM
REM
REM
REM
REM ./C.cell (11c1c37f851c82e70ff6c80c92926a4b)
REM
REM compiler GCC version 9.2.1 20190827 (Red Hat 9.2.1-1)
REM options -cpp -mtune=generic -march=x86-64 -g -O0 -fpre-include=/usr/include/finclude/math-vector-fortran.h
REM seed -1358934221 1590040369 -2059950968 1860673171 -307261350 2142722900 -1721222814 -1510863765 1713035824 382409853 1205911886 -205244699 -336110263 4000367 -1544085925 1491729006 -1643039633 -410541488 -1740693324 1567272670 840630666 -1619851175 -1099263275 -1345904727 598341132 1161055922 1185083247 -1556167543 -1473229386 -756126636 -780936769 -1265444124 -443917150
REM
CELL 1.54180   50.00000   50.00000   50.00000   90.00000   90.00000   90.00000
LATT -1
SFAC C  
C      1  0.5206660000000  0.5526500000000  0.5445660000000 1.0
C      1  0.5119750000000  0.5468600000000  0.4364080000000 1.0
C      1  0.4262990000000  0.5212230000000  0.5042430000000 1.0
C      1  0.5026540000000  0.5655720000000  0.4599840000000 1.0
C      1  0.5677730000000  0.5309380000000  0.5499450000000 1.0
C      1  0.5100190000000  0.4667810000000  0.4784570000000 1.0
C      1  0.5624080000000  0.4821190000000  0.4590410000000 1.0
C      1  0.4940480000000  0.6059230000000  0.5056710000000 1.0
C      1  0.5623680000000  0.5428940000000  0.4939920000000 1.0
C      1  0.5439630000000  0.4974630000000  0.4408970000000 1.0
C      1  0.5256000000000  0.4715470000000  0.4485680000000 1.0
C      1  0.4714490000000  0.5420860000000  0.5239720000000 1.0
C      1  0.5294950000000  0.5205530000000  0.4394700000000 1.0
C      1  0.4251020000000  0.4877700000000  0.4575750000000 1.0
C      1  0.4230500000000  0.4978760000000  0.4833150000000 1.0
C      1  0.4657140000000  0.5207820000000  0.4980610000000 1.0
C      1  0.5172900000000  0.5662250000000  0.4843470000000 1.0
C      1  0.5264030000000  0.4828670000000  0.5036870000000 1.0
C      1  0.4609280000000  0.5683030000000  0.5162900000000 1.0
C      1  0.4385720000000  0.5280420000000  0.4624830000000 1.0
C      1  0.4990630000000  0.4835880000000  0.4367410000000 1.0
C      1  0.4667430000000  0.5116250000000  0.5366170000000 1.0
C      1  0.5847550000000  0.5164180000000  0.5265320000000 1.0
C      1  0.4912610000000  0.5172580000000  0.4812740000000 1.0
C      1  0.5730220000000  0.4567110000000  0.5155010000000 1.0
C      1  0.4707890000000  0.4891780000000  0.4235230000000 1.0
C      1  0.4772500000000  0.4461330000000  0.4905480000000 1.0
C      1  0.4289590000000  0.4664730000000  0.5072090000000 1.0
C      1  0.5327760000000  0.5395290000000  0.4943130000000 1.0
C      1  0.4672130000000  0.5194490000000  0.4159580000000 1.0
C      1  0.4828190000000  0.4676930000000  0.5441880000000 1.0
C      1  0.5729120000000  0.4969380000000  0.4833940000000 1.0
C      1  0.4511050000000  0.4905470000000  0.4991990000000 1.0
C      1  0.4671820000000  0.4746990000000  0.4779860000000 1.0
C      1  0.4640770000000  0.5191020000000  0.4489950000000 1.0
C      1  0.4153910000000  0.4702540000000  0.5316150000000 1.0
C      1  0.5734490000000  0.5680550000000  0.4910680000000 1.0
C      1  0.5415540000000  0.5385850000000  0.5585010000000 1.0
C      1  0.5649660000000  0.4334010000000  0.5209530000000 1.0
C      1  0.4660870000000  0.4458850000000  0.4507330000000 1.0
C      1  0.4791370000000  0.4223940000000  0.5136470000000 1.0
C      1  0.5329700000000  0.4285480000000  0.4798770000000 1.0
C      1  0.5210340000000  0.4755800000000  0.5359290000000 1.0
C      1  0.4566270000000  0.5725470000000  0.4827260000000 1.0
C      1  0.5037210000000  0.4158440000000  0.4918870000000 1.0
C      1  0.5171450000000  0.5294460000000  0.4686460000000 1.0
C      1  0.4885430000000  0.5249920000000  0.5672260000000 1.0
C      1  0.4430580000000  0.5449110000000  0.4895210000000 1.0
C      1  0.4729650000000  0.5696780000000  0.4577290000000 1.0
C      1  0.5306920000000  0.5188600000000  0.5752280000000 1.0
C      1  0.5564920000000  0.4742660000000  0.4974980000000 1.0
C      1  0.4275670000000  0.4448860000000  0.4887720000000 1.0
C      1  0.5323230000000  0.4447080000000  0.5410230000000 1.0
C      1  0.4192490000000  0.4944070000000  0.5442670000000 1.0
C      1  0.5316210000000  0.4882570000000  0.5633210000000 1.0
C      1  0.5779650000000  0.5196330000000  0.4991510000000 1.0
C      1  0.5153370000000  0.5896450000000  0.4997710000000 1.0
C      1  0.5083890000000  0.4475340000000  0.5044360000000 1.0
C      1  0.5344920000000  0.4276400000000  0.5138350000000 1.0
C      1  0.4775230000000  0.4931590000000  0.5623060000000 1.0
C      1  0.5047190000000  0.4988670000000  0.5807910000000 1.0
C      1  0.5044020000000  0.4444760000000  0.5545980000000 1.0
C      1  0.4525310000000  0.4745890000000  0.4455470000000 1.0
C      1  0.4792360000000  0.5452040000000  0.4349000000000 1.0
C      1  0.4938360000000  0.4486120000000  0.4544930000000 1.0
C      1  0.4505520000000  0.4364680000000  0.4747730000000 1.0
C      1  0.5606650000000  0.4788680000000  0.5622350000000 1.0
C      1  0.4945560000000  0.4946360000000  0.5262710000000 1.0
C      1  0.4821480000000  0.4963110000000  0.4610140000000 1.0
C      1  0.5593770000000  0.4518650000000  0.5559440000000 1.0
C      1  0.4787630000000  0.4342760000000  0.5388420000000 1.0
C      1  0.5139630000000  0.5129060000000  0.5047310000000 1.0
C      1  0.4676100000000  0.5967200000000  0.5039690000000 1.0
C      1  0.5779480000000  0.4994980000000  0.5535880000000 1.0
C      1  0.4355360000000  0.5130350000000  0.5304590000000 1.0
C      1  0.5464200000000  0.4536630000000  0.4690630000000 1.0
C      1  0.4937380000000  0.5430770000000  0.5461650000000 1.0
END
