TITL C-2778428-5639-954 0.000118370646307131 125000 -236.089444208863 0 0 42 (C1) n - 1
REM
REM in /home/nfs/bkarasulu/CARBON/AIRSS/Generating-Clusters/REBO/Only-C1/SD-CG/HFTN-CG
REM
REM
REM
REM
REM
REM ./C.cell (11c1c37f851c82e70ff6c80c92926a4b)
REM
REM compiler GCC version 9.2.1 20190827 (Red Hat 9.2.1-1)
REM options -cpp -mtune=generic -march=x86-64 -g -O0 -fpre-include=/usr/include/finclude/math-vector-fortran.h
REM seed 523016372 -1858129271 -966441925 -1375113071 1996122102 -1204422363 -1294603490 -960849156 -321783081 -1440028000 -1403525886 139734301 483873853 1883084320 -604283437 984615648 -1847749945 -216885733 -933829466 -684975635 808466795 -1292922896 124515957 -1982179545 -1875491558 -159957211 223248138 -1988566627 -1144470781 -68667014 -1826617070 -948830847 338891581
REM
CELL 1.54180   50.00000   50.00000   50.00000   90.00000   90.00000   90.00000
LATT -1
SFAC C  
C      1  0.5410000000000  0.4785290000000  0.5131600000000 1.0
C      1  0.5039250000000  0.5382140000000  0.5399590000000 1.0
C      1  0.5394980000000  0.5199940000000  0.5386990000000 1.0
C      1  0.5674360000000  0.4915590000000  0.5033880000000 1.0
C      1  0.4565310000000  0.5174270000000  0.4947130000000 1.0
C      1  0.5330860000000  0.5481990000000  0.5454780000000 1.0
C      1  0.4910250000000  0.4427510000000  0.4662790000000 1.0
C      1  0.4443400000000  0.4553780000000  0.4804210000000 1.0
C      1  0.4604980000000  0.5433960000000  0.4752950000000 1.0
C      1  0.3689520000000  0.4765900000000  0.5043330000000 1.0
C      1  0.5694530000000  0.5805440000000  0.5354270000000 1.0
C      1  0.4637740000000  0.4388400000000  0.4706000000000 1.0
C      1  0.5000570000000  0.4913260000000  0.5135590000000 1.0
C      1  0.5262100000000  0.5119010000000  0.5102250000000 1.0
C      1  0.5024390000000  0.4615640000000  0.5168930000000 1.0
C      1  0.5107300000000  0.5043990000000  0.4742330000000 1.0
C      1  0.5261350000000  0.4232610000000  0.4943800000000 1.0
C      1  0.4988230000000  0.4488060000000  0.5400420000000 1.0
C      1  0.5049350000000  0.5303250000000  0.4551210000000 1.0
C      1  0.5653870000000  0.5113360000000  0.4874080000000 1.0
C      1  0.4931270000000  0.4538920000000  0.4180270000000 1.0
C      1  0.4502830000000  0.4864240000000  0.4894510000000 1.0
C      1  0.5031490000000  0.5767500000000  0.5102940000000 1.0
C      1  0.5458660000000  0.5686250000000  0.5294550000000 1.0
C      1  0.5251220000000  0.5503390000000  0.4553820000000 1.0
C      1  0.5214920000000  0.4749970000000  0.4527900000000 1.0
C      1  0.5012190000000  0.5093390000000  0.5412200000000 1.0
C      1  0.4882910000000  0.5551580000000  0.5219690000000 1.0
C      1  0.5284110000000  0.4889380000000  0.5421510000000 1.0
C      1  0.4667740000000  0.5459550000000  0.5069170000000 1.0
C      1  0.4203020000000  0.4723630000000  0.4914420000000 1.0
C      1  0.5368510000000  0.5250130000000  0.4839510000000 1.0
C      1  0.5098000000000  0.4456790000000  0.4901370000000 1.0
C      1  0.3942900000000  0.4745040000000  0.4979720000000 1.0
C      1  0.4916620000000  0.4235400000000  0.5858920000000 1.0
C      1  0.5368880000000  0.5568740000000  0.4819910000000 1.0
C      1  0.4781960000000  0.5397300000000  0.4538750000000 1.0
C      1  0.5309880000000  0.5728440000000  0.5047260000000 1.0
C      1  0.5017400000000  0.4563080000000  0.4435620000000 1.0
C      1  0.4817710000000  0.4972070000000  0.4896550000000 1.0
C      1  0.4952140000000  0.4360720000000  0.5631510000000 1.0
C      1  0.5243340000000  0.4751120000000  0.4863770000000 1.0
END
