TITL C-2778427-5640-658 0.00299736915467709 125000 -218.195193709878 0 0 38 (C1) n - 1
REM
REM in /home/nfs/bkarasulu/CARBON/AIRSS/Generating-Clusters/REBO/Only-C1/SD-CG/HFTN-CG
REM
REM
REM
REM
REM
REM ./C.cell (11c1c37f851c82e70ff6c80c92926a4b)
REM
REM compiler GCC version 9.2.1 20190827 (Red Hat 9.2.1-1)
REM options -cpp -mtune=generic -march=x86-64 -g -O0 -fpre-include=/usr/include/finclude/math-vector-fortran.h
REM seed 787568583 -649468230 -1916729019 -1425727573 -122907920 624034732 -1044958967 -27225487 -1798266034 -1167535385 -1963674473 315938533 -585683192 1527581820 6202588 1698760157 1714269098 143965923 -1743518191 1135074853 1304324276 -916422854 472507483 -1660365761 -1987513923 -1938635938 1506022705 2023316631 -1200360778 1952512500 -292113959 -86236118 761776260
REM
CELL 1.54180   50.00000   50.00000   50.00000   90.00000   90.00000   90.00000
LATT -1
SFAC C  
C      1  0.5217770000000  0.5363110000000  0.5802700000000 1.0
C      1  0.4951920000000  0.4499130000000  0.4450060000000 1.0
C      1  0.4171550000000  0.5555340000000  0.4975560000000 1.0
C      1  0.4883770000000  0.4237500000000  0.4501220000000 1.0
C      1  0.5278670000000  0.4796690000000  0.5353550000000 1.0
C      1  0.5333950000000  0.5362340000000  0.4600010000000 1.0
C      1  0.5074640000000  0.5382190000000  0.4710480000000 1.0
C      1  0.4628060000000  0.5357320000000  0.5335600000000 1.0
C      1  0.5055740000000  0.4693090000000  0.4627060000000 1.0
C      1  0.5019130000000  0.5306870000000  0.5630860000000 1.0
C      1  0.4988080000000  0.4903630000000  0.5353900000000 1.0
C      1  0.5038760000000  0.4392790000000  0.5175990000000 1.0
C      1  0.4794790000000  0.3816020000000  0.4739140000000 1.0
C      1  0.5371010000000  0.5509130000000  0.5288820000000 1.0
C      1  0.4980850000000  0.4634640000000  0.4950090000000 1.0
C      1  0.4373860000000  0.5396970000000  0.4887140000000 1.0
C      1  0.4571670000000  0.5287690000000  0.5061570000000 1.0
C      1  0.4412910000000  0.5335970000000  0.4611620000000 1.0
C      1  0.5413810000000  0.4838550000000  0.5043520000000 1.0
C      1  0.5239220000000  0.4416590000000  0.4838290000000 1.0
C      1  0.4757840000000  0.5096140000000  0.4944860000000 1.0
C      1  0.4858970000000  0.5188520000000  0.4684530000000 1.0
C      1  0.4901100000000  0.5465450000000  0.5400730000000 1.0
C      1  0.4691850000000  0.5228390000000  0.4220650000000 1.0
C      1  0.4881110000000  0.4882850000000  0.5090730000000 1.0
C      1  0.4873190000000  0.5049370000000  0.5570570000000 1.0
C      1  0.5099340000000  0.5555680000000  0.5214120000000 1.0
C      1  0.5197400000000  0.4490100000000  0.5380990000000 1.0
C      1  0.5064570000000  0.4177440000000  0.4938240000000 1.0
C      1  0.5689030000000  0.5356750000000  0.4958650000000 1.0
C      1  0.4652180000000  0.5243110000000  0.4488530000000 1.0
C      1  0.5495860000000  0.5043060000000  0.5265780000000 1.0
C      1  0.4594960000000  0.5131760000000  0.5522500000000 1.0
C      1  0.4908070000000  0.4062160000000  0.4725620000000 1.0
C      1  0.5558190000000  0.5310170000000  0.5207610000000 1.0
C      1  0.5047190000000  0.5554500000000  0.4936090000000 1.0
C      1  0.5343550000000  0.4714090000000  0.4806890000000 1.0
C      1  0.5585460000000  0.5364920000000  0.4705750000000 1.0
END
