TITL C-2778436-5916-982 0.00233715208686495 125000 -1128.40218509053 0 0 192 (C1) n - 1
REM
REM in /home/nfs/bkarasulu/CARBON/AIRSS/Generating-Clusters/REBO/Only-C1/SD-CG/HFTN-CG
REM
REM
REM
REM
REM
REM ./C.cell (11c1c37f851c82e70ff6c80c92926a4b)
REM
REM compiler GCC version 9.2.1 20190827 (Red Hat 9.2.1-1)
REM options -cpp -mtune=generic -march=x86-64 -g -O0 -fpre-include=/usr/include/finclude/math-vector-fortran.h
REM seed -1942785595 1240144530 994014761 429247871 1588996724 645350123 -688863600 -856853780 1299338849 -641121082 -544243223 -1593386318 -199356712 1562385803 1236092993 393244215 519797977 -925592483 -2089337699 1897205474 292065748 1029138753 227242273 1688967689 2075448120 -574546985 2145266401 907745888 -1034656136 -1909610442 -1763673320 -923587149 734007907
REM
CELL 1.54180   50.00000   50.00000   50.00000   90.00000   90.00000   90.00000
LATT -1
SFAC C  
C      1  0.4493430000000  0.6086070000000  0.5360740000000 1.0
C      1  0.5126920000000  0.4704320000000  0.3914870000000 1.0
C      1  0.4007700000000  0.5153210000000  0.5614200000000 1.0
C      1  0.5657710000000  0.5156140000000  0.4329280000000 1.0
C      1  0.4960370000000  0.4607270000000  0.4920180000000 1.0
C      1  0.5290080000000  0.4107580000000  0.5429920000000 1.0
C      1  0.4264470000000  0.5005270000000  0.4107660000000 1.0
C      1  0.4122140000000  0.5179180000000  0.4354680000000 1.0
C      1  0.4753510000000  0.6044790000000  0.5411750000000 1.0
C      1  0.5924050000000  0.4903200000000  0.4916900000000 1.0
C      1  0.4212850000000  0.5216080000000  0.5878570000000 1.0
C      1  0.5932330000000  0.4967480000000  0.4288470000000 1.0
C      1  0.4706100000000  0.5448170000000  0.4030470000000 1.0
C      1  0.4846390000000  0.5850500000000  0.4291070000000 1.0
C      1  0.4742890000000  0.4810730000000  0.3907220000000 1.0
C      1  0.5361100000000  0.5249120000000  0.5563860000000 1.0
C      1  0.4245290000000  0.5393890000000  0.5603330000000 1.0
C      1  0.5257950000000  0.6178340000000  0.4979370000000 1.0
C      1  0.3987730000000  0.4605150000000  0.4481720000000 1.0
C      1  0.5999520000000  0.5109360000000  0.5294740000000 1.0
C      1  0.5582790000000  0.4515950000000  0.4502390000000 1.0
C      1  0.5712470000000  0.5756260000000  0.5492180000000 1.0
C      1  0.4953800000000  0.4579150000000  0.5210620000000 1.0
C      1  0.3892320000000  0.4640830000000  0.4732080000000 1.0
C      1  0.5889700000000  0.4383520000000  0.5104000000000 1.0
C      1  0.5174860000000  0.5128890000000  0.5088940000000 1.0
C      1  0.4784480000000  0.4578800000000  0.5610620000000 1.0
C      1  0.4442600000000  0.4787130000000  0.5764200000000 1.0
C      1  0.5837930000000  0.5649000000000  0.4466310000000 1.0
C      1  0.5060860000000  0.4155300000000  0.5028160000000 1.0
C      1  0.4826860000000  0.5142850000000  0.3940540000000 1.0
C      1  0.4750480000000  0.4625860000000  0.6050390000000 1.0
C      1  0.5614830000000  0.4493920000000  0.5372760000000 1.0
C      1  0.4453990000000  0.5517550000000  0.4706200000000 1.0
C      1  0.5346870000000  0.4290970000000  0.5157300000000 1.0
C      1  0.4621500000000  0.4064620000000  0.5601680000000 1.0
C      1  0.5275130000000  0.3904230000000  0.5086450000000 1.0
C      1  0.4595050000000  0.4734590000000  0.4436820000000 1.0
C      1  0.5658960000000  0.4204970000000  0.5253390000000 1.0
C      1  0.4863750000000  0.5344880000000  0.5330210000000 1.0
C      1  0.5353420000000  0.4573490000000  0.4032390000000 1.0
C      1  0.4310830000000  0.4039380000000  0.5291440000000 1.0
C      1  0.4250320000000  0.4985510000000  0.5344690000000 1.0
C      1  0.4258860000000  0.4761690000000  0.4836940000000 1.0
C      1  0.5831650000000  0.5369200000000  0.4477000000000 1.0
C      1  0.4652300000000  0.4600130000000  0.5300810000000 1.0
C      1  0.4817970000000  0.3904750000000  0.5430180000000 1.0
C      1  0.5299370000000  0.6059980000000  0.4729530000000 1.0
C      1  0.5772470000000  0.4151910000000  0.4877100000000 1.0
C      1  0.6041460000000  0.4710540000000  0.4370560000000 1.0
C      1  0.4818480000000  0.4522330000000  0.4537710000000 1.0
C      1  0.5317590000000  0.4069790000000  0.4549170000000 1.0
C      1  0.4747260000000  0.5500600000000  0.5877100000000 1.0
C      1  0.5235430000000  0.4640050000000  0.4796130000000 1.0
C      1  0.4690280000000  0.5194910000000  0.4757670000000 1.0
C      1  0.4581810000000  0.5812070000000  0.4382430000000 1.0
C      1  0.5840690000000  0.4290080000000  0.4572720000000 1.0
C      1  0.5633560000000  0.4789020000000  0.4666980000000 1.0
C      1  0.4941860000000  0.5450740000000  0.5056940000000 1.0
C      1  0.4758330000000  0.4391800000000  0.4250500000000 1.0
C      1  0.5904490000000  0.5547770000000  0.5418990000000 1.0
C      1  0.5319420000000  0.5956870000000  0.5230880000000 1.0
C      1  0.5120870000000  0.4525510000000  0.5598110000000 1.0
C      1  0.5716160000000  0.4798640000000  0.5335010000000 1.0
C      1  0.4649690000000  0.4390530000000  0.4802130000000 1.0
C      1  0.6038860000000  0.5751600000000  0.4651010000000 1.0
C      1  0.5664430000000  0.4507360000000  0.5682540000000 1.0
C      1  0.5511510000000  0.5716000000000  0.5720120000000 1.0
C      1  0.4466150000000  0.5570660000000  0.4248660000000 1.0
C      1  0.4615940000000  0.3993530000000  0.5209030000000 1.0
C      1  0.5284890000000  0.5681260000000  0.4393830000000 1.0
C      1  0.5322240000000  0.4832580000000  0.5062270000000 1.0
C      1  0.5706560000000  0.4943370000000  0.5080280000000 1.0
C      1  0.5462490000000  0.4534580000000  0.4993160000000 1.0
C      1  0.4877860000000  0.4916180000000  0.4532510000000 1.0
C      1  0.4423590000000  0.4093560000000  0.4481640000000 1.0
C      1  0.4471560000000  0.5243620000000  0.4172510000000 1.0
C      1  0.4474820000000  0.4309340000000  0.4261450000000 1.0
C      1  0.5299920000000  0.4190730000000  0.5717580000000 1.0
C      1  0.5043590000000  0.5334600000000  0.5618610000000 1.0
C      1  0.4670860000000  0.4313220000000  0.5119160000000 1.0
C      1  0.5573850000000  0.5810180000000  0.5213820000000 1.0
C      1  0.5111750000000  0.5650490000000  0.5382130000000 1.0
C      1  0.4904520000000  0.4181110000000  0.4747150000000 1.0
C      1  0.4608370000000  0.5652020000000  0.4974090000000 1.0
C      1  0.5916820000000  0.5274790000000  0.4775840000000 1.0
C      1  0.4550910000000  0.5899930000000  0.4646240000000 1.0
C      1  0.5555040000000  0.5937750000000  0.4712750000000 1.0
C      1  0.4976040000000  0.4234910000000  0.5663910000000 1.0
C      1  0.5542540000000  0.5403200000000  0.5775480000000 1.0
C      1  0.5966580000000  0.5761330000000  0.4930090000000 1.0
C      1  0.5585080000000  0.5266260000000  0.4774590000000 1.0
C      1  0.4879250000000  0.4524450000000  0.3977960000000 1.0
C      1  0.5198960000000  0.5626380000000  0.4089020000000 1.0
C      1  0.5022340000000  0.5611300000000  0.5779230000000 1.0
C      1  0.5364350000000  0.4697460000000  0.5483780000000 1.0
C      1  0.4379240000000  0.4076340000000  0.4899510000000 1.0
C      1  0.5375590000000  0.4713730000000  0.4315090000000 1.0
C      1  0.5509600000000  0.4896020000000  0.5877920000000 1.0
C      1  0.4337730000000  0.4469380000000  0.4843270000000 1.0
C      1  0.5175380000000  0.5242550000000  0.6085160000000 1.0
C      1  0.5582320000000  0.5776140000000  0.4476270000000 1.0
C      1  0.4883040000000  0.5802660000000  0.5236260000000 1.0
C      1  0.5289830000000  0.5034310000000  0.4230660000000 1.0
C      1  0.5492580000000  0.5248980000000  0.4085700000000 1.0
C      1  0.4302470000000  0.5624880000000  0.5380860000000 1.0
C      1  0.4717950000000  0.4941950000000  0.6126330000000 1.0
C      1  0.5551230000000  0.3963660000000  0.5054970000000 1.0
C      1  0.4769090000000  0.4809670000000  0.4811550000000 1.0
C      1  0.5430300000000  0.5155520000000  0.5946470000000 1.0
C      1  0.4181360000000  0.5542400000000  0.4909230000000 1.0
C      1  0.4491000000000  0.4978320000000  0.4941300000000 1.0
C      1  0.4922380000000  0.5470940000000  0.4412230000000 1.0
C      1  0.4790280000000  0.5018190000000  0.4242060000000 1.0
C      1  0.4235650000000  0.5176740000000  0.5062010000000 1.0
C      1  0.4682390000000  0.5253690000000  0.4444200000000 1.0
C      1  0.5124500000000  0.5804120000000  0.5016200000000 1.0
C      1  0.5736710000000  0.5250130000000  0.5426410000000 1.0
C      1  0.4051860000000  0.4514350000000  0.5546370000000 1.0
C      1  0.4338270000000  0.5903030000000  0.5230840000000 1.0
C      1  0.5510500000000  0.5184750000000  0.5060890000000 1.0
C      1  0.4590620000000  0.3815150000000  0.4948220000000 1.0
C      1  0.4764160000000  0.4315960000000  0.5907310000000 1.0
C      1  0.5263370000000  0.4685220000000  0.5870110000000 1.0
C      1  0.6041170000000  0.5290620000000  0.5052530000000 1.0
C      1  0.4460010000000  0.5048910000000  0.5932350000000 1.0
C      1  0.4922460000000  0.5679490000000  0.4073440000000 1.0
C      1  0.4922920000000  0.5018670000000  0.5411100000000 1.0
C      1  0.4268960000000  0.5425670000000  0.4463070000000 1.0
C      1  0.5753270000000  0.4548610000000  0.4862740000000 1.0
C      1  0.5071180000000  0.5907560000000  0.4537990000000 1.0
C      1  0.5006410000000  0.5342720000000  0.4777530000000 1.0
C      1  0.5258090000000  0.5391590000000  0.5289550000000 1.0
C      1  0.5090320000000  0.6061730000000  0.5458660000000 1.0
C      1  0.5536330000000  0.4206430000000  0.4636680000000 1.0
C      1  0.4246970000000  0.4306610000000  0.5099430000000 1.0
C      1  0.4471080000000  0.4490880000000  0.5925940000000 1.0
C      1  0.5098580000000  0.4971460000000  0.3992120000000 1.0
C      1  0.5993820000000  0.4830080000000  0.5489660000000 1.0
C      1  0.4916760000000  0.5052900000000  0.5729540000000 1.0
C      1  0.4167990000000  0.4618040000000  0.5833580000000 1.0
C      1  0.4806170000000  0.6044160000000  0.5013180000000 1.0
C      1  0.4337620000000  0.5844950000000  0.4901550000000 1.0
C      1  0.5478200000000  0.5049290000000  0.4581100000000 1.0
C      1  0.5422090000000  0.5513880000000  0.4729760000000 1.0
C      1  0.5559340000000  0.5471720000000  0.5237440000000 1.0
C      1  0.4553950000000  0.4329690000000  0.5570780000000 1.0
C      1  0.5517220000000  0.4997190000000  0.5492500000000 1.0
C      1  0.5290700000000  0.5530360000000  0.5944190000000 1.0
C      1  0.3930390000000  0.5222950000000  0.5315920000000 1.0
C      1  0.5433800000000  0.4415260000000  0.5820990000000 1.0
C      1  0.4302330000000  0.4427200000000  0.5382770000000 1.0
C      1  0.5083240000000  0.4228430000000  0.4497120000000 1.0
C      1  0.5965730000000  0.4579900000000  0.4595450000000 1.0
C      1  0.5142010000000  0.5099910000000  0.4594730000000 1.0
C      1  0.5710440000000  0.5880890000000  0.4954550000000 1.0
C      1  0.4941510000000  0.5102020000000  0.6149090000000 1.0
C      1  0.3950870000000  0.4824190000000  0.4961370000000 1.0
C      1  0.5110980000000  0.4808520000000  0.5317610000000 1.0
C      1  0.4453620000000  0.5256620000000  0.5385880000000 1.0
C      1  0.4698870000000  0.5231400000000  0.5853600000000 1.0
C      1  0.5382180000000  0.5458440000000  0.3959040000000 1.0
C      1  0.5223760000000  0.5343030000000  0.4369280000000 1.0
C      1  0.4635140000000  0.5028920000000  0.5249410000000 1.0
C      1  0.4106670000000  0.4960150000000  0.4619720000000 1.0
C      1  0.5303880000000  0.4301020000000  0.4042760000000 1.0
C      1  0.5088590000000  0.3890510000000  0.5355330000000 1.0
C      1  0.5156350000000  0.4561460000000  0.4518430000000 1.0
C      1  0.4596480000000  0.5525460000000  0.5244320000000 1.0
C      1  0.5034100000000  0.4248640000000  0.4165680000000 1.0
C      1  0.4873210000000  0.5059380000000  0.5017990000000 1.0
C      1  0.5225110000000  0.5816220000000  0.5640340000000 1.0
C      1  0.4158650000000  0.5253960000000  0.4741980000000 1.0
C      1  0.4418210000000  0.4742030000000  0.5452640000000 1.0
C      1  0.4302660000000  0.4576730000000  0.4361560000000 1.0
C      1  0.4060460000000  0.4842590000000  0.5594110000000 1.0
C      1  0.4031300000000  0.4863520000000  0.4298960000000 1.0
C      1  0.3879260000000  0.5015910000000  0.5145980000000 1.0
C      1  0.4107840000000  0.5457850000000  0.5201240000000 1.0
C      1  0.4781850000000  0.5577290000000  0.4695050000000 1.0
C      1  0.5889820000000  0.4992370000000  0.4608690000000 1.0
C      1  0.5231040000000  0.5671610000000  0.4817460000000 1.0
C      1  0.4805850000000  0.5975220000000  0.4742490000000 1.0
C      1  0.5014580000000  0.6198620000000  0.5155030000000 1.0
C      1  0.4251360000000  0.4330500000000  0.4580810000000 1.0
C      1  0.4940350000000  0.4270960000000  0.5327230000000 1.0
C      1  0.4943180000000  0.4780460000000  0.5839520000000 1.0
C      1  0.6029820000000  0.4555320000000  0.5291070000000 1.0
C      1  0.4521940000000  0.4848490000000  0.4136070000000 1.0
C      1  0.4640920000000  0.4007380000000  0.4689010000000 1.0
C      1  0.5755390000000  0.4783850000000  0.5732270000000 1.0
C      1  0.6027230000000  0.5566620000000  0.5145850000000 1.0
END
