TITL C-2778428-5639-347 0.00118817673155835 125000 -639.975314022337 0 0 112 (C1) n - 1
REM
REM in /home/nfs/bkarasulu/CARBON/AIRSS/Generating-Clusters/REBO/Only-C1/SD-CG/HFTN-CG
REM
REM
REM
REM
REM
REM ./C.cell (11c1c37f851c82e70ff6c80c92926a4b)
REM
REM compiler GCC version 9.2.1 20190827 (Red Hat 9.2.1-1)
REM options -cpp -mtune=generic -march=x86-64 -g -O0 -fpre-include=/usr/include/finclude/math-vector-fortran.h
REM seed 37367719 1334496207 -1808817827 -547609484 1701679790 -2080374021 415635702 -2060884597 1006743298 -1495616039 -900262383 81201611 2079071612 1792234065 -66991499 1337409380 -1567519845 -403989088 1901034195 1080271313 1623924051 449615924 -636114977 -2015885998 983966892 -1601635689 712115504 1085342873 2040736159 -1474351602 -1797696305 -397552120 -1943207264
REM
CELL 1.54180   50.00000   50.00000   50.00000   90.00000   90.00000   90.00000
LATT -1
SFAC C  
C      1  0.5436250000000  0.5015510000000  0.4775010000000 1.0
C      1  0.5171260000000  0.4787140000000  0.4438940000000 1.0
C      1  0.5417790000000  0.4813030000000  0.5696510000000 1.0
C      1  0.5057620000000  0.5853750000000  0.5593950000000 1.0
C      1  0.4540380000000  0.5615040000000  0.5822970000000 1.0
C      1  0.4536690000000  0.4931470000000  0.5018630000000 1.0
C      1  0.5477960000000  0.5498910000000  0.5275500000000 1.0
C      1  0.4868160000000  0.4533110000000  0.4492680000000 1.0
C      1  0.4698530000000  0.4949510000000  0.5381700000000 1.0
C      1  0.5147660000000  0.5136830000000  0.4254450000000 1.0
C      1  0.4737150000000  0.5400190000000  0.4801450000000 1.0
C      1  0.4919950000000  0.4137540000000  0.5782180000000 1.0
C      1  0.5857090000000  0.4287760000000  0.4551590000000 1.0
C      1  0.5149020000000  0.5114420000000  0.5413740000000 1.0
C      1  0.5578470000000  0.5543140000000  0.4988690000000 1.0
C      1  0.5336150000000  0.5731950000000  0.5438380000000 1.0
C      1  0.4872010000000  0.4720360000000  0.5266210000000 1.0
C      1  0.4495910000000  0.5818790000000  0.5171850000000 1.0
C      1  0.4478750000000  0.5026860000000  0.4639290000000 1.0
C      1  0.5181040000000  0.5915370000000  0.4614030000000 1.0
C      1  0.4259860000000  0.4776000000000  0.4713030000000 1.0
C      1  0.5779010000000  0.5229440000000  0.5132140000000 1.0
C      1  0.5397550000000  0.5734660000000  0.4425490000000 1.0
C      1  0.5510120000000  0.4488850000000  0.5323630000000 1.0
C      1  0.4714010000000  0.4099020000000  0.5191740000000 1.0
C      1  0.5806420000000  0.5336490000000  0.5664110000000 1.0
C      1  0.4824050000000  0.4900020000000  0.5896950000000 1.0
C      1  0.5639660000000  0.5268050000000  0.5422930000000 1.0
C      1  0.4280590000000  0.5122340000000  0.4902000000000 1.0
C      1  0.4470160000000  0.4523730000000  0.5596060000000 1.0
C      1  0.4846350000000  0.4693490000000  0.4221810000000 1.0
C      1  0.5647940000000  0.4690190000000  0.5133260000000 1.0
C      1  0.5410280000000  0.4207330000000  0.4903870000000 1.0
C      1  0.4523070000000  0.5517570000000  0.4583350000000 1.0
C      1  0.4803210000000  0.5115260000000  0.4980520000000 1.0
C      1  0.5101660000000  0.4815020000000  0.5452760000000 1.0
C      1  0.4386680000000  0.5476420000000  0.5582660000000 1.0
C      1  0.4493330000000  0.4351390000000  0.5139780000000 1.0
C      1  0.4374730000000  0.4727880000000  0.4401640000000 1.0
C      1  0.5205370000000  0.4506370000000  0.5473700000000 1.0
C      1  0.5150910000000  0.4766880000000  0.4106060000000 1.0
C      1  0.4607560000000  0.5739810000000  0.4430270000000 1.0
C      1  0.4337770000000  0.4557420000000  0.5316620000000 1.0
C      1  0.4623210000000  0.5131130000000  0.4205150000000 1.0
C      1  0.5449610000000  0.5011050000000  0.5442860000000 1.0
C      1  0.4765930000000  0.4851550000000  0.4579290000000 1.0
C      1  0.4756110000000  0.5807480000000  0.5727980000000 1.0
C      1  0.5395650000000  0.5421850000000  0.4734250000000 1.0
C      1  0.4861440000000  0.4510200000000  0.4928280000000 1.0
C      1  0.5263220000000  0.4762070000000  0.4827270000000 1.0
C      1  0.5670410000000  0.4489260000000  0.4572980000000 1.0
C      1  0.4505710000000  0.4259380000000  0.4648070000000 1.0
C      1  0.5733450000000  0.4958280000000  0.4644570000000 1.0
C      1  0.4834140000000  0.4233280000000  0.4933870000000 1.0
C      1  0.5032020000000  0.5513310000000  0.4216440000000 1.0
C      1  0.4475730000000  0.4435700000000  0.4853640000000 1.0
C      1  0.5375950000000  0.5736770000000  0.4822150000000 1.0
C      1  0.4236960000000  0.5335840000000  0.5364980000000 1.0
C      1  0.5583370000000  0.4318950000000  0.5781680000000 1.0
C      1  0.4132540000000  0.5378630000000  0.4832260000000 1.0
C      1  0.5091960000000  0.4741210000000  0.5774720000000 1.0
C      1  0.4717300000000  0.4603610000000  0.5763690000000 1.0
C      1  0.4607430000000  0.5693660000000  0.5440680000000 1.0
C      1  0.5849370000000  0.5380250000000  0.4885960000000 1.0
C      1  0.5219080000000  0.4178600000000  0.5523670000000 1.0
C      1  0.5449210000000  0.4784270000000  0.4271730000000 1.0
C      1  0.5022110000000  0.5136410000000  0.5846800000000 1.0
C      1  0.5428990000000  0.4467880000000  0.4756850000000 1.0
C      1  0.5494580000000  0.4219000000000  0.5163190000000 1.0
C      1  0.5122320000000  0.5874240000000  0.5259050000000 1.0
C      1  0.4966950000000  0.4083540000000  0.4707920000000 1.0
C      1  0.4873350000000  0.5265360000000  0.4096330000000 1.0
C      1  0.5734310000000  0.4804390000000  0.4936170000000 1.0
C      1  0.5293860000000  0.5069560000000  0.5876770000000 1.0
C      1  0.4774410000000  0.4440320000000  0.5310490000000 1.0
C      1  0.4248160000000  0.5565990000000  0.4713050000000 1.0
C      1  0.4244390000000  0.4757000000000  0.5054040000000 1.0
C      1  0.4701620000000  0.5781870000000  0.4952920000000 1.0
C      1  0.4386230000000  0.4866660000000  0.5409260000000 1.0
C      1  0.5105000000000  0.5254190000000  0.4759480000000 1.0
C      1  0.5566040000000  0.4552180000000  0.5636250000000 1.0
C      1  0.5001770000000  0.5568500000000  0.4740230000000 1.0
C      1  0.4512700000000  0.5247320000000  0.4437540000000 1.0
C      1  0.5389270000000  0.5196670000000  0.4487090000000 1.0
C      1  0.5146320000000  0.5028630000000  0.3931460000000 1.0
C      1  0.5312130000000  0.5490290000000  0.4331850000000 1.0
C      1  0.5099790000000  0.5788680000000  0.4982000000000 1.0
C      1  0.5227430000000  0.5227200000000  0.5040250000000 1.0
C      1  0.4982970000000  0.4429690000000  0.5725020000000 1.0
C      1  0.4941370000000  0.5297200000000  0.5595300000000 1.0
C      1  0.4633420000000  0.4708690000000  0.4825840000000 1.0
C      1  0.4578160000000  0.4898610000000  0.5679410000000 1.0
C      1  0.4347720000000  0.5535320000000  0.5182800000000 1.0
C      1  0.4917950000000  0.5586050000000  0.5441960000000 1.0
C      1  0.5418110000000  0.4110780000000  0.5697620000000 1.0
C      1  0.4904300000000  0.4155790000000  0.5445090000000 1.0
C      1  0.5025560000000  0.5048400000000  0.4559360000000 1.0
C      1  0.4947380000000  0.5188960000000  0.3775270000000 1.0
C      1  0.4664760000000  0.5467550000000  0.5104410000000 1.0
C      1  0.5237900000000  0.4023730000000  0.4769620000000 1.0
C      1  0.4984470000000  0.4825840000000  0.4974310000000 1.0
C      1  0.5677990000000  0.4740210000000  0.4434530000000 1.0
C      1  0.4767590000000  0.4251330000000  0.4540310000000 1.0
C      1  0.4595360000000  0.4838940000000  0.4218410000000 1.0
C      1  0.4786910000000  0.5237920000000  0.5297950000000 1.0
C      1  0.5152730000000  0.4533680000000  0.4612450000000 1.0
C      1  0.5145030000000  0.5421460000000  0.5277930000000 1.0
C      1  0.5492040000000  0.5071760000000  0.5108020000000 1.0
C      1  0.4884630000000  0.5947070000000  0.4779820000000 1.0
C      1  0.4222700000000  0.5059370000000  0.5229130000000 1.0
C      1  0.4990670000000  0.5698090000000  0.4446440000000 1.0
C      1  0.5890650000000  0.5227040000000  0.4661710000000 1.0
END
