TITL C-2778435-5768-534 -0.000970601206776945 125000 -803.795470631822 0 0 138 (C1) n - 1
REM
REM in /home/nfs/bkarasulu/CARBON/AIRSS/Generating-Clusters/REBO/Only-C1/SD-CG/HFTN-CG
REM
REM
REM
REM
REM
REM ./C.cell (11c1c37f851c82e70ff6c80c92926a4b)
REM
REM compiler GCC version 9.2.1 20190827 (Red Hat 9.2.1-1)
REM options -cpp -mtune=generic -march=x86-64 -g -O0 -fpre-include=/usr/include/finclude/math-vector-fortran.h
REM seed 2013114868 462178350 49832811 -137630978 -1991253826 -1754418459 -254264160 853928571 1024673231 -897181432 -951499307 -2128907135 -1232573877 1779708396 -1333061630 599884404 -2006135627 -1132226970 -454015264 790060347 -1304750723 463153792 907126149 -1261478241 -574298980 2108642293 1072698426 1134686907 -303799897 1012272149 1083705043 -1124188493 1055938496
REM
CELL 1.54180   50.00000   50.00000   50.00000   90.00000   90.00000   90.00000
LATT -1
SFAC C  
C      1  0.5973250000000  0.5526070000000  0.4811510000000 1.0
C      1  0.4618950000000  0.4900530000000  0.5766050000000 1.0
C      1  0.6040460000000  0.5060790000000  0.4669430000000 1.0
C      1  0.5514990000000  0.4544570000000  0.5664330000000 1.0
C      1  0.4509690000000  0.5723380000000  0.4983860000000 1.0
C      1  0.4277560000000  0.4994300000000  0.4283710000000 1.0
C      1  0.5030750000000  0.6210680000000  0.5103420000000 1.0
C      1  0.4879250000000  0.4844140000000  0.5259250000000 1.0
C      1  0.5818280000000  0.5632720000000  0.4553080000000 1.0
C      1  0.4262570000000  0.5122690000000  0.4963560000000 1.0
C      1  0.5900870000000  0.4967850000000  0.4924410000000 1.0
C      1  0.5425730000000  0.5108950000000  0.5062860000000 1.0
C      1  0.4076690000000  0.4739240000000  0.4741370000000 1.0
C      1  0.4957870000000  0.4502060000000  0.4921470000000 1.0
C      1  0.5887080000000  0.5439410000000  0.5072140000000 1.0
C      1  0.4975090000000  0.5271870000000  0.5378190000000 1.0
C      1  0.4768050000000  0.5420580000000  0.4015440000000 1.0
C      1  0.5138020000000  0.4469720000000  0.3860980000000 1.0
C      1  0.5456820000000  0.5410320000000  0.4257820000000 1.0
C      1  0.5251720000000  0.5633520000000  0.4410760000000 1.0
C      1  0.5668780000000  0.5208440000000  0.4368160000000 1.0
C      1  0.4131180000000  0.4872190000000  0.4496290000000 1.0
C      1  0.4765910000000  0.4637540000000  0.5101340000000 1.0
C      1  0.4246310000000  0.5733910000000  0.4564610000000 1.0
C      1  0.4612050000000  0.4388270000000  0.4370230000000 1.0
C      1  0.5364620000000  0.4312440000000  0.5593040000000 1.0
C      1  0.5620330000000  0.5228600000000  0.5935190000000 1.0
C      1  0.4614830000000  0.4949210000000  0.4903360000000 1.0
C      1  0.6087570000000  0.4879490000000  0.5118580000000 1.0
C      1  0.4460770000000  0.4840030000000  0.4140950000000 1.0
C      1  0.5699230000000  0.4950410000000  0.5502580000000 1.0
C      1  0.4866260000000  0.4205510000000  0.4821840000000 1.0
C      1  0.5432540000000  0.4762620000000  0.5845430000000 1.0
C      1  0.4820430000000  0.4001020000000  0.5073490000000 1.0
C      1  0.4345410000000  0.5326500000000  0.4309330000000 1.0
C      1  0.4581160000000  0.5551410000000  0.4219310000000 1.0
C      1  0.4240180000000  0.5577870000000  0.5102190000000 1.0
C      1  0.5401130000000  0.4774160000000  0.5024040000000 1.0
C      1  0.4384010000000  0.4499250000000  0.5510440000000 1.0
C      1  0.5391490000000  0.4359100000000  0.4571830000000 1.0
C      1  0.4592940000000  0.5733950000000  0.5301520000000 1.0
C      1  0.5775890000000  0.4482600000000  0.4956770000000 1.0
C      1  0.4690740000000  0.5190350000000  0.5375720000000 1.0
C      1  0.4972810000000  0.5570570000000  0.5240380000000 1.0
C      1  0.4487860000000  0.4666270000000  0.5004720000000 1.0
C      1  0.4488990000000  0.5022390000000  0.5196580000000 1.0
C      1  0.4200900000000  0.5454280000000  0.4541550000000 1.0
C      1  0.5079320000000  0.4349050000000  0.5693330000000 1.0
C      1  0.5135750000000  0.4963410000000  0.5111100000000 1.0
C      1  0.5579740000000  0.5680520000000  0.4417350000000 1.0
C      1  0.4595140000000  0.5037680000000  0.4597700000000 1.0
C      1  0.4399210000000  0.5330830000000  0.5486180000000 1.0
C      1  0.5556200000000  0.4950490000000  0.4370490000000 1.0
C      1  0.5717760000000  0.4483220000000  0.5245420000000 1.0
C      1  0.4919380000000  0.5217890000000  0.4452670000000 1.0
C      1  0.5302480000000  0.4653450000000  0.4615530000000 1.0
C      1  0.4920630000000  0.4960510000000  0.4649050000000 1.0
C      1  0.5221520000000  0.5123720000000  0.5465250000000 1.0
C      1  0.5344000000000  0.4520290000000  0.4245220000000 1.0
C      1  0.5448290000000  0.5392770000000  0.4891330000000 1.0
C      1  0.4210320000000  0.5307980000000  0.4779660000000 1.0
C      1  0.4379780000000  0.4805360000000  0.5361750000000 1.0
C      1  0.4578380000000  0.5359800000000  0.4633700000000 1.0
C      1  0.4255050000000  0.5177350000000  0.5703160000000 1.0
C      1  0.5796790000000  0.4029750000000  0.4660290000000 1.0
C      1  0.5003480000000  0.5226840000000  0.4147200000000 1.0
C      1  0.5582670000000  0.5473220000000  0.5474570000000 1.0
C      1  0.4686680000000  0.5314950000000  0.6104240000000 1.0
C      1  0.5323430000000  0.4155720000000  0.5345080000000 1.0
C      1  0.5177400000000  0.5763210000000  0.5115610000000 1.0
C      1  0.4636860000000  0.5164750000000  0.4291710000000 1.0
C      1  0.4522130000000  0.4152030000000  0.5017030000000 1.0
C      1  0.4188600000000  0.5369100000000  0.5268940000000 1.0
C      1  0.5292040000000  0.5169900000000  0.4131240000000 1.0
C      1  0.5794970000000  0.5590970000000  0.5298300000000 1.0
C      1  0.4778440000000  0.4773060000000  0.4008510000000 1.0
C      1  0.5505830000000  0.5995930000000  0.4937560000000 1.0
C      1  0.5741950000000  0.4203420000000  0.4859870000000 1.0
C      1  0.5705070000000  0.5881640000000  0.5190320000000 1.0
C      1  0.4580050000000  0.4555520000000  0.4166300000000 1.0
C      1  0.5727090000000  0.5194760000000  0.5026210000000 1.0
C      1  0.5134310000000  0.4060730000000  0.4834640000000 1.0
C      1  0.5076990000000  0.4689060000000  0.3999900000000 1.0
C      1  0.4018630000000  0.4915820000000  0.5005320000000 1.0
C      1  0.5004730000000  0.5845390000000  0.4387830000000 1.0
C      1  0.5036370000000  0.4072500000000  0.5306370000000 1.0
C      1  0.5198600000000  0.4836340000000  0.5496590000000 1.0
C      1  0.4723050000000  0.5696160000000  0.4473940000000 1.0
C      1  0.4741820000000  0.5079640000000  0.3993690000000 1.0
C      1  0.5335970000000  0.4846720000000  0.4149030000000 1.0
C      1  0.5529100000000  0.4223480000000  0.5131570000000 1.0
C      1  0.4980900000000  0.5490570000000  0.4562990000000 1.0
C      1  0.5431610000000  0.5678030000000  0.5167280000000 1.0
C      1  0.4061980000000  0.4948190000000  0.5553670000000 1.0
C      1  0.4432070000000  0.5091780000000  0.5894130000000 1.0
C      1  0.5902200000000  0.5306890000000  0.4556130000000 1.0
C      1  0.5007370000000  0.4554780000000  0.5927570000000 1.0
C      1  0.4496760000000  0.5801220000000  0.4664820000000 1.0
C      1  0.5199240000000  0.5458770000000  0.4766710000000 1.0
C      1  0.4241800000000  0.4506320000000  0.5137610000000 1.0
C      1  0.5213460000000  0.6025600000000  0.4991940000000 1.0
C      1  0.4905340000000  0.6117140000000  0.5332920000000 1.0
C      1  0.4617620000000  0.5556640000000  0.5513870000000 1.0
C      1  0.4950080000000  0.5858070000000  0.5427950000000 1.0
C      1  0.5032000000000  0.5052880000000  0.5906030000000 1.0
C      1  0.4386740000000  0.4256880000000  0.4795610000000 1.0
C      1  0.4913830000000  0.5090870000000  0.4947290000000 1.0
C      1  0.5112150000000  0.4548780000000  0.5394830000000 1.0
C      1  0.5366360000000  0.5624410000000  0.5592280000000 1.0
C      1  0.5006390000000  0.4676700000000  0.4650450000000 1.0
C      1  0.4847820000000  0.5492150000000  0.5686040000000 1.0
C      1  0.5159390000000  0.4796160000000  0.5930670000000 1.0
C      1  0.4059390000000  0.4736980000000  0.5282750000000 1.0
C      1  0.5083450000000  0.5654660000000  0.5614810000000 1.0
C      1  0.5529820000000  0.4816410000000  0.4609220000000 1.0
C      1  0.4896890000000  0.4147300000000  0.5551160000000 1.0
C      1  0.6250790000000  0.4944160000000  0.4562900000000 1.0
C      1  0.4740360000000  0.4523800000000  0.5807890000000 1.0
C      1  0.5241460000000  0.4499320000000  0.5082960000000 1.0
C      1  0.4189780000000  0.4486630000000  0.4816150000000 1.0
C      1  0.5508940000000  0.5194420000000  0.5455170000000 1.0
C      1  0.5116800000000  0.4373760000000  0.4398350000000 1.0
C      1  0.5681970000000  0.4656250000000  0.5455780000000 1.0
C      1  0.4794400000000  0.4848020000000  0.5554630000000 1.0
C      1  0.4605770000000  0.4251200000000  0.5518340000000 1.0
C      1  0.5595800000000  0.5000330000000  0.5793640000000 1.0
C      1  0.4318200000000  0.4767970000000  0.5691380000000 1.0
C      1  0.5347090000000  0.4257690000000  0.4862870000000 1.0
C      1  0.5618880000000  0.5676330000000  0.4895110000000 1.0
C      1  0.4850570000000  0.4386600000000  0.4555860000000 1.0
C      1  0.4860650000000  0.5282650000000  0.5893590000000 1.0
C      1  0.4792250000000  0.4524490000000  0.5480960000000 1.0
C      1  0.4674220000000  0.5495350000000  0.4847210000000 1.0
C      1  0.4388320000000  0.4252420000000  0.5275760000000 1.0
C      1  0.4869880000000  0.5381120000000  0.5008440000000 1.0
C      1  0.5696180000000  0.4758050000000  0.4858800000000 1.0
C      1  0.4813670000000  0.3724610000000  0.5019120000000 1.0
C      1  0.4015370000000  0.5129940000000  0.5272450000000 1.0
END
