TITL C-2778433-5640-1375 6.70216114548464e-06 125000 -140.702643287048 0 0 25 (C1) n - 1
REM
REM in /home/nfs/bkarasulu/CARBON/AIRSS/Generating-Clusters/REBO/Only-C1/SD-CG/HFTN-CG
REM
REM
REM
REM
REM
REM ./C.cell (11c1c37f851c82e70ff6c80c92926a4b)
REM
REM compiler GCC version 9.2.1 20190827 (Red Hat 9.2.1-1)
REM options -cpp -mtune=generic -march=x86-64 -g -O0 -fpre-include=/usr/include/finclude/math-vector-fortran.h
REM seed -1174853901 748276085 1420359959 1178966336 -1143240178 -958581521 911018339 -876848799 -1421766255 -1873775502 1088391716 -1588448079 -1571344266 -384427455 -1071014763 1042640415 611010540 2046420941 1733356680 -889226399 2046724571 -845950068 1400335590 -1402864394 897127975 861262211 -1243356697 -1662685853 -1551714673 -585841086 843711238 -2082795448 -898055350
REM
CELL 1.54180   50.00000   50.00000   50.00000   90.00000   90.00000   90.00000
LATT -1
SFAC C  
C      1  0.5511650000000  0.5086290000000  0.4993790000000 1.0
C      1  0.4985410000000  0.4809890000000  0.4617830000000 1.0
C      1  0.4979290000000  0.4811970000000  0.5061950000000 1.0
C      1  0.4865080000000  0.4709450000000  0.5295020000000 1.0
C      1  0.5244830000000  0.5326840000000  0.5328560000000 1.0
C      1  0.4747680000000  0.4880610000000  0.5544110000000 1.0
C      1  0.5090910000000  0.5024110000000  0.4459140000000 1.0
C      1  0.4403130000000  0.4752900000000  0.5083090000000 1.0
C      1  0.4545550000000  0.4745030000000  0.5324050000000 1.0
C      1  0.4330360000000  0.4649940000000  0.4613480000000 1.0
C      1  0.5087360000000  0.5264280000000  0.5539610000000 1.0
C      1  0.5084580000000  0.5267320000000  0.4873480000000 1.0
C      1  0.4892720000000  0.5100620000000  0.5634500000000 1.0
C      1  0.5164600000000  0.4723060000000  0.4845990000000 1.0
C      1  0.6000860000000  0.4819020000000  0.4892610000000 1.0
C      1  0.4731930000000  0.4883080000000  0.4756200000000 1.0
C      1  0.5139610000000  0.5273910000000  0.4590900000000 1.0
C      1  0.4849720000000  0.5095870000000  0.4970720000000 1.0
C      1  0.5251010000000  0.5488170000000  0.4466650000000 1.0
C      1  0.4479670000000  0.4766620000000  0.4808720000000 1.0
C      1  0.4480230000000  0.5347490000000  0.5303310000000 1.0
C      1  0.5304920000000  0.5267950000000  0.5058630000000 1.0
C      1  0.4649460000000  0.5232250000000  0.5150980000000 1.0
C      1  0.5744390000000  0.4878210000000  0.4912670000000 1.0
C      1  0.5435040000000  0.4795130000000  0.4874010000000 1.0
END
