TITL C-2778435-5768-133 0.00282573204620078 125000 -792.609280420171 0 0 135 (C1) n - 1
REM
REM in /home/nfs/bkarasulu/CARBON/AIRSS/Generating-Clusters/REBO/Only-C1/SD-CG/HFTN-CG
REM
REM
REM
REM
REM
REM ./C.cell (11c1c37f851c82e70ff6c80c92926a4b)
REM
REM compiler GCC version 9.2.1 20190827 (Red Hat 9.2.1-1)
REM options -cpp -mtune=generic -march=x86-64 -g -O0 -fpre-include=/usr/include/finclude/math-vector-fortran.h
REM seed 710480132 1230632069 1897310055 1036274909 815887249 1443167392 -777853453 -797191024 1648578114 1881441156 1348542516 485822210 2021714830 -683978161 356456137 -1781948189 191843472 -993689527 1117868246 -1488393663 -1549781868 -929949452 -1678977297 -2118100950 -183077636 1692537197 1814837500 -1775208675 -1877072154 -1482124193 -981603287 -1773089537 1201229669
REM
CELL 1.54180   50.00000   50.00000   50.00000   90.00000   90.00000   90.00000
LATT -1
SFAC C  
C      1  0.4313500000000  0.5055020000000  0.5155650000000 1.0
C      1  0.4680780000000  0.5278840000000  0.4032220000000 1.0
C      1  0.4865690000000  0.5402950000000  0.6031480000000 1.0
C      1  0.4756700000000  0.4834590000000  0.4892400000000 1.0
C      1  0.4277400000000  0.5449880000000  0.5449330000000 1.0
C      1  0.5453260000000  0.4793070000000  0.6074880000000 1.0
C      1  0.5254210000000  0.4042750000000  0.4319490000000 1.0
C      1  0.4559680000000  0.5427310000000  0.5051640000000 1.0
C      1  0.5212480000000  0.4801730000000  0.4025630000000 1.0
C      1  0.4879460000000  0.5006260000000  0.4673070000000 1.0
C      1  0.5547910000000  0.4705770000000  0.5073250000000 1.0
C      1  0.4175270000000  0.4508130000000  0.4759010000000 1.0
C      1  0.5696490000000  0.5555330000000  0.5042260000000 1.0
C      1  0.4576580000000  0.4696320000000  0.5219290000000 1.0
C      1  0.4396950000000  0.4701240000000  0.5765060000000 1.0
C      1  0.5073790000000  0.4408680000000  0.4749100000000 1.0
C      1  0.4541490000000  0.4320370000000  0.5090860000000 1.0
C      1  0.4928940000000  0.5073610000000  0.5719340000000 1.0
C      1  0.5613140000000  0.4808000000000  0.5708730000000 1.0
C      1  0.4915910000000  0.5521960000000  0.4057330000000 1.0
C      1  0.4991990000000  0.4478270000000  0.4447080000000 1.0
C      1  0.5092700000000  0.5263970000000  0.4435820000000 1.0
C      1  0.5701940000000  0.4501640000000  0.5296960000000 1.0
C      1  0.4917880000000  0.5466600000000  0.4601760000000 1.0
C      1  0.5082430000000  0.4354830000000  0.5075230000000 1.0
C      1  0.5531540000000  0.5248540000000  0.4236550000000 1.0
C      1  0.4706300000000  0.4660480000000  0.4119860000000 1.0
C      1  0.4824180000000  0.4893800000000  0.5958600000000 1.0
C      1  0.4012980000000  0.5602030000000  0.5050470000000 1.0
C      1  0.5377870000000  0.3992830000000  0.4535160000000 1.0
C      1  0.5858670000000  0.4635390000000  0.5561140000000 1.0
C      1  0.4039510000000  0.4559970000000  0.5020160000000 1.0
C      1  0.4821580000000  0.4456780000000  0.5196530000000 1.0
C      1  0.4689140000000  0.5141990000000  0.4554950000000 1.0
C      1  0.5666650000000  0.4325420000000  0.5046500000000 1.0
C      1  0.5312730000000  0.4498650000000  0.5208000000000 1.0
C      1  0.4651530000000  0.5105240000000  0.5529850000000 1.0
C      1  0.4989610000000  0.5648950000000  0.5135920000000 1.0
C      1  0.4686170000000  0.5181850000000  0.6018080000000 1.0
C      1  0.5163940000000  0.5345960000000  0.4120450000000 1.0
C      1  0.5224360000000  0.5066560000000  0.5707570000000 1.0
C      1  0.5904720000000  0.5335870000000  0.4937450000000 1.0
C      1  0.4029980000000  0.5122570000000  0.5058920000000 1.0
C      1  0.5315620000000  0.5269260000000  0.6137260000000 1.0
C      1  0.5337000000000  0.4272020000000  0.5589210000000 1.0
C      1  0.5545510000000  0.5677070000000  0.5567980000000 1.0
C      1  0.5343250000000  0.4078430000000  0.5377030000000 1.0
C      1  0.5366360000000  0.4551730000000  0.4330610000000 1.0
C      1  0.5491680000000  0.5172950000000  0.4962840000000 1.0
C      1  0.5013340000000  0.5267350000000  0.5019170000000 1.0
C      1  0.4586380000000  0.5639060000000  0.4434730000000 1.0
C      1  0.4897780000000  0.3965640000000  0.4928030000000 1.0
C      1  0.5360090000000  0.4871770000000  0.5510030000000 1.0
C      1  0.4790290000000  0.5646610000000  0.5604810000000 1.0
C      1  0.5205630000000  0.5470460000000  0.5312330000000 1.0
C      1  0.4454720000000  0.4924090000000  0.4915860000000 1.0
C      1  0.5288410000000  0.5371860000000  0.4937030000000 1.0
C      1  0.4599690000000  0.4099810000000  0.4891750000000 1.0
C      1  0.4743940000000  0.5231060000000  0.5067280000000 1.0
C      1  0.4709940000000  0.5356360000000  0.4350710000000 1.0
C      1  0.4697660000000  0.5809300000000  0.4915770000000 1.0
C      1  0.5343530000000  0.5030230000000  0.5988640000000 1.0
C      1  0.5212150000000  0.4622210000000  0.5447960000000 1.0
C      1  0.5055610000000  0.4694610000000  0.4868560000000 1.0
C      1  0.5277100000000  0.5610240000000  0.5766420000000 1.0
C      1  0.4783750000000  0.4973600000000  0.4114600000000 1.0
C      1  0.5714000000000  0.4910930000000  0.4561890000000 1.0
C      1  0.5676270000000  0.5216800000000  0.4479290000000 1.0
C      1  0.5612330000000  0.5144210000000  0.5654650000000 1.0
C      1  0.4383650000000  0.4555310000000  0.5536880000000 1.0
C      1  0.4994930000000  0.6076340000000  0.4926910000000 1.0
C      1  0.5030370000000  0.5781610000000  0.5673520000000 1.0
C      1  0.6001110000000  0.5185070000000  0.5219900000000 1.0
C      1  0.4595520000000  0.4357640000000  0.5428480000000 1.0
C      1  0.4395610000000  0.5786070000000  0.4842620000000 1.0
C      1  0.3978370000000  0.4841300000000  0.5148650000000 1.0
C      1  0.5202810000000  0.5000390000000  0.4621120000000 1.0
C      1  0.4415560000000  0.5125910000000  0.4147870000000 1.0
C      1  0.5455330000000  0.4090240000000  0.5055780000000 1.0
C      1  0.5215120000000  0.5136040000000  0.5248900000000 1.0
C      1  0.4367120000000  0.5612940000000  0.4618770000000 1.0
C      1  0.4239330000000  0.5359740000000  0.4688400000000 1.0
C      1  0.4508520000000  0.4895250000000  0.5935400000000 1.0
C      1  0.5664590000000  0.4690040000000  0.4366010000000 1.0
C      1  0.4902290000000  0.5603990000000  0.4836750000000 1.0
C      1  0.5801780000000  0.5161700000000  0.5407430000000 1.0
C      1  0.5061490000000  0.4409830000000  0.5619560000000 1.0
C      1  0.5601570000000  0.4407730000000  0.4527560000000 1.0
C      1  0.5534510000000  0.5049960000000  0.5276930000000 1.0
C      1  0.4794890000000  0.5375510000000  0.5638870000000 1.0
C      1  0.5467990000000  0.5000510000000  0.4742190000000 1.0
C      1  0.5521160000000  0.4162230000000  0.4736580000000 1.0
C      1  0.4954510000000  0.4828530000000  0.5166540000000 1.0
C      1  0.5421280000000  0.5527740000000  0.4177540000000 1.0
C      1  0.4395210000000  0.5094650000000  0.4656020000000 1.0
C      1  0.4435220000000  0.4660130000000  0.4330320000000 1.0
C      1  0.5530650000000  0.5691860000000  0.4616960000000 1.0
C      1  0.4426630000000  0.4588180000000  0.4931660000000 1.0
C      1  0.5789000000000  0.4791300000000  0.4852300000000 1.0
C      1  0.5138430000000  0.5944500000000  0.4716150000000 1.0
C      1  0.4384540000000  0.4961020000000  0.4367240000000 1.0
C      1  0.5035550000000  0.4593280000000  0.4066710000000 1.0
C      1  0.4985930000000  0.5000070000000  0.4288150000000 1.0
C      1  0.4240050000000  0.4664350000000  0.5276200000000 1.0
C      1  0.4810050000000  0.4283590000000  0.5640400000000 1.0
C      1  0.4926700000000  0.4136300000000  0.4675710000000 1.0
C      1  0.5328870000000  0.5048770000000  0.4088360000000 1.0
C      1  0.5163590000000  0.4316000000000  0.4216830000000 1.0
C      1  0.4751540000000  0.4087770000000  0.5826790000000 1.0
C      1  0.4128660000000  0.5619310000000  0.5299570000000 1.0
C      1  0.5973460000000  0.5004020000000  0.4957900000000 1.0
C      1  0.4352600000000  0.5143940000000  0.5453060000000 1.0
C      1  0.5381970000000  0.5643540000000  0.5075120000000 1.0
C      1  0.4205700000000  0.4514830000000  0.4491350000000 1.0
C      1  0.5378510000000  0.5721160000000  0.4373570000000 1.0
C      1  0.5125120000000  0.4037410000000  0.5120640000000 1.0
C      1  0.4977860000000  0.5936740000000  0.5170190000000 1.0
C      1  0.4489460000000  0.5728740000000  0.5166530000000 1.0
C      1  0.5265680000000  0.4859550000000  0.5056210000000 1.0
C      1  0.4041570000000  0.5362290000000  0.4896780000000 1.0
C      1  0.5666110000000  0.5638460000000  0.5354430000000 1.0
C      1  0.5137550000000  0.4758090000000  0.4416080000000 1.0
C      1  0.4684780000000  0.4453170000000  0.4389900000000 1.0
C      1  0.5380230000000  0.5817840000000  0.4822030000000 1.0
C      1  0.5704030000000  0.5440590000000  0.4694630000000 1.0
C      1  0.4645050000000  0.4208690000000  0.4576300000000 1.0
C      1  0.5338940000000  0.5337530000000  0.5590540000000 1.0
C      1  0.5147170000000  0.5468380000000  0.6023010000000 1.0
C      1  0.5555440000000  0.4482100000000  0.5597890000000 1.0
C      1  0.5099370000000  0.5830790000000  0.4435320000000 1.0
C      1  0.4863610000000  0.5718270000000  0.4284720000000 1.0
C      1  0.4176810000000  0.5004360000000  0.5627070000000 1.0
C      1  0.5729590000000  0.4473660000000  0.4805160000000 1.0
C      1  0.4584680000000  0.5765310000000  0.5450800000000 1.0
C      1  0.4694620000000  0.4990140000000  0.5254800000000 1.0
END
