TITL C-2778423-5760-1001 -0.00089262800930033 125000 -357.716364783214 0 0 63 (C1) n - 1
REM
REM in /home/nfs/bkarasulu/CARBON/AIRSS/Generating-Clusters/REBO/Only-C1/SD-CG/HFTN-CG
REM
REM
REM
REM
REM
REM ./C.cell (11c1c37f851c82e70ff6c80c92926a4b)
REM
REM compiler GCC version 9.2.1 20190827 (Red Hat 9.2.1-1)
REM options -cpp -mtune=generic -march=x86-64 -g -O0 -fpre-include=/usr/include/finclude/math-vector-fortran.h
REM seed -1939527125 879851557 2081288851 -566093512 -899447311 -1044188303 1187571001 675927478 1935897616 -1792224732 1447165235 -943962531 119543593 950967904 1737006898 -1520593274 1509616201 -1662049726 1337413544 -961055929 -548308405 372167882 520343860 -753102810 1071003178 -1408465555 1403252996 -407765611 857933400 1778009413 583536958 -581156308 39930237
REM
CELL 1.54180   50.00000   50.00000   50.00000   90.00000   90.00000   90.00000
LATT -1
SFAC C  
C      1  0.5396590000000  0.5009670000000  0.5642040000000 1.0
C      1  0.4356770000000  0.5238020000000  0.5209610000000 1.0
C      1  0.4503650000000  0.4774010000000  0.5374870000000 1.0
C      1  0.5645670000000  0.5131370000000  0.4634840000000 1.0
C      1  0.5165590000000  0.5132590000000  0.5482250000000 1.0
C      1  0.5454530000000  0.5339210000000  0.4351760000000 1.0
C      1  0.5804490000000  0.5156720000000  0.4412430000000 1.0
C      1  0.5587650000000  0.5370870000000  0.4782070000000 1.0
C      1  0.5053440000000  0.4721630000000  0.5196590000000 1.0
C      1  0.4985950000000  0.4324200000000  0.4855290000000 1.0
C      1  0.5217710000000  0.5260030000000  0.4875730000000 1.0
C      1  0.5169620000000  0.5670420000000  0.5011150000000 1.0
C      1  0.4912190000000  0.4642560000000  0.4946470000000 1.0
C      1  0.4747390000000  0.5535920000000  0.5359130000000 1.0
C      1  0.4231430000000  0.5164970000000  0.4727820000000 1.0
C      1  0.5622750000000  0.4734900000000  0.4933250000000 1.0
C      1  0.4386510000000  0.4586460000000  0.4791400000000 1.0
C      1  0.4746360000000  0.4671880000000  0.4464360000000 1.0
C      1  0.5228810000000  0.4557620000000  0.5399590000000 1.0
C      1  0.5282310000000  0.4433120000000  0.4762320000000 1.0
C      1  0.4934640000000  0.4494540000000  0.5502790000000 1.0
C      1  0.4550390000000  0.5291870000000  0.5428570000000 1.0
C      1  0.4668890000000  0.5432500000000  0.4848610000000 1.0
C      1  0.5357860000000  0.5227220000000  0.5184970000000 1.0
C      1  0.5421230000000  0.4729410000000  0.5602780000000 1.0
C      1  0.4807760000000  0.4734250000000  0.5630460000000 1.0
C      1  0.5003330000000  0.4524380000000  0.4576150000000 1.0
C      1  0.5637680000000  0.5151760000000  0.5562400000000 1.0
C      1  0.5160220000000  0.5446590000000  0.4370200000000 1.0
C      1  0.4639370000000  0.4463890000000  0.4930900000000 1.0
C      1  0.4367860000000  0.5360070000000  0.4946140000000 1.0
C      1  0.4667240000000  0.4480070000000  0.5322700000000 1.0
C      1  0.5050320000000  0.4980350000000  0.5246560000000 1.0
C      1  0.4633940000000  0.5143860000000  0.4423330000000 1.0
C      1  0.5104560000000  0.4937520000000  0.4535730000000 1.0
C      1  0.4319940000000  0.4945760000000  0.5187080000000 1.0
C      1  0.4391920000000  0.5008950000000  0.4512950000000 1.0
C      1  0.4462130000000  0.4720800000000  0.4553880000000 1.0
C      1  0.4647470000000  0.5429290000000  0.5724860000000 1.0
C      1  0.4843340000000  0.5575560000000  0.5051020000000 1.0
C      1  0.5629520000000  0.5136650000000  0.5272510000000 1.0
C      1  0.4834530000000  0.4941350000000  0.4377150000000 1.0
C      1  0.4406890000000  0.4965910000000  0.4909190000000 1.0
C      1  0.5550690000000  0.4619860000000  0.5307710000000 1.0
C      1  0.4950810000000  0.4335030000000  0.5197930000000 1.0
C      1  0.5301680000000  0.4700000000000  0.4564870000000 1.0
C      1  0.5545330000000  0.4859140000000  0.4694210000000 1.0
C      1  0.4904180000000  0.5546560000000  0.4397900000000 1.0
C      1  0.4683460000000  0.4999730000000  0.5542890000000 1.0
C      1  0.5098780000000  0.5424730000000  0.5217510000000 1.0
C      1  0.4909900000000  0.5247910000000  0.5598260000000 1.0
C      1  0.5509290000000  0.5644770000000  0.4968840000000 1.0
C      1  0.4943880000000  0.5177130000000  0.5036370000000 1.0
C      1  0.4685530000000  0.5092630000000  0.4870950000000 1.0
C      1  0.5301440000000  0.5553230000000  0.4724080000000 1.0
C      1  0.4921390000000  0.5591420000000  0.5620520000000 1.0
C      1  0.4396590000000  0.4558590000000  0.5132030000000 1.0
C      1  0.5246870000000  0.4251380000000  0.5146180000000 1.0
C      1  0.4892710000000  0.4884540000000  0.4768320000000 1.0
C      1  0.4703950000000  0.5401360000000  0.4533000000000 1.0
C      1  0.5469270000000  0.4459170000000  0.5017880000000 1.0
C      1  0.5240640000000  0.5190870000000  0.4572200000000 1.0
C      1  0.5703200000000  0.4883250000000  0.5174460000000 1.0
END
