TITL C-2778433-5640-573 0.00180685836336307 125000 -434.858092729044 0 0 77 (C1) n - 1
REM
REM in /home/nfs/bkarasulu/CARBON/AIRSS/Generating-Clusters/REBO/Only-C1/SD-CG/HFTN-CG
REM
REM
REM
REM
REM
REM ./C.cell (11c1c37f851c82e70ff6c80c92926a4b)
REM
REM compiler GCC version 9.2.1 20190827 (Red Hat 9.2.1-1)
REM options -cpp -mtune=generic -march=x86-64 -g -O0 -fpre-include=/usr/include/finclude/math-vector-fortran.h
REM seed -673664911 -495424748 -576365288 1773835635 -1917559569 1884536546 198198599 1383873942 1285695167 -872765881 959800101 -375601658 -205864332 -1987609829 -1034836137 1948867284 2006269975 -228082751 -2080660358 -2097069300 -1503095071 1650290179 -347058579 -1431520400 -2009115516 3514703 -1057690152 453835663 -120168603 1964903313 -102394167 21379962 1057445920
REM
CELL 1.54180   50.00000   50.00000   50.00000   90.00000   90.00000   90.00000
LATT -1
SFAC C  
C      1  0.5029800000000  0.4939180000000  0.4665770000000 1.0
C      1  0.4527410000000  0.4420220000000  0.5231220000000 1.0
C      1  0.5256690000000  0.5249510000000  0.4247330000000 1.0
C      1  0.4972710000000  0.4187660000000  0.4956370000000 1.0
C      1  0.4280480000000  0.4959970000000  0.4623330000000 1.0
C      1  0.5128520000000  0.4751140000000  0.4327370000000 1.0
C      1  0.4398480000000  0.4714840000000  0.4821450000000 1.0
C      1  0.5437140000000  0.4705470000000  0.4573600000000 1.0
C      1  0.4418840000000  0.5299520000000  0.4949110000000 1.0
C      1  0.4671280000000  0.5506630000000  0.5345850000000 1.0
C      1  0.5009950000000  0.4900720000000  0.5765950000000 1.0
C      1  0.4418670000000  0.5420720000000  0.5455670000000 1.0
C      1  0.5131520000000  0.5633290000000  0.5243180000000 1.0
C      1  0.4813590000000  0.5401160000000  0.4860400000000 1.0
C      1  0.4883820000000  0.4249540000000  0.5550490000000 1.0
C      1  0.5262110000000  0.5350590000000  0.5623530000000 1.0
C      1  0.5905370000000  0.4675620000000  0.4753170000000 1.0
C      1  0.5144380000000  0.4537020000000  0.5043410000000 1.0
C      1  0.4746420000000  0.5739000000000  0.4883760000000 1.0
C      1  0.4413150000000  0.5104440000000  0.5545030000000 1.0
C      1  0.5392920000000  0.5490180000000  0.4407900000000 1.0
C      1  0.4563280000000  0.4813290000000  0.5493560000000 1.0
C      1  0.4390680000000  0.5186820000000  0.4486380000000 1.0
C      1  0.4913450000000  0.5627350000000  0.5426100000000 1.0
C      1  0.5585570000000  0.5017760000000  0.4956390000000 1.0
C      1  0.4941730000000  0.5626590000000  0.4631380000000 1.0
C      1  0.4930640000000  0.5299830000000  0.4287770000000 1.0
C      1  0.5665670000000  0.4784860000000  0.4756410000000 1.0
C      1  0.4648260000000  0.4279820000000  0.4946050000000 1.0
C      1  0.5420440000000  0.5716370000000  0.4911880000000 1.0
C      1  0.4841530000000  0.4625330000000  0.4989390000000 1.0
C      1  0.5284530000000  0.4818600000000  0.5686950000000 1.0
C      1  0.4957390000000  0.4394480000000  0.4687420000000 1.0
C      1  0.5702780000000  0.5232350000000  0.5418550000000 1.0
C      1  0.4958230000000  0.4782180000000  0.5458700000000 1.0
C      1  0.5244480000000  0.4453110000000  0.4448510000000 1.0
C      1  0.4239000000000  0.4955310000000  0.5290570000000 1.0
C      1  0.5146960000000  0.5107710000000  0.5285810000000 1.0
C      1  0.5469090000000  0.5673890000000  0.5249400000000 1.0
C      1  0.4359930000000  0.4678050000000  0.5158480000000 1.0
C      1  0.5234840000000  0.5609290000000  0.4651980000000 1.0
C      1  0.4653780000000  0.5139950000000  0.4357040000000 1.0
C      1  0.5006620000000  0.5531600000000  0.5675930000000 1.0
C      1  0.5425030000000  0.4192560000000  0.5265220000000 1.0
C      1  0.5277470000000  0.4233200000000  0.5036920000000 1.0
C      1  0.5214280000000  0.4613950000000  0.5333280000000 1.0
C      1  0.5303450000000  0.5341100000000  0.4843940000000 1.0
C      1  0.4596310000000  0.5623090000000  0.4612280000000 1.0
C      1  0.5610020000000  0.4964400000000  0.5283190000000 1.0
C      1  0.5258410000000  0.5351330000000  0.5148740000000 1.0
C      1  0.4818890000000  0.4870180000000  0.4406000000000 1.0
C      1  0.5488050000000  0.5441790000000  0.5488680000000 1.0
C      1  0.4640590000000  0.4532000000000  0.4742830000000 1.0
C      1  0.5136980000000  0.4249210000000  0.5647210000000 1.0
C      1  0.5313660000000  0.5040100000000  0.4751860000000 1.0
C      1  0.5362310000000  0.4964000000000  0.4363370000000 1.0
C      1  0.4253330000000  0.5288560000000  0.5232890000000 1.0
C      1  0.5331210000000  0.4365710000000  0.5476310000000 1.0
C      1  0.4275670000000  0.5006520000000  0.4955420000000 1.0
C      1  0.5722540000000  0.5609830000000  0.5028000000000 1.0
C      1  0.4708400000000  0.5288050000000  0.5127860000000 1.0
C      1  0.4915180000000  0.4484900000000  0.4371410000000 1.0
C      1  0.4871740000000  0.5210330000000  0.4608200000000 1.0
C      1  0.5598750000000  0.5470840000000  0.4743370000000 1.0
C      1  0.4735270000000  0.4524520000000  0.5472200000000 1.0
C      1  0.5051030000000  0.5335760000000  0.3990460000000 1.0
C      1  0.4421620000000  0.5407700000000  0.4665570000000 1.0
C      1  0.5159610000000  0.4667020000000  0.4751780000000 1.0
C      1  0.5339510000000  0.4897010000000  0.5384490000000 1.0
C      1  0.4983410000000  0.5224070000000  0.5778260000000 1.0
C      1  0.4789630000000  0.4200920000000  0.5244990000000 1.0
C      1  0.4844980000000  0.5041350000000  0.5258320000000 1.0
C      1  0.5523630000000  0.5208000000000  0.4539490000000 1.0
C      1  0.4710440000000  0.5036590000000  0.5695850000000 1.0
C      1  0.4641700000000  0.4619470000000  0.4333760000000 1.0
C      1  0.4679300000000  0.4784910000000  0.5175090000000 1.0
C      1  0.5595490000000  0.5320060000000  0.5114210000000 1.0
END
