TITL C-2778430-5657-546 0.00448189685795802 125000 -435.49698465785 0 0 77 (C1) n - 1
REM
REM in /home/nfs/bkarasulu/CARBON/AIRSS/Generating-Clusters/REBO/Only-C1/SD-CG/HFTN-CG
REM
REM
REM
REM
REM
REM ./C.cell (11c1c37f851c82e70ff6c80c92926a4b)
REM
REM compiler GCC version 9.2.1 20190827 (Red Hat 9.2.1-1)
REM options -cpp -mtune=generic -march=x86-64 -g -O0 -fpre-include=/usr/include/finclude/math-vector-fortran.h
REM seed 1239302133 306374561 -2060244924 -295599576 143994496 1098262122 275939014 1079978512 1241989735 -988433314 255903498 522719809 -449681731 -1133053445 -571889927 1344388729 977287374 -40825509 -691702895 645553521 2067342052 94980203 -235250564 530382832 -24721835 1356226864 -1699100594 1450001232 1792812532 1768838174 2132440941 -161048988 1588588735
REM
CELL 1.54180   50.00000   50.00000   50.00000   90.00000   90.00000   90.00000
LATT -1
SFAC C  
C      1  0.5194710000000  0.4336030000000  0.4991510000000 1.0
C      1  0.4398360000000  0.4533630000000  0.4600360000000 1.0
C      1  0.4731120000000  0.5488750000000  0.4620340000000 1.0
C      1  0.5463380000000  0.5502880000000  0.5391940000000 1.0
C      1  0.4611680000000  0.4999250000000  0.4612420000000 1.0
C      1  0.5034150000000  0.5338680000000  0.4992080000000 1.0
C      1  0.4554510000000  0.5439200000000  0.5143280000000 1.0
C      1  0.5311950000000  0.4367950000000  0.4700540000000 1.0
C      1  0.4241900000000  0.5311270000000  0.5184370000000 1.0
C      1  0.5140770000000  0.4832230000000  0.4642150000000 1.0
C      1  0.4196250000000  0.4224130000000  0.5047380000000 1.0
C      1  0.5195540000000  0.4822830000000  0.5317390000000 1.0
C      1  0.5599310000000  0.5268290000000  0.5481500000000 1.0
C      1  0.5137530000000  0.5090270000000  0.5735700000000 1.0
C      1  0.5003590000000  0.5663910000000  0.5343040000000 1.0
C      1  0.5733670000000  0.4930990000000  0.4949410000000 1.0
C      1  0.5525580000000  0.5589860000000  0.5127400000000 1.0
C      1  0.5362390000000  0.4873720000000  0.4414970000000 1.0
C      1  0.4933450000000  0.5861390000000  0.5514590000000 1.0
C      1  0.5125430000000  0.4699470000000  0.4265690000000 1.0
C      1  0.4238260000000  0.5118770000000  0.5465500000000 1.0
C      1  0.4622410000000  0.5002250000000  0.5076360000000 1.0
C      1  0.4274500000000  0.4727430000000  0.4839580000000 1.0
C      1  0.4411150000000  0.4916600000000  0.5558780000000 1.0
C      1  0.5095820000000  0.5583870000000  0.4486570000000 1.0
C      1  0.4539060000000  0.5346420000000  0.4430060000000 1.0
C      1  0.4619410000000  0.4719840000000  0.4443440000000 1.0
C      1  0.5502300000000  0.4689580000000  0.4987010000000 1.0
C      1  0.5091150000000  0.4616590000000  0.5153760000000 1.0
C      1  0.4667030000000  0.5086700000000  0.4294160000000 1.0
C      1  0.5439920000000  0.4831260000000  0.5465550000000 1.0
C      1  0.4872050000000  0.5226950000000  0.5697890000000 1.0
C      1  0.5126760000000  0.5148280000000  0.5239120000000 1.0
C      1  0.5075890000000  0.4246540000000  0.5300420000000 1.0
C      1  0.5579710000000  0.4516790000000  0.4729410000000 1.0
C      1  0.5618580000000  0.4843400000000  0.4639090000000 1.0
C      1  0.5264770000000  0.4900560000000  0.4932810000000 1.0
C      1  0.5706850000000  0.5117640000000  0.5234050000000 1.0
C      1  0.5569620000000  0.5171140000000  0.4573020000000 1.0
C      1  0.4865670000000  0.4823870000000  0.4242790000000 1.0
C      1  0.4784460000000  0.4641740000000  0.5092920000000 1.0
C      1  0.5673830000000  0.4783370000000  0.5257950000000 1.0
C      1  0.4760720000000  0.5737520000000  0.4847670000000 1.0
C      1  0.5827750000000  0.4347330000000  0.4701400000000 1.0
C      1  0.5088490000000  0.4358350000000  0.5550990000000 1.0
C      1  0.4468130000000  0.5633240000000  0.4881330000000 1.0
C      1  0.5047030000000  0.4548070000000  0.4626390000000 1.0
C      1  0.4660500000000  0.4420390000000  0.4910090000000 1.0
C      1  0.4930000000000  0.5649380000000  0.5067590000000 1.0
C      1  0.5329440000000  0.5189180000000  0.4378870000000 1.0
C      1  0.4699380000000  0.5382230000000  0.5447710000000 1.0
C      1  0.5082650000000  0.5298300000000  0.4475160000000 1.0
C      1  0.4926780000000  0.4926470000000  0.4962330000000 1.0
C      1  0.5093870000000  0.4813630000000  0.5822470000000 1.0
C      1  0.4630460000000  0.5014090000000  0.5782090000000 1.0
C      1  0.4815960000000  0.5098900000000  0.5324430000000 1.0
C      1  0.4590590000000  0.4769210000000  0.5319250000000 1.0
C      1  0.4872800000000  0.4242290000000  0.5050320000000 1.0
C      1  0.5272970000000  0.5505610000000  0.4923080000000 1.0
C      1  0.4341760000000  0.5441240000000  0.4690340000000 1.0
C      1  0.4344590000000  0.4406110000000  0.4911700000000 1.0
C      1  0.6037550000000  0.4203990000000  0.4677700000000 1.0
C      1  0.4926740000000  0.5080940000000  0.4655900000000 1.0
C      1  0.5087320000000  0.4558520000000  0.5731630000000 1.0
C      1  0.5203350000000  0.4398820000000  0.4377060000000 1.0
C      1  0.4424710000000  0.4989250000000  0.4850960000000 1.0
C      1  0.5547390000000  0.5342630000000  0.4815190000000 1.0
C      1  0.5178830000000  0.5442180000000  0.5409800000000 1.0
C      1  0.5296950000000  0.5693350000000  0.4659630000000 1.0
C      1  0.4742410000000  0.5342690000000  0.4895470000000 1.0
C      1  0.5424650000000  0.5160730000000  0.5056590000000 1.0
C      1  0.4371720000000  0.5407190000000  0.5487860000000 1.0
C      1  0.5602650000000  0.5682560000000  0.4809440000000 1.0
C      1  0.4250950000000  0.5232540000000  0.4875010000000 1.0
C      1  0.4763280000000  0.4500890000000  0.4631110000000 1.0
C      1  0.5422100000000  0.5083240000000  0.5621750000000 1.0
C      1  0.4801070000000  0.4864640000000  0.5555370000000 1.0
END
