TITL C-2778426-5645-151 -0.000678468097760434 125000 -517.513906708526 0 0 91 (C1) n - 1
REM
REM in /home/nfs/bkarasulu/CARBON/AIRSS/Generating-Clusters/REBO/Only-C1/SD-CG/HFTN-CG
REM
REM
REM
REM
REM
REM ./C.cell (11c1c37f851c82e70ff6c80c92926a4b)
REM
REM compiler GCC version 9.2.1 20190827 (Red Hat 9.2.1-1)
REM options -cpp -mtune=generic -march=x86-64 -g -O0 -fpre-include=/usr/include/finclude/math-vector-fortran.h
REM seed 1295033916 601544484 1329149291 -133347649 -520377842 868937702 -567828240 1198997413 -2039301453 -1342985978 609677507 -1340711828 503059551 -192486238 -2001895554 -2102606891 -1644972420 1302436331 1258832927 -120198197 -2103432396 -1108363140 -120485085 1922467446 486681423 -2071608038 1199066107 15173075 1160007210 -1701320563 1318679167 1483919810 -1368228978
REM
CELL 1.54180   50.00000   50.00000   50.00000   90.00000   90.00000   90.00000
LATT -1
SFAC C  
C      1  0.4585900000000  0.4521240000000  0.5447860000000 1.0
C      1  0.5095470000000  0.4156870000000  0.5018410000000 1.0
C      1  0.4635220000000  0.5146680000000  0.5616080000000 1.0
C      1  0.5479190000000  0.4259660000000  0.5343220000000 1.0
C      1  0.5195020000000  0.4305240000000  0.4512650000000 1.0
C      1  0.4344330000000  0.5128330000000  0.4667100000000 1.0
C      1  0.4537880000000  0.5609730000000  0.5439470000000 1.0
C      1  0.4420480000000  0.5223450000000  0.4348090000000 1.0
C      1  0.5019150000000  0.4233130000000  0.5586190000000 1.0
C      1  0.5219100000000  0.5268370000000  0.5813190000000 1.0
C      1  0.4741310000000  0.4962770000000  0.5373310000000 1.0
C      1  0.5542360000000  0.4514080000000  0.4882850000000 1.0
C      1  0.4494210000000  0.4874110000000  0.4815940000000 1.0
C      1  0.5966010000000  0.5458200000000  0.4823160000000 1.0
C      1  0.5466960000000  0.4342400000000  0.4442580000000 1.0
C      1  0.5715870000000  0.5307240000000  0.5217320000000 1.0
C      1  0.4866870000000  0.5712920000000  0.4709320000000 1.0
C      1  0.4496790000000  0.4559230000000  0.5060450000000 1.0
C      1  0.4722520000000  0.5432150000000  0.5235420000000 1.0
C      1  0.5192890000000  0.4750430000000  0.4338190000000 1.0
C      1  0.4977650000000  0.4795680000000  0.4549980000000 1.0
C      1  0.5283390000000  0.5005980000000  0.5151840000000 1.0
C      1  0.4406770000000  0.4951740000000  0.5591910000000 1.0
C      1  0.5021370000000  0.4666470000000  0.4857940000000 1.0
C      1  0.4812040000000  0.5227080000000  0.3821480000000 1.0
C      1  0.4813660000000  0.4438100000000  0.5290580000000 1.0
C      1  0.4448750000000  0.4247670000000  0.4953100000000 1.0
C      1  0.5092820000000  0.4556760000000  0.5158650000000 1.0
C      1  0.4481700000000  0.5595150000000  0.5100790000000 1.0
C      1  0.5010430000000  0.5901100000000  0.4851210000000 1.0
C      1  0.5523350000000  0.5695030000000  0.5036220000000 1.0
C      1  0.4183050000000  0.5551700000000  0.5052970000000 1.0
C      1  0.5396680000000  0.4287350000000  0.5040240000000 1.0
C      1  0.4279610000000  0.4617980000000  0.4275320000000 1.0
C      1  0.4743990000000  0.4577350000000  0.4584490000000 1.0
C      1  0.5404250000000  0.5300010000000  0.5233200000000 1.0
C      1  0.5340200000000  0.5490020000000  0.4887370000000 1.0
C      1  0.5020680000000  0.5490450000000  0.5648170000000 1.0
C      1  0.5197310000000  0.5536080000000  0.4380200000000 1.0
C      1  0.4527560000000  0.5395050000000  0.4614260000000 1.0
C      1  0.5531120000000  0.5285020000000  0.5672150000000 1.0
C      1  0.5805590000000  0.5577930000000  0.5050230000000 1.0
C      1  0.4383780000000  0.4747160000000  0.4553450000000 1.0
C      1  0.4896930000000  0.5230200000000  0.4854770000000 1.0
C      1  0.5311320000000  0.5027800000000  0.4322150000000 1.0
C      1  0.4805930000000  0.4222590000000  0.5771120000000 1.0
C      1  0.5427210000000  0.5343090000000  0.4397190000000 1.0
C      1  0.4928830000000  0.5232210000000  0.5357260000000 1.0
C      1  0.4615610000000  0.4054210000000  0.5073380000000 1.0
C      1  0.5161890000000  0.5272330000000  0.4990700000000 1.0
C      1  0.5538400000000  0.5090440000000  0.4561270000000 1.0
C      1  0.5016090000000  0.5542990000000  0.5252050000000 1.0
C      1  0.5631930000000  0.4455960000000  0.4631220000000 1.0
C      1  0.5475180000000  0.4756930000000  0.5545480000000 1.0
C      1  0.5343770000000  0.5966730000000  0.5061050000000 1.0
C      1  0.5776590000000  0.5279310000000  0.5522470000000 1.0
C      1  0.4694720000000  0.5423540000000  0.4319310000000 1.0
C      1  0.5037230000000  0.5857530000000  0.5160290000000 1.0
C      1  0.5382460000000  0.5766130000000  0.5336320000000 1.0
C      1  0.4394700000000  0.4738590000000  0.5403080000000 1.0
C      1  0.4799790000000  0.4920430000000  0.4884470000000 1.0
C      1  0.5325610000000  0.5474860000000  0.5492040000000 1.0
C      1  0.5236140000000  0.4543050000000  0.4185300000000 1.0
C      1  0.5819600000000  0.5201000000000  0.4928200000000 1.0
C      1  0.5077360000000  0.5782860000000  0.5489680000000 1.0
C      1  0.4933720000000  0.5099420000000  0.4557360000000 1.0
C      1  0.4179670000000  0.5082040000000  0.4938740000000 1.0
C      1  0.4857850000000  0.4168420000000  0.5171160000000 1.0
C      1  0.5052600000000  0.5246230000000  0.4306640000000 1.0
C      1  0.5139940000000  0.4379140000000  0.4794300000000 1.0
C      1  0.5045800000000  0.5066750000000  0.5609850000000 1.0
C      1  0.4353390000000  0.4932300000000  0.4296050000000 1.0
C      1  0.5370320000000  0.4990310000000  0.5677900000000 1.0
C      1  0.4713460000000  0.5422900000000  0.5634060000000 1.0
C      1  0.4687940000000  0.5498850000000  0.4846880000000 1.0
C      1  0.5134330000000  0.4891700000000  0.5370340000000 1.0
C      1  0.4845160000000  0.5281040000000  0.4071430000000 1.0
C      1  0.5501570000000  0.4823440000000  0.4980900000000 1.0
C      1  0.4064730000000  0.5307080000000  0.5035930000000 1.0
C      1  0.5001460000000  0.4214610000000  0.4345400000000 1.0
C      1  0.4306990000000  0.4827670000000  0.5097290000000 1.0
C      1  0.4581130000000  0.4383150000000  0.5698700000000 1.0
C      1  0.4700620000000  0.4796160000000  0.5155340000000 1.0
C      1  0.5182900000000  0.4312880000000  0.5376170000000 1.0
C      1  0.4812450000000  0.4073550000000  0.5998110000000 1.0
C      1  0.5229230000000  0.6085000000000  0.4767680000000 1.0
C      1  0.5404700000000  0.4635820000000  0.5235480000000 1.0
C      1  0.5634470000000  0.4493020000000  0.5450910000000 1.0
C      1  0.4918000000000  0.5621660000000  0.4444710000000 1.0
C      1  0.4577980000000  0.4460010000000  0.4752270000000 1.0
C      1  0.5648990000000  0.5021010000000  0.4801040000000 1.0
END
