TITL C-2778427-5640-354 -0.000216542109181505 125000 -274.316303637005 0 0 48 (C1) n - 1
REM
REM in /home/nfs/bkarasulu/CARBON/AIRSS/Generating-Clusters/REBO/Only-C1/SD-CG/HFTN-CG
REM
REM
REM
REM
REM
REM ./C.cell (11c1c37f851c82e70ff6c80c92926a4b)
REM
REM compiler GCC version 9.2.1 20190827 (Red Hat 9.2.1-1)
REM options -cpp -mtune=generic -march=x86-64 -g -O0 -fpre-include=/usr/include/finclude/math-vector-fortran.h
REM seed -2116706684 1726153996 1555110583 1697436566 -1549988080 -1278683608 -1923232821 -2049834458 -203539238 -1227237093 -1651720229 1383748863 -1131084586 -1589230615 1803409016 -867595204 1206884712 -1485113690 1182078626 -68620537 -1891575318 -1951462823 -1764413097 -541742343 -1948790647 341979094 1530797239 1676764431 -479617962 1524954582 -149225053 892565223 987254422
REM
CELL 1.54180   50.00000   50.00000   50.00000   90.00000   90.00000   90.00000
LATT -1
SFAC C  
C      1  0.5289660000000  0.4898410000000  0.4651270000000 1.0
C      1  0.5392710000000  0.5109720000000  0.5557850000000 1.0
C      1  0.5589910000000  0.4512140000000  0.4994180000000 1.0
C      1  0.4974390000000  0.5144140000000  0.4401310000000 1.0
C      1  0.4958830000000  0.5423240000000  0.5284950000000 1.0
C      1  0.4775050000000  0.5022560000000  0.5711380000000 1.0
C      1  0.5132660000000  0.4400490000000  0.4770280000000 1.0
C      1  0.4857500000000  0.5286080000000  0.5645520000000 1.0
C      1  0.4433430000000  0.5130140000000  0.5147730000000 1.0
C      1  0.5434020000000  0.5100260000000  0.4428710000000 1.0
C      1  0.5612640000000  0.4948500000000  0.5462850000000 1.0
C      1  0.5153070000000  0.5349910000000  0.5586550000000 1.0
C      1  0.4959840000000  0.4850340000000  0.4575100000000 1.0
C      1  0.4830990000000  0.4317360000000  0.5288370000000 1.0
C      1  0.5063330000000  0.4568990000000  0.5257520000000 1.0
C      1  0.4825800000000  0.4571600000000  0.5494980000000 1.0
C      1  0.5025570000000  0.5540190000000  0.4764010000000 1.0
C      1  0.5719220000000  0.5004150000000  0.5168100000000 1.0
C      1  0.4862480000000  0.5043270000000  0.4941370000000 1.0
C      1  0.5351020000000  0.5547720000000  0.4813930000000 1.0
C      1  0.4720890000000  0.4430520000000  0.4496450000000 1.0
C      1  0.4696490000000  0.5506860000000  0.4739160000000 1.0
C      1  0.4549830000000  0.4901920000000  0.5305540000000 1.0
C      1  0.4545160000000  0.4609630000000  0.4919350000000 1.0
C      1  0.4450670000000  0.5374450000000  0.5299120000000 1.0
C      1  0.5539290000000  0.4730400000000  0.5205750000000 1.0
C      1  0.4627040000000  0.4897650000000  0.4655600000000 1.0
C      1  0.5478780000000  0.5408580000000  0.5046740000000 1.0
C      1  0.4419880000000  0.5364540000000  0.4723420000000 1.0
C      1  0.5414550000000  0.4420970000000  0.4805770000000 1.0
C      1  0.5638460000000  0.5183350000000  0.4966510000000 1.0
C      1  0.4684310000000  0.5433070000000  0.5448650000000 1.0
C      1  0.4522560000000  0.4592050000000  0.4623030000000 1.0
C      1  0.5575960000000  0.5075120000000  0.4712240000000 1.0
C      1  0.4863220000000  0.5363270000000  0.5002530000000 1.0
C      1  0.5235870000000  0.4788210000000  0.5187470000000 1.0
C      1  0.5196220000000  0.5249220000000  0.4814490000000 1.0
C      1  0.4195920000000  0.5473950000000  0.4608130000000 1.0
C      1  0.4672490000000  0.4826620000000  0.5046330000000 1.0
C      1  0.4983340000000  0.4529990000000  0.4559300000000 1.0
C      1  0.5292240000000  0.5372670000000  0.5275400000000 1.0
C      1  0.5179380000000  0.5054920000000  0.5326830000000 1.0
C      1  0.4687140000000  0.4813800000000  0.5538120000000 1.0
C      1  0.4448610000000  0.5108740000000  0.4855500000000 1.0
C      1  0.4779030000000  0.5197480000000  0.4649710000000 1.0
C      1  0.4992060000000  0.4358410000000  0.5011070000000 1.0
C      1  0.5155500000000  0.4950340000000  0.4939410000000 1.0
C      1  0.5213000000000  0.5214030000000  0.4292480000000 1.0
END
