TITL C-2778432-5617-1287 -5.97672715213551e-05 125000 -572.260154624828 0 0 98 (C1) n - 1
REM
REM in /home/nfs/bkarasulu/CARBON/AIRSS/Generating-Clusters/REBO/Only-C1/SD-CG/HFTN-CG
REM
REM
REM
REM
REM
REM ./C.cell (11c1c37f851c82e70ff6c80c92926a4b)
REM
REM compiler GCC version 9.2.1 20190827 (Red Hat 9.2.1-1)
REM options -cpp -mtune=generic -march=x86-64 -g -O0 -fpre-include=/usr/include/finclude/math-vector-fortran.h
REM seed 1522289612 486008452 471664542 1804148497 -1136453041 -195543228 192801332 -1722758116 567810699 -938108287 -1288290411 1947238322 1809333413 -1583015874 -285219597 -1601864507 954781255 -191431278 -204604140 -1530922297 -1333469674 -1678291974 -1438921698 -118389311 -1668123328 -2147003677 -516979797 -1891857280 1068583022 -596785486 -525432334 -2083690538 -1710832134
REM
CELL 1.54180   50.00000   50.00000   50.00000   90.00000   90.00000   90.00000
LATT -1
SFAC C  
C      1  0.4577920000000  0.5659510000000  0.5352490000000 1.0
C      1  0.4331490000000  0.5497690000000  0.4443170000000 1.0
C      1  0.4941160000000  0.5597160000000  0.4893380000000 1.0
C      1  0.5985830000000  0.5141490000000  0.4959060000000 1.0
C      1  0.5527610000000  0.5240960000000  0.5341880000000 1.0
C      1  0.4602250000000  0.4863560000000  0.4214130000000 1.0
C      1  0.5094010000000  0.4992000000000  0.4315440000000 1.0
C      1  0.5030350000000  0.5780050000000  0.5610200000000 1.0
C      1  0.4906590000000  0.5758430000000  0.4429940000000 1.0
C      1  0.4312460000000  0.4802290000000  0.5322260000000 1.0
C      1  0.4621160000000  0.5574760000000  0.4834250000000 1.0
C      1  0.4001870000000  0.5243120000000  0.5384170000000 1.0
C      1  0.5016500000000  0.5751820000000  0.5115350000000 1.0
C      1  0.4849920000000  0.5777660000000  0.5357660000000 1.0
C      1  0.4775270000000  0.4635140000000  0.4340410000000 1.0
C      1  0.4138780000000  0.5413650000000  0.5216500000000 1.0
C      1  0.4464670000000  0.5668220000000  0.5086840000000 1.0
C      1  0.5516880000000  0.4532770000000  0.5412600000000 1.0
C      1  0.5492290000000  0.4381120000000  0.4908310000000 1.0
C      1  0.4569700000000  0.4855230000000  0.5121470000000 1.0
C      1  0.5049840000000  0.5008790000000  0.5288360000000 1.0
C      1  0.5449680000000  0.4528330000000  0.4627610000000 1.0
C      1  0.5750420000000  0.4573120000000  0.4949360000000 1.0
C      1  0.5339020000000  0.5156040000000  0.4848450000000 1.0
C      1  0.5039520000000  0.4069810000000  0.4655740000000 1.0
C      1  0.5041510000000  0.4820890000000  0.4805080000000 1.0
C      1  0.4202470000000  0.4637170000000  0.4829970000000 1.0
C      1  0.4397810000000  0.4374210000000  0.5482280000000 1.0
C      1  0.4758360000000  0.5396960000000  0.4350320000000 1.0
C      1  0.5564550000000  0.4862540000000  0.5773080000000 1.0
C      1  0.5709230000000  0.5485110000000  0.5236410000000 1.0
C      1  0.5323240000000  0.5023440000000  0.5756890000000 1.0
C      1  0.4168240000000  0.4443210000000  0.5035320000000 1.0
C      1  0.4099530000000  0.4898820000000  0.4882490000000 1.0
C      1  0.5881240000000  0.5213430000000  0.5235790000000 1.0
C      1  0.5143260000000  0.5695280000000  0.4397530000000 1.0
C      1  0.5147910000000  0.4381780000000  0.5438810000000 1.0
C      1  0.5614630000000  0.5045520000000  0.4348250000000 1.0
C      1  0.5111950000000  0.5490830000000  0.5447400000000 1.0
C      1  0.4840710000000  0.4478990000000  0.4795900000000 1.0
C      1  0.5087910000000  0.4640330000000  0.5064550000000 1.0
C      1  0.4329880000000  0.5295880000000  0.5042600000000 1.0
C      1  0.5331900000000  0.4738500000000  0.5216200000000 1.0
C      1  0.5286310000000  0.5831420000000  0.5145440000000 1.0
C      1  0.4670780000000  0.4524020000000  0.5530140000000 1.0
C      1  0.5380220000000  0.5504310000000  0.4446520000000 1.0
C      1  0.5922840000000  0.4837790000000  0.4871310000000 1.0
C      1  0.4890650000000  0.4780250000000  0.5484240000000 1.0
C      1  0.5506250000000  0.4587700000000  0.5704120000000 1.0
C      1  0.5167060000000  0.5194090000000  0.4580670000000 1.0
C      1  0.5663210000000  0.5557750000000  0.4918830000000 1.0
C      1  0.5805910000000  0.4957420000000  0.5369350000000 1.0
C      1  0.5545360000000  0.4812200000000  0.4477150000000 1.0
C      1  0.5162870000000  0.4386020000000  0.4867320000000 1.0
C      1  0.5542020000000  0.5758070000000  0.5150210000000 1.0
C      1  0.4610460000000  0.5642880000000  0.4528500000000 1.0
C      1  0.4662040000000  0.4535180000000  0.4584950000000 1.0
C      1  0.5794940000000  0.4955390000000  0.5640690000000 1.0
C      1  0.4241090000000  0.4508500000000  0.5300150000000 1.0
C      1  0.5344190000000  0.5070070000000  0.5164440000000 1.0
C      1  0.5776470000000  0.5297330000000  0.4764890000000 1.0
C      1  0.5063800000000  0.4082380000000  0.4171940000000 1.0
C      1  0.5279970000000  0.5598680000000  0.5724610000000 1.0
C      1  0.4800170000000  0.5022000000000  0.5789210000000 1.0
C      1  0.4752220000000  0.4594850000000  0.5097380000000 1.0
C      1  0.4562740000000  0.4848060000000  0.5520750000000 1.0
C      1  0.4836980000000  0.5105060000000  0.4201790000000 1.0
C      1  0.4877260000000  0.4346950000000  0.5384760000000 1.0
C      1  0.4585660000000  0.5192680000000  0.5178360000000 1.0
C      1  0.4787370000000  0.4252510000000  0.5120630000000 1.0
C      1  0.4732770000000  0.5265660000000  0.4816270000000 1.0
C      1  0.5667660000000  0.5321850000000  0.4481740000000 1.0
C      1  0.4967300000000  0.4130140000000  0.4936830000000 1.0
C      1  0.5069760000000  0.4814950000000  0.5760920000000 1.0
C      1  0.4730450000000  0.4926150000000  0.4825490000000 1.0
C      1  0.4830210000000  0.5351810000000  0.5359620000000 1.0
C      1  0.5110350000000  0.4198630000000  0.4413820000000 1.0
C      1  0.5054150000000  0.4686060000000  0.4341440000000 1.0
C      1  0.4224050000000  0.5147500000000  0.4822100000000 1.0
C      1  0.5343490000000  0.5204840000000  0.4289780000000 1.0
C      1  0.4528830000000  0.5136840000000  0.5677120000000 1.0
C      1  0.4516590000000  0.5187000000000  0.4279520000000 1.0
C      1  0.4357280000000  0.4860270000000  0.4430600000000 1.0
C      1  0.5207050000000  0.4468530000000  0.4431030000000 1.0
C      1  0.5411220000000  0.5454460000000  0.4758070000000 1.0
C      1  0.4075940000000  0.4982290000000  0.5394340000000 1.0
C      1  0.4944970000000  0.5396880000000  0.4616790000000 1.0
C      1  0.5272460000000  0.4815420000000  0.4650010000000 1.0
C      1  0.5645570000000  0.4809330000000  0.5154330000000 1.0
C      1  0.4884080000000  0.5093140000000  0.5065030000000 1.0
C      1  0.5213330000000  0.4538480000000  0.5672630000000 1.0
C      1  0.5368110000000  0.4341160000000  0.5213010000000 1.0
C      1  0.5351550000000  0.5292530000000  0.5593460000000 1.0
C      1  0.4978660000000  0.5154720000000  0.5579510000000 1.0
C      1  0.4293140000000  0.5176070000000  0.4527480000000 1.0
C      1  0.5622100000000  0.5009300000000  0.4879850000000 1.0
C      1  0.4392340000000  0.4641910000000  0.4617110000000 1.0
C      1  0.4548220000000  0.5384940000000  0.5525890000000 1.0
END
