TITL C-2778434-4341-863 -0.00279179559898031 125000 -1057.28567583993 0 0 181 (C1) n - 1
REM
REM in /home/nfs/bkarasulu/CARBON/AIRSS/Generating-Clusters/REBO/Only-C1/SD-CG/HFTN-CG
REM
REM
REM
REM
REM
REM ./C.cell (11c1c37f851c82e70ff6c80c92926a4b)
REM
REM compiler GCC version 9.2.1 20190827 (Red Hat 9.2.1-1)
REM options -cpp -mtune=generic -march=x86-64 -g -O0 -fpre-include=/usr/include/finclude/math-vector-fortran.h
REM seed -1741147378 593981801 1673840898 -384117642 -1854442566 -1852690250 1600339789 -1938053036 -301465927 1479211454 -362979789 39450844 1501908525 462192740 768677954 1501996615 -1229441985 571269842 -1305509311 -635957497 443134046 -369627286 -783871927 -145461095 -147322931 -434518498 1590514476 -1226873330 1112589375 1779200900 6819131 655334404 -1902976668
REM
CELL 1.54180   50.00000   50.00000   50.00000   90.00000   90.00000   90.00000
LATT -1
SFAC C  
C      1  0.5588500000000  0.4935650000000  0.4489740000000 1.0
C      1  0.4864670000000  0.4495880000000  0.4991600000000 1.0
C      1  0.5817230000000  0.4473340000000  0.4601330000000 1.0
C      1  0.4307730000000  0.5217620000000  0.5798230000000 1.0
C      1  0.4026400000000  0.4269520000000  0.5386290000000 1.0
C      1  0.5011550000000  0.4295040000000  0.4779500000000 1.0
C      1  0.5179780000000  0.5183050000000  0.4517980000000 1.0
C      1  0.4745100000000  0.5414320000000  0.4127530000000 1.0
C      1  0.5449870000000  0.5761910000000  0.4981340000000 1.0
C      1  0.5022150000000  0.5459530000000  0.4550040000000 1.0
C      1  0.4248590000000  0.5347350000000  0.4436870000000 1.0
C      1  0.5321520000000  0.4444280000000  0.4190200000000 1.0
C      1  0.4358520000000  0.5630750000000  0.4419240000000 1.0
C      1  0.5218600000000  0.4917060000000  0.4313300000000 1.0
C      1  0.4548380000000  0.4381520000000  0.5777690000000 1.0
C      1  0.5337380000000  0.5160200000000  0.5920080000000 1.0
C      1  0.4630620000000  0.4329570000000  0.5175020000000 1.0
C      1  0.5010370000000  0.5375660000000  0.5079230000000 1.0
C      1  0.4847660000000  0.4247760000000  0.5870950000000 1.0
C      1  0.5500770000000  0.4888890000000  0.4871810000000 1.0
C      1  0.5804710000000  0.4939480000000  0.4735250000000 1.0
C      1  0.5132280000000  0.4745240000000  0.5541390000000 1.0
C      1  0.5125840000000  0.4121650000000  0.5721080000000 1.0
C      1  0.4602900000000  0.6012370000000  0.4689850000000 1.0
C      1  0.4345850000000  0.4492530000000  0.4394170000000 1.0
C      1  0.4675310000000  0.4584130000000  0.4716540000000 1.0
C      1  0.5994230000000  0.4504640000000  0.5230220000000 1.0
C      1  0.4871220000000  0.5883530000000  0.4815750000000 1.0
C      1  0.5594540000000  0.5240800000000  0.4437150000000 1.0
C      1  0.5526220000000  0.4030550000000  0.4807080000000 1.0
C      1  0.5833220000000  0.5270770000000  0.4215240000000 1.0
C      1  0.3911330000000  0.4582830000000  0.5316810000000 1.0
C      1  0.4421150000000  0.4666160000000  0.5894810000000 1.0
C      1  0.5872400000000  0.5323800000000  0.4928360000000 1.0
C      1  0.4427090000000  0.4753880000000  0.4803810000000 1.0
C      1  0.4420430000000  0.4140110000000  0.5057200000000 1.0
C      1  0.5906550000000  0.4733120000000  0.5433470000000 1.0
C      1  0.4451780000000  0.4939490000000  0.5935540000000 1.0
C      1  0.4251840000000  0.4952880000000  0.5589340000000 1.0
C      1  0.4762590000000  0.5535860000000  0.5759640000000 1.0
C      1  0.5138240000000  0.4693980000000  0.5858220000000 1.0
C      1  0.4505750000000  0.4983160000000  0.4338750000000 1.0
C      1  0.4681550000000  0.4515590000000  0.4395800000000 1.0
C      1  0.3919560000000  0.4618770000000  0.4977040000000 1.0
C      1  0.5949860000000  0.5814350000000  0.5330670000000 1.0
C      1  0.5543560000000  0.5677070000000  0.5494930000000 1.0
C      1  0.4748360000000  0.4734920000000  0.4141330000000 1.0
C      1  0.4310990000000  0.5857540000000  0.4612870000000 1.0
C      1  0.5841600000000  0.5610130000000  0.5481700000000 1.0
C      1  0.4693150000000  0.4706300000000  0.5284570000000 1.0
C      1  0.5331540000000  0.4768600000000  0.4094940000000 1.0
C      1  0.4034400000000  0.5095320000000  0.4648170000000 1.0
C      1  0.5633500000000  0.4725480000000  0.5248430000000 1.0
C      1  0.5490130000000  0.5077310000000  0.5133230000000 1.0
C      1  0.4767190000000  0.4703720000000  0.5698340000000 1.0
C      1  0.5370740000000  0.4658650000000  0.4719710000000 1.0
C      1  0.4217110000000  0.4527980000000  0.4893890000000 1.0
C      1  0.5010820000000  0.5039180000000  0.5492060000000 1.0
C      1  0.5492170000000  0.4628240000000  0.4424870000000 1.0
C      1  0.5645450000000  0.5048080000000  0.4040290000000 1.0
C      1  0.5468900000000  0.4920380000000  0.5983180000000 1.0
C      1  0.5964970000000  0.4997570000000  0.4374220000000 1.0
C      1  0.5455890000000  0.5951090000000  0.5333340000000 1.0
C      1  0.4743720000000  0.5001110000000  0.5643090000000 1.0
C      1  0.5150400000000  0.4400030000000  0.5922970000000 1.0
C      1  0.4858260000000  0.5437790000000  0.4808240000000 1.0
C      1  0.5691410000000  0.4037780000000  0.5027170000000 1.0
C      1  0.3963010000000  0.5347890000000  0.4851430000000 1.0
C      1  0.5882680000000  0.4687970000000  0.4393140000000 1.0
C      1  0.5302010000000  0.5320950000000  0.5057470000000 1.0
C      1  0.4715940000000  0.5728570000000  0.5312280000000 1.0
C      1  0.5041150000000  0.4329510000000  0.4116950000000 1.0
C      1  0.3940690000000  0.4883100000000  0.5475300000000 1.0
C      1  0.3844910000000  0.5244190000000  0.5090970000000 1.0
C      1  0.5189270000000  0.5855510000000  0.5540330000000 1.0
C      1  0.5483780000000  0.4236510000000  0.5588030000000 1.0
C      1  0.5617990000000  0.5685160000000  0.4725880000000 1.0
C      1  0.5776000000000  0.5187070000000  0.5178520000000 1.0
C      1  0.4642850000000  0.5270830000000  0.5826910000000 1.0
C      1  0.4114700000000  0.5055240000000  0.4320010000000 1.0
C      1  0.4232810000000  0.4562950000000  0.5215550000000 1.0
C      1  0.4659890000000  0.5798750000000  0.4432580000000 1.0
C      1  0.4516750000000  0.5355530000000  0.3992840000000 1.0
C      1  0.5200690000000  0.3959460000000  0.4882060000000 1.0
C      1  0.5616800000000  0.4235370000000  0.4590490000000 1.0
C      1  0.4819160000000  0.4970260000000  0.4381520000000 1.0
C      1  0.4896380000000  0.4515180000000  0.5452420000000 1.0
C      1  0.5095270000000  0.5099020000000  0.3980700000000 1.0
C      1  0.4509420000000  0.4395120000000  0.5477060000000 1.0
C      1  0.5797270000000  0.5924720000000  0.4889330000000 1.0
C      1  0.3850950000000  0.4932120000000  0.5087790000000 1.0
C      1  0.5429110000000  0.5166750000000  0.5517150000000 1.0
C      1  0.5417780000000  0.4214390000000  0.5882330000000 1.0
C      1  0.3964690000000  0.5195170000000  0.5365680000000 1.0
C      1  0.4854950000000  0.4253480000000  0.4318420000000 1.0
C      1  0.6107160000000  0.5444000000000  0.4910180000000 1.0
C      1  0.4154500000000  0.4881120000000  0.5208740000000 1.0
C      1  0.4899760000000  0.5115860000000  0.5211600000000 1.0
C      1  0.4861360000000  0.4838620000000  0.5017990000000 1.0
C      1  0.5063920000000  0.5499780000000  0.5693950000000 1.0
C      1  0.5514890000000  0.5412470000000  0.5897430000000 1.0
C      1  0.4233500000000  0.5312600000000  0.5417240000000 1.0
C      1  0.4101020000000  0.5588970000000  0.4888900000000 1.0
C      1  0.4730900000000  0.5485630000000  0.4432390000000 1.0
C      1  0.5169420000000  0.4139680000000  0.4532060000000 1.0
C      1  0.4979060000000  0.5776940000000  0.4316900000000 1.0
C      1  0.4352430000000  0.5168400000000  0.4099110000000 1.0
C      1  0.5402960000000  0.5576910000000  0.5205900000000 1.0
C      1  0.4933150000000  0.4010170000000  0.5095120000000 1.0
C      1  0.5135310000000  0.5994210000000  0.4717150000000 1.0
C      1  0.4929010000000  0.5705410000000  0.5100550000000 1.0
C      1  0.4886360000000  0.4921670000000  0.4702310000000 1.0
C      1  0.4293740000000  0.4191310000000  0.5340040000000 1.0
C      1  0.4592060000000  0.5125590000000  0.5079140000000 1.0
C      1  0.4957150000000  0.4219850000000  0.5370590000000 1.0
C      1  0.4701020000000  0.4140780000000  0.4544360000000 1.0
C      1  0.5292420000000  0.4177540000000  0.5110260000000 1.0
C      1  0.5264800000000  0.5396230000000  0.5447260000000 1.0
C      1  0.4476150000000  0.5888310000000  0.5229540000000 1.0
C      1  0.4310880000000  0.4254120000000  0.4821270000000 1.0
C      1  0.4790330000000  0.4554540000000  0.5993470000000 1.0
C      1  0.5163490000000  0.4490890000000  0.5162280000000 1.0
C      1  0.4713810000000  0.5159350000000  0.4806220000000 1.0
C      1  0.5650450000000  0.5239910000000  0.5684790000000 1.0
C      1  0.4390920000000  0.5556700000000  0.4943010000000 1.0
C      1  0.3854790000000  0.4869540000000  0.4762280000000 1.0
C      1  0.4361820000000  0.5004240000000  0.4626790000000 1.0
C      1  0.5654030000000  0.5383580000000  0.4724620000000 1.0
C      1  0.5297680000000  0.6010790000000  0.4945760000000 1.0
C      1  0.5706080000000  0.5585150000000  0.4270010000000 1.0
C      1  0.4731820000000  0.5033780000000  0.6040450000000 1.0
C      1  0.4264750000000  0.5523630000000  0.5654120000000 1.0
C      1  0.4732350000000  0.3984260000000  0.5345310000000 1.0
C      1  0.4437000000000  0.4252520000000  0.4570600000000 1.0
C      1  0.5495990000000  0.4513930000000  0.5070720000000 1.0
C      1  0.5752550000000  0.4317510000000  0.5115770000000 1.0
C      1  0.5373390000000  0.5156100000000  0.4005010000000 1.0
C      1  0.5390740000000  0.5347640000000  0.4222970000000 1.0
C      1  0.5363570000000  0.4459950000000  0.5437740000000 1.0
C      1  0.4429860000000  0.4789530000000  0.4061000000000 1.0
C      1  0.4967310000000  0.5214070000000  0.4241030000000 1.0
C      1  0.5256010000000  0.4077420000000  0.5409730000000 1.0
C      1  0.4253590000000  0.5804350000000  0.5466270000000 1.0
C      1  0.4424110000000  0.5354810000000  0.5156310000000 1.0
C      1  0.5666090000000  0.4747020000000  0.4146860000000 1.0
C      1  0.5752810000000  0.5951750000000  0.5166610000000 1.0
C      1  0.4854230000000  0.5821190000000  0.5589740000000 1.0
C      1  0.5131740000000  0.4789680000000  0.4568880000000 1.0
C      1  0.4634060000000  0.5647280000000  0.4838330000000 1.0
C      1  0.4899280000000  0.4497620000000  0.3949480000000 1.0
C      1  0.5908490000000  0.4523090000000  0.4897810000000 1.0
C      1  0.6084920000000  0.5074420000000  0.4638020000000 1.0
C      1  0.4606670000000  0.5453430000000  0.5398530000000 1.0
C      1  0.4412340000000  0.4709380000000  0.5459040000000 1.0
C      1  0.5200100000000  0.5539390000000  0.4270840000000 1.0
C      1  0.4518540000000  0.5132600000000  0.5473310000000 1.0
C      1  0.5668650000000  0.4753390000000  0.5912890000000 1.0
C      1  0.5394300000000  0.4241970000000  0.4414670000000 1.0
C      1  0.5234840000000  0.5881380000000  0.4468590000000 1.0
C      1  0.4363820000000  0.5965970000000  0.4923190000000 1.0
C      1  0.5109110000000  0.5194340000000  0.5753160000000 1.0
C      1  0.4931490000000  0.4839300000000  0.6035610000000 1.0
C      1  0.6159590000000  0.4989500000000  0.5085680000000 1.0
C      1  0.5386770000000  0.4886370000000  0.5392450000000 1.0
C      1  0.5358590000000  0.5643200000000  0.5747400000000 1.0
C      1  0.5320620000000  0.4370320000000  0.4821550000000 1.0
C      1  0.4459080000000  0.4866010000000  0.5095050000000 1.0
C      1  0.4154250000000  0.5810690000000  0.5140410000000 1.0
C      1  0.4538240000000  0.5298790000000  0.4579860000000 1.0
C      1  0.4205830000000  0.4728850000000  0.4278150000000 1.0
C      1  0.4880620000000  0.3989540000000  0.4762340000000 1.0
C      1  0.5874730000000  0.5303250000000  0.5483120000000 1.0
C      1  0.5517130000000  0.5745140000000  0.4439580000000 1.0
C      1  0.6264940000000  0.5081190000000  0.4853740000000 1.0
C      1  0.5378970000000  0.5187800000000  0.4766960000000 1.0
C      1  0.5848300000000  0.4680560000000  0.5727710000000 1.0
C      1  0.5874680000000  0.4827590000000  0.5034060000000 1.0
C      1  0.6001570000000  0.5014750000000  0.5363450000000 1.0
C      1  0.5151410000000  0.5894640000000  0.5210120000000 1.0
C      1  0.4924700000000  0.4901900000000  0.3898030000000 1.0
C      1  0.4526110000000  0.5742730000000  0.5662710000000 1.0
END
