TITL C-2778424-3986-304 -1.15733443765937e-05 125000 -186.466046513615 0 0 34 (C1) n - 1
REM
REM in /home/nfs/bkarasulu/CARBON/AIRSS/Generating-Clusters/REBO/Only-C1/SD-CG/HFTN-CG
REM
REM
REM
REM
REM
REM ./C.cell (11c1c37f851c82e70ff6c80c92926a4b)
REM
REM compiler GCC version 9.2.1 20190827 (Red Hat 9.2.1-1)
REM options -cpp -mtune=generic -march=x86-64 -g -O0 -fpre-include=/usr/include/finclude/math-vector-fortran.h
REM seed 1548065633 -1722891328 -2131508244 -421704236 -1908664063 -182834095 -1731587974 -1458697577 121794551 -1041059080 1892947798 -1123128734 625269078 1280688487 -294911931 1436532139 1216248219 -1537608143 307076238 -2056575942 69928811 467418565 -1811017573 1797114506 1622759913 -202096427 997937741 131725009 -795248671 -225927856 996208843 1959666242 -163903368
REM
CELL 1.54180   50.00000   50.00000   50.00000   90.00000   90.00000   90.00000
LATT -1
SFAC C  
C      1  0.5137890000000  0.4991790000000  0.4234320000000 1.0
C      1  0.4721060000000  0.4790910000000  0.5654260000000 1.0
C      1  0.5027040000000  0.4904440000000  0.5013140000000 1.0
C      1  0.4817500000000  0.5083270000000  0.5521890000000 1.0
C      1  0.5199460000000  0.5656150000000  0.4828840000000 1.0
C      1  0.4593280000000  0.4142520000000  0.5607580000000 1.0
C      1  0.4631170000000  0.4309370000000  0.5854840000000 1.0
C      1  0.5614380000000  0.5383890000000  0.4936440000000 1.0
C      1  0.4454280000000  0.4971820000000  0.4948450000000 1.0
C      1  0.4642740000000  0.5181090000000  0.4804610000000 1.0
C      1  0.5098030000000  0.5218270000000  0.5413890000000 1.0
C      1  0.4610510000000  0.4350080000000  0.5358100000000 1.0
C      1  0.5166000000000  0.4936590000000  0.3969490000000 1.0
C      1  0.5363510000000  0.5255480000000  0.5372270000000 1.0
C      1  0.4765140000000  0.4902480000000  0.5062850000000 1.0
C      1  0.4957660000000  0.5548630000000  0.4879670000000 1.0
C      1  0.4480060000000  0.4662340000000  0.4923680000000 1.0
C      1  0.4835300000000  0.5254480000000  0.5239060000000 1.0
C      1  0.6120130000000  0.5168350000000  0.4446840000000 1.0
C      1  0.4745300000000  0.5039780000000  0.5848560000000 1.0
C      1  0.5466130000000  0.5608680000000  0.4846220000000 1.0
C      1  0.5440660000000  0.5006800000000  0.4680550000000 1.0
C      1  0.5352920000000  0.4969180000000  0.4415510000000 1.0
C      1  0.5665300000000  0.5176350000000  0.4739350000000 1.0
C      1  0.4704120000000  0.4471690000000  0.5060060000000 1.0
C      1  0.4378980000000  0.4434960000000  0.5129940000000 1.0
C      1  0.4721710000000  0.5143790000000  0.4540110000000 1.0
C      1  0.4209620000000  0.5067300000000  0.5032890000000 1.0
C      1  0.4794140000000  0.5343370000000  0.4980430000000 1.0
C      1  0.4892750000000  0.5074970000000  0.4344860000000 1.0
C      1  0.4664710000000  0.4532500000000  0.5632470000000 1.0
C      1  0.5899730000000  0.5172230000000  0.4588580000000 1.0
C      1  0.5568650000000  0.5307220000000  0.5204620000000 1.0
C      1  0.5260110000000  0.4939220000000  0.4885650000000 1.0
END
