TITL C-2778436-5916-1233 0.000682210720492713 125000 -357.278214357083 0 0 64 (C1) n - 1
REM
REM in /home/nfs/bkarasulu/CARBON/AIRSS/Generating-Clusters/REBO/Only-C1/SD-CG/HFTN-CG
REM
REM
REM
REM
REM
REM ./C.cell (11c1c37f851c82e70ff6c80c92926a4b)
REM
REM compiler GCC version 9.2.1 20190827 (Red Hat 9.2.1-1)
REM options -cpp -mtune=generic -march=x86-64 -g -O0 -fpre-include=/usr/include/finclude/math-vector-fortran.h
REM seed 1216571748 -220660083 398008252 -680582980 -1889797383 -435012426 -1422504763 -350481756 431499640 675319301 -787441511 543211448 1416409252 1918315438 60747267 -2085520920 394433097 -1776555498 -482546297 558552752 1497063765 -134372002 794970759 -1541350755 184279616 728587034 725088446 1450085203 -1406535373 1200868559 1027600226 1067861339 -340729643
REM
CELL 1.54180   50.00000   50.00000   50.00000   90.00000   90.00000   90.00000
LATT -1
SFAC C  
C      1  0.4361720000000  0.4494700000000  0.4889600000000 1.0
C      1  0.5005740000000  0.5205300000000  0.5732970000000 1.0
C      1  0.4685350000000  0.4769370000000  0.4406650000000 1.0
C      1  0.5170440000000  0.4873990000000  0.5379560000000 1.0
C      1  0.4855830000000  0.5209950000000  0.4992340000000 1.0
C      1  0.4767680000000  0.5459240000000  0.5209280000000 1.0
C      1  0.4653300000000  0.4459250000000  0.5013210000000 1.0
C      1  0.4490670000000  0.5239810000000  0.5396660000000 1.0
C      1  0.5588800000000  0.4721230000000  0.4933260000000 1.0
C      1  0.5546430000000  0.5216590000000  0.4391190000000 1.0
C      1  0.5579910000000  0.4991120000000  0.5091430000000 1.0
C      1  0.4665370000000  0.5694720000000  0.4861660000000 1.0
C      1  0.5375820000000  0.4688830000000  0.4446090000000 1.0
C      1  0.4790240000000  0.4995930000000  0.4516080000000 1.0
C      1  0.5495980000000  0.4647810000000  0.5427720000000 1.0
C      1  0.5236710000000  0.4477350000000  0.4323210000000 1.0
C      1  0.4340120000000  0.5806480000000  0.5238220000000 1.0
C      1  0.4789900000000  0.5285720000000  0.5484900000000 1.0
C      1  0.5165520000000  0.4964540000000  0.4640490000000 1.0
C      1  0.4728720000000  0.4163170000000  0.5040610000000 1.0
C      1  0.4389750000000  0.5140220000000  0.4717560000000 1.0
C      1  0.4226780000000  0.4705030000000  0.5004930000000 1.0
C      1  0.5199420000000  0.4291290000000  0.5024510000000 1.0
C      1  0.5680160000000  0.5316950000000  0.4657790000000 1.0
C      1  0.5258830000000  0.4074420000000  0.5159110000000 1.0
C      1  0.5370240000000  0.5412840000000  0.4972220000000 1.0
C      1  0.4747870000000  0.5354850000000  0.4351270000000 1.0
C      1  0.4787880000000  0.4535510000000  0.4531940000000 1.0
C      1  0.4854060000000  0.4608800000000  0.4834620000000 1.0
C      1  0.5095130000000  0.5779680000000  0.4879030000000 1.0
C      1  0.4306290000000  0.5006970000000  0.4985640000000 1.0
C      1  0.4865350000000  0.4652630000000  0.5506150000000 1.0
C      1  0.5306860000000  0.5612620000000  0.4782840000000 1.0
C      1  0.5227430000000  0.5439540000000  0.4307500000000 1.0
C      1  0.4371640000000  0.4786390000000  0.5276120000000 1.0
C      1  0.4371230000000  0.5001950000000  0.5480750000000 1.0
C      1  0.5596220000000  0.5249740000000  0.4920660000000 1.0
C      1  0.5141560000000  0.5274210000000  0.5128810000000 1.0
C      1  0.5306720000000  0.5272880000000  0.5698650000000 1.0
C      1  0.4612090000000  0.5416500000000  0.4844000000000 1.0
C      1  0.4976460000000  0.5717180000000  0.5134030000000 1.0
C      1  0.5076180000000  0.4700820000000  0.5842410000000 1.0
C      1  0.4471070000000  0.5589070000000  0.5194390000000 1.0
C      1  0.4899950000000  0.4973920000000  0.5512550000000 1.0
C      1  0.4960690000000  0.5525670000000  0.4225040000000 1.0
C      1  0.5339860000000  0.4699080000000  0.4764440000000 1.0
C      1  0.5281350000000  0.5027290000000  0.5207270000000 1.0
C      1  0.4554800000000  0.5318110000000  0.4539200000000 1.0
C      1  0.5447430000000  0.5525320000000  0.4513190000000 1.0
C      1  0.4984940000000  0.4926990000000  0.5900270000000 1.0
C      1  0.4432660000000  0.5277240000000  0.5089210000000 1.0
C      1  0.5043010000000  0.5179430000000  0.4404510000000 1.0
C      1  0.5393720000000  0.4988270000000  0.4386200000000 1.0
C      1  0.4880750000000  0.4949060000000  0.4826590000000 1.0
C      1  0.5512780000000  0.5128280000000  0.5597380000000 1.0
C      1  0.5199920000000  0.4600070000000  0.5557920000000 1.0
C      1  0.5145090000000  0.5541470000000  0.5305810000000 1.0
C      1  0.5847530000000  0.4677730000000  0.4778340000000 1.0
C      1  0.4609880000000  0.4591450000000  0.5290210000000 1.0
C      1  0.5139130000000  0.4511390000000  0.4887920000000 1.0
C      1  0.5557210000000  0.4524520000000  0.5186610000000 1.0
C      1  0.4983540000000  0.4390090000000  0.4387670000000 1.0
C      1  0.5598040000000  0.4922700000000  0.5424920000000 1.0
C      1  0.4654250000000  0.4416730000000  0.5564690000000 1.0
END
