TITL C-2778422-5617-240 0.00042580058806261 125000 -668.592531302633 0 0 115 (C1) n - 1
REM
REM in /home/nfs/bkarasulu/CARBON/AIRSS/Generating-Clusters/REBO/Only-C1/SD-CG/HFTN-CG
REM
REM
REM
REM
REM
REM ./C.cell (11c1c37f851c82e70ff6c80c92926a4b)
REM
REM compiler GCC version 9.2.1 20190827 (Red Hat 9.2.1-1)
REM options -cpp -mtune=generic -march=x86-64 -g -O0 -fpre-include=/usr/include/finclude/math-vector-fortran.h
REM seed 238395147 911931499 -533222345 -1103142821 -122400980 -1637533960 -2011260844 1692769081 1944616651 -865910269 39700588 -2119367568 1608514587 2101340211 -981812832 599630071 755555963 151760090 1609764017 -2081442081 -271455245 -95417982 -142181958 -333012214 1623558683 1502742921 -669801225 -607751836 2143275845 -1549490724 1322603322 -54332322 1237222867
REM
CELL 1.54180   50.00000   50.00000   50.00000   90.00000   90.00000   90.00000
LATT -1
SFAC C  
C      1  0.4610030000000  0.5815990000000  0.5376670000000 1.0
C      1  0.4943400000000  0.4103180000000  0.4813540000000 1.0
C      1  0.4901980000000  0.5469130000000  0.5751720000000 1.0
C      1  0.4085510000000  0.5222330000000  0.5014650000000 1.0
C      1  0.4354690000000  0.4530780000000  0.4796520000000 1.0
C      1  0.4838110000000  0.5010160000000  0.5884430000000 1.0
C      1  0.4372360000000  0.5271320000000  0.4280860000000 1.0
C      1  0.5060670000000  0.4602920000000  0.4093580000000 1.0
C      1  0.4342820000000  0.5367470000000  0.5451840000000 1.0
C      1  0.5387380000000  0.4568740000000  0.5479640000000 1.0
C      1  0.5134770000000  0.4975140000000  0.4609190000000 1.0
C      1  0.5221290000000  0.5315340000000  0.5328600000000 1.0
C      1  0.5373030000000  0.4923870000000  0.4841900000000 1.0
C      1  0.5090260000000  0.5868550000000  0.4983490000000 1.0
C      1  0.5525020000000  0.5004250000000  0.5300430000000 1.0
C      1  0.4551100000000  0.5215490000000  0.5568080000000 1.0
C      1  0.5026180000000  0.4985870000000  0.5674630000000 1.0
C      1  0.5283820000000  0.4685350000000  0.4323330000000 1.0
C      1  0.5353050000000  0.4434980000000  0.5105800000000 1.0
C      1  0.4922670000000  0.5572030000000  0.5009440000000 1.0
C      1  0.4410650000000  0.4994460000000  0.4289830000000 1.0
C      1  0.4622680000000  0.4891090000000  0.4524740000000 1.0
C      1  0.5353030000000  0.5756680000000  0.5134790000000 1.0
C      1  0.5511560000000  0.5202530000000  0.4286760000000 1.0
C      1  0.4776080000000  0.5888340000000  0.4583420000000 1.0
C      1  0.4528360000000  0.5519020000000  0.5030530000000 1.0
C      1  0.5193950000000  0.4753230000000  0.5643660000000 1.0
C      1  0.4352470000000  0.4691760000000  0.4310090000000 1.0
C      1  0.5817680000000  0.4718690000000  0.4965820000000 1.0
C      1  0.4678130000000  0.4130860000000  0.5340410000000 1.0
C      1  0.5575150000000  0.5500310000000  0.4433440000000 1.0
C      1  0.5263630000000  0.5415050000000  0.4758290000000 1.0
C      1  0.5391090000000  0.4282010000000  0.5594460000000 1.0
C      1  0.5216820000000  0.5400250000000  0.4091640000000 1.0
C      1  0.4693980000000  0.5253310000000  0.5816370000000 1.0
C      1  0.5282830000000  0.5282970000000  0.5830020000000 1.0
C      1  0.5157260000000  0.4189050000000  0.5226870000000 1.0
C      1  0.5663290000000  0.4696240000000  0.5502930000000 1.0
C      1  0.5295220000000  0.5487530000000  0.5681080000000 1.0
C      1  0.5905890000000  0.5153280000000  0.4571500000000 1.0
C      1  0.4490700000000  0.5699880000000  0.4559220000000 1.0
C      1  0.4442380000000  0.5593280000000  0.5314660000000 1.0
C      1  0.4763010000000  0.4576310000000  0.4534200000000 1.0
C      1  0.5789090000000  0.5232720000000  0.5490190000000 1.0
C      1  0.5322030000000  0.4106990000000  0.4940750000000 1.0
C      1  0.5877600000000  0.4969330000000  0.4787700000000 1.0
C      1  0.4503580000000  0.5520400000000  0.4313140000000 1.0
C      1  0.5111810000000  0.5334870000000  0.5027530000000 1.0
C      1  0.4961510000000  0.4558940000000  0.4996840000000 1.0
C      1  0.4634690000000  0.4646300000000  0.4957450000000 1.0
C      1  0.4337690000000  0.4665030000000  0.5104600000000 1.0
C      1  0.5436990000000  0.4338140000000  0.4729600000000 1.0
C      1  0.4665550000000  0.5234100000000  0.5037300000000 1.0
C      1  0.4139160000000  0.5173830000000  0.5329190000000 1.0
C      1  0.4754050000000  0.5114020000000  0.5344410000000 1.0
C      1  0.5287450000000  0.4768380000000  0.6029040000000 1.0
C      1  0.5464680000000  0.5645210000000  0.4860430000000 1.0
C      1  0.5753390000000  0.5553360000000  0.4876250000000 1.0
C      1  0.4580790000000  0.4022760000000  0.5096160000000 1.0
C      1  0.5851250000000  0.5565040000000  0.5139300000000 1.0
C      1  0.5053640000000  0.4353320000000  0.4778030000000 1.0
C      1  0.5347400000000  0.5195350000000  0.4552230000000 1.0
C      1  0.4665200000000  0.4113560000000  0.4841730000000 1.0
C      1  0.5799480000000  0.5425590000000  0.4623310000000 1.0
C      1  0.5812310000000  0.5060690000000  0.4315160000000 1.0
C      1  0.4602790000000  0.4546220000000  0.4249280000000 1.0
C      1  0.4952670000000  0.4194910000000  0.5420090000000 1.0
C      1  0.5773930000000  0.4796870000000  0.4158550000000 1.0
C      1  0.5390610000000  0.5725830000000  0.4544630000000 1.0
C      1  0.4076170000000  0.4884510000000  0.4657570000000 1.0
C      1  0.4618650000000  0.4483810000000  0.5715070000000 1.0
C      1  0.5282390000000  0.3983590000000  0.4640890000000 1.0
C      1  0.4994080000000  0.5376400000000  0.4543290000000 1.0
C      1  0.5183220000000  0.4140810000000  0.4465140000000 1.0
C      1  0.5118900000000  0.4556340000000  0.5883740000000 1.0
C      1  0.4786320000000  0.5856740000000  0.5137010000000 1.0
C      1  0.5642720000000  0.5074360000000  0.4987310000000 1.0
C      1  0.4911210000000  0.4357390000000  0.5719140000000 1.0
C      1  0.4799270000000  0.4542890000000  0.4045060000000 1.0
C      1  0.4138030000000  0.4854440000000  0.5216310000000 1.0
C      1  0.5711890000000  0.5496390000000  0.5378650000000 1.0
C      1  0.4510370000000  0.4323700000000  0.5463990000000 1.0
C      1  0.4582580000000  0.4344200000000  0.4703500000000 1.0
C      1  0.4809820000000  0.4928370000000  0.4998650000000 1.0
C      1  0.4060730000000  0.5480500000000  0.4898330000000 1.0
C      1  0.4828390000000  0.5123780000000  0.4615010000000 1.0
C      1  0.5118530000000  0.4619430000000  0.5275080000000 1.0
C      1  0.5075820000000  0.4454730000000  0.4463330000000 1.0
C      1  0.4820410000000  0.4783010000000  0.5296100000000 1.0
C      1  0.4612430000000  0.5805830000000  0.4864900000000 1.0
C      1  0.4199330000000  0.4900690000000  0.5529240000000 1.0
C      1  0.5377320000000  0.4658080000000  0.4628380000000 1.0
C      1  0.4995430000000  0.5440490000000  0.4250450000000 1.0
C      1  0.5788670000000  0.4783240000000  0.5237870000000 1.0
C      1  0.4557430000000  0.4622420000000  0.5346700000000 1.0
C      1  0.4394520000000  0.4713660000000  0.5616680000000 1.0
C      1  0.5113650000000  0.5884030000000  0.4643490000000 1.0
C      1  0.4746360000000  0.5543770000000  0.4166010000000 1.0
C      1  0.5615550000000  0.4992870000000  0.5629530000000 1.0
C      1  0.4864710000000  0.5741250000000  0.5783540000000 1.0
C      1  0.5389120000000  0.5004630000000  0.5835090000000 1.0
C      1  0.4297520000000  0.5580410000000  0.4806220000000 1.0
C      1  0.4209950000000  0.4653350000000  0.4563880000000 1.0
C      1  0.4949230000000  0.4768600000000  0.4747160000000 1.0
C      1  0.5567950000000  0.4579480000000  0.4898850000000 1.0
C      1  0.4524170000000  0.5088290000000  0.4774730000000 1.0
C      1  0.4925910000000  0.5619720000000  0.4705660000000 1.0
C      1  0.5199810000000  0.4195080000000  0.5733330000000 1.0
C      1  0.5876220000000  0.5171100000000  0.5214950000000 1.0
C      1  0.5483000000000  0.4878350000000  0.4192170000000 1.0
C      1  0.4222300000000  0.5052340000000  0.4831800000000 1.0
C      1  0.5003410000000  0.5254160000000  0.5516910000000 1.0
C      1  0.4703260000000  0.5897170000000  0.5627270000000 1.0
C      1  0.5412680000000  0.5567030000000  0.5381500000000 1.0
C      1  0.5267260000000  0.5057810000000  0.5114540000000 1.0
END
