TITL C-2778429-3646-147 -0.0033235254844826 125000 -994.37771564016 0 0 168 (C1) n - 1
REM
REM in /home/nfs/bkarasulu/CARBON/AIRSS/Generating-Clusters/REBO/Only-C1/SD-CG/HFTN-CG
REM
REM
REM
REM
REM
REM ./C.cell (11c1c37f851c82e70ff6c80c92926a4b)
REM
REM compiler GCC version 9.2.1 20190827 (Red Hat 9.2.1-1)
REM options -cpp -mtune=generic -march=x86-64 -g -O0 -fpre-include=/usr/include/finclude/math-vector-fortran.h
REM seed 1523744319 1785426541 -140332468 -875266629 -25975951 1565046249 1246996422 1709847518 -494138256 -2105334112 472284679 2039936336 -950863960 -620801978 -2098205537 35227925 1266352139 1033162651 1734714520 419357209 559428274 916265641 1115056548 301053755 354622563 -289747916 240058910 -1993082269 1434515376 -337368191 70957499 490612224 784372945
REM
CELL 1.54180   50.00000   50.00000   50.00000   90.00000   90.00000   90.00000
LATT -1
SFAC C  
C      1  0.4148720000000  0.5350790000000  0.5113770000000 1.0
C      1  0.5470810000000  0.5471040000000  0.4195450000000 1.0
C      1  0.4169550000000  0.4960740000000  0.5781530000000 1.0
C      1  0.5440670000000  0.4440270000000  0.5836040000000 1.0
C      1  0.4343310000000  0.5009360000000  0.4846310000000 1.0
C      1  0.5670530000000  0.5833840000000  0.4819890000000 1.0
C      1  0.4432090000000  0.4485960000000  0.4478700000000 1.0
C      1  0.5515630000000  0.5121650000000  0.5606390000000 1.0
C      1  0.4462800000000  0.5416190000000  0.4576180000000 1.0
C      1  0.5453620000000  0.4288120000000  0.4984140000000 1.0
C      1  0.3950160000000  0.4424270000000  0.5368540000000 1.0
C      1  0.5043740000000  0.5085470000000  0.5349740000000 1.0
C      1  0.4577690000000  0.5654830000000  0.4241390000000 1.0
C      1  0.5271410000000  0.4931380000000  0.5552840000000 1.0
C      1  0.4735330000000  0.5062420000000  0.5989780000000 1.0
C      1  0.4735580000000  0.5409020000000  0.5543470000000 1.0
C      1  0.3837560000000  0.4667260000000  0.5296330000000 1.0
C      1  0.5604120000000  0.5416500000000  0.5067430000000 1.0
C      1  0.4389740000000  0.4781830000000  0.5376560000000 1.0
C      1  0.4877810000000  0.4557320000000  0.5772490000000 1.0
C      1  0.4921200000000  0.5646360000000  0.5384370000000 1.0
C      1  0.4769250000000  0.5726950000000  0.4925640000000 1.0
C      1  0.4945080000000  0.4142660000000  0.4316650000000 1.0
C      1  0.5261290000000  0.4765040000000  0.4743220000000 1.0
C      1  0.5159040000000  0.5151320000000  0.4927210000000 1.0
C      1  0.5265910000000  0.4217840000000  0.5670580000000 1.0
C      1  0.5371360000000  0.4639650000000  0.5564010000000 1.0
C      1  0.4813250000000  0.5167680000000  0.4905380000000 1.0
C      1  0.5504860000000  0.5199900000000  0.4605410000000 1.0
C      1  0.5979220000000  0.5550440000000  0.5040510000000 1.0
C      1  0.4551490000000  0.5188630000000  0.5502460000000 1.0
C      1  0.4586370000000  0.4812950000000  0.4878320000000 1.0
C      1  0.5565100000000  0.4291680000000  0.5551260000000 1.0
C      1  0.4808760000000  0.4883800000000  0.5097790000000 1.0
C      1  0.5348950000000  0.3994010000000  0.5234140000000 1.0
C      1  0.4000590000000  0.5096490000000  0.4659700000000 1.0
C      1  0.5082070000000  0.5133580000000  0.3750450000000 1.0
C      1  0.4310630000000  0.5230550000000  0.5731560000000 1.0
C      1  0.5378260000000  0.4716720000000  0.5955960000000 1.0
C      1  0.5592830000000  0.4182170000000  0.5276380000000 1.0
C      1  0.4647630000000  0.4097110000000  0.5159770000000 1.0
C      1  0.5562830000000  0.5204910000000  0.4313290000000 1.0
C      1  0.5264020000000  0.3942840000000  0.4917930000000 1.0
C      1  0.4733820000000  0.4471910000000  0.4392100000000 1.0
C      1  0.5651580000000  0.4916480000000  0.5926560000000 1.0
C      1  0.4483150000000  0.4604640000000  0.5799980000000 1.0
C      1  0.5818930000000  0.5497990000000  0.5483910000000 1.0
C      1  0.4322650000000  0.5094550000000  0.5265390000000 1.0
C      1  0.5176600000000  0.4479740000000  0.4662180000000 1.0
C      1  0.4559510000000  0.5698020000000  0.5541230000000 1.0
C      1  0.4819980000000  0.4099630000000  0.4609370000000 1.0
C      1  0.5706770000000  0.4580220000000  0.5573020000000 1.0
C      1  0.4516650000000  0.4261110000000  0.4651480000000 1.0
C      1  0.4007450000000  0.5380360000000  0.4549680000000 1.0
C      1  0.4623400000000  0.5468120000000  0.5088480000000 1.0
C      1  0.5145040000000  0.4356960000000  0.5040280000000 1.0
C      1  0.5303500000000  0.5350860000000  0.5489510000000 1.0
C      1  0.4922900000000  0.4465070000000  0.5275590000000 1.0
C      1  0.5970910000000  0.4739290000000  0.4976190000000 1.0
C      1  0.4880970000000  0.5222090000000  0.3978690000000 1.0
C      1  0.5295000000000  0.5001210000000  0.3969990000000 1.0
C      1  0.4861950000000  0.4484460000000  0.4705380000000 1.0
C      1  0.5667550000000  0.5386480000000  0.5722870000000 1.0
C      1  0.5318350000000  0.5431990000000  0.4906460000000 1.0
C      1  0.5103180000000  0.6004780000000  0.5371650000000 1.0
C      1  0.5381170000000  0.5720380000000  0.5618780000000 1.0
C      1  0.4857420000000  0.5701410000000  0.4333310000000 1.0
C      1  0.4378920000000  0.5080580000000  0.4532860000000 1.0
C      1  0.5274340000000  0.5993770000000  0.5084920000000 1.0
C      1  0.5678100000000  0.4413180000000  0.4757010000000 1.0
C      1  0.5092990000000  0.4165330000000  0.4759160000000 1.0
C      1  0.4685920000000  0.4913230000000  0.5371480000000 1.0
C      1  0.4593370000000  0.5298350000000  0.5906790000000 1.0
C      1  0.5091490000000  0.4056980000000  0.5443710000000 1.0
C      1  0.5844190000000  0.4822900000000  0.5741710000000 1.0
C      1  0.4176880000000  0.4324190000000  0.5230310000000 1.0
C      1  0.4282630000000  0.4715560000000  0.4400800000000 1.0
C      1  0.5000550000000  0.4367020000000  0.5553240000000 1.0
C      1  0.4043550000000  0.4649270000000  0.4850220000000 1.0
C      1  0.5453050000000  0.5585870000000  0.5322970000000 1.0
C      1  0.5288930000000  0.5542320000000  0.4625870000000 1.0
C      1  0.4610100000000  0.4735410000000  0.3990320000000 1.0
C      1  0.5494580000000  0.4060650000000  0.4733340000000 1.0
C      1  0.5146000000000  0.5876360000000  0.5618250000000 1.0
C      1  0.4360250000000  0.5147120000000  0.4139060000000 1.0
C      1  0.4741300000000  0.5558330000000  0.5911080000000 1.0
C      1  0.5234250000000  0.5353320000000  0.5917450000000 1.0
C      1  0.4492020000000  0.4551940000000  0.4981480000000 1.0
C      1  0.5096410000000  0.5775870000000  0.4644610000000 1.0
C      1  0.4459000000000  0.4253880000000  0.5368060000000 1.0
C      1  0.5513570000000  0.4947700000000  0.4193560000000 1.0
C      1  0.5703530000000  0.4681040000000  0.4579620000000 1.0
C      1  0.5091370000000  0.3787130000000  0.5151570000000 1.0
C      1  0.3912410000000  0.4811760000000  0.5067400000000 1.0
C      1  0.4203310000000  0.5622370000000  0.4958700000000 1.0
C      1  0.4612460000000  0.4380160000000  0.5642700000000 1.0
C      1  0.4090470000000  0.4812510000000  0.4602410000000 1.0
C      1  0.4761760000000  0.4789180000000  0.4629930000000 1.0
C      1  0.4767850000000  0.4301870000000  0.4133450000000 1.0
C      1  0.4602530000000  0.4534640000000  0.5274240000000 1.0
C      1  0.4396310000000  0.5843960000000  0.4998490000000 1.0
C      1  0.5477420000000  0.5893960000000  0.4620510000000 1.0
C      1  0.4808010000000  0.4337480000000  0.4979980000000 1.0
C      1  0.4792840000000  0.4945820000000  0.4143240000000 1.0
C      1  0.5507450000000  0.4760930000000  0.4917770000000 1.0
C      1  0.5020250000000  0.5914760000000  0.4277470000000 1.0
C      1  0.5878450000000  0.4271920000000  0.5176340000000 1.0
C      1  0.4180790000000  0.5257460000000  0.4342380000000 1.0
C      1  0.5561060000000  0.5832820000000  0.5123480000000 1.0
C      1  0.5525390000000  0.4715060000000  0.4358580000000 1.0
C      1  0.4572600000000  0.5890140000000  0.4710470000000 1.0
C      1  0.5911500000000  0.5683070000000  0.4799210000000 1.0
C      1  0.5697070000000  0.5284110000000  0.4781120000000 1.0
C      1  0.5944490000000  0.4075630000000  0.4409090000000 1.0
C      1  0.5115900000000  0.4938880000000  0.4234060000000 1.0
C      1  0.4683770000000  0.4794130000000  0.5927000000000 1.0
C      1  0.6017880000000  0.4935610000000  0.5179940000000 1.0
C      1  0.5886740000000  0.4468910000000  0.4989310000000 1.0
C      1  0.4399360000000  0.5719960000000  0.4511000000000 1.0
C      1  0.5221880000000  0.4219850000000  0.4316420000000 1.0
C      1  0.4981500000000  0.4691230000000  0.4386690000000 1.0
C      1  0.4662810000000  0.4984640000000  0.4421410000000 1.0
C      1  0.4892060000000  0.5294090000000  0.5199150000000 1.0
C      1  0.5793370000000  0.5160840000000  0.5421560000000 1.0
C      1  0.4922960000000  0.5445780000000  0.4502750000000 1.0
C      1  0.4932740000000  0.5949780000000  0.5089720000000 1.0
C      1  0.4593960000000  0.4027220000000  0.4850830000000 1.0
C      1  0.4599920000000  0.6002350000000  0.5157350000000 1.0
C      1  0.4838530000000  0.3908340000000  0.5299390000000 1.0
C      1  0.5898960000000  0.5246660000000  0.5123240000000 1.0
C      1  0.5766260000000  0.4156400000000  0.4576540000000 1.0
C      1  0.5140820000000  0.4835760000000  0.5053820000000 1.0
C      1  0.4888850000000  0.5015820000000  0.5624520000000 1.0
C      1  0.5458320000000  0.4855650000000  0.5196380000000 1.0
C      1  0.5469910000000  0.5676470000000  0.4396080000000 1.0
C      1  0.4224970000000  0.4456430000000  0.4972300000000 1.0
C      1  0.4129590000000  0.5609020000000  0.4676880000000 1.0
C      1  0.4889580000000  0.6005180000000  0.4666590000000 1.0
C      1  0.5452720000000  0.5541340000000  0.5825000000000 1.0
C      1  0.4679290000000  0.5298920000000  0.4389580000000 1.0
C      1  0.5275430000000  0.4530430000000  0.4358130000000 1.0
C      1  0.5033990000000  0.5105400000000  0.6036610000000 1.0
C      1  0.5177940000000  0.5303510000000  0.4409910000000 1.0
C      1  0.4049140000000  0.5074120000000  0.4975530000000 1.0
C      1  0.5192090000000  0.5304440000000  0.4092480000000 1.0
C      1  0.4715750000000  0.5917410000000  0.5421300000000 1.0
C      1  0.4387660000000  0.4860630000000  0.4159210000000 1.0
C      1  0.4918340000000  0.5465820000000  0.4807750000000 1.0
C      1  0.5409140000000  0.4057240000000  0.4427040000000 1.0
C      1  0.5834370000000  0.5677280000000  0.5264110000000 1.0
C      1  0.5683040000000  0.4843210000000  0.5376400000000 1.0
C      1  0.5359370000000  0.5051730000000  0.6012810000000 1.0
C      1  0.5076040000000  0.5549230000000  0.5106770000000 1.0
C      1  0.5931600000000  0.5137650000000  0.4729380000000 1.0
C      1  0.5248230000000  0.4997670000000  0.4542650000000 1.0
C      1  0.6019390000000  0.4839590000000  0.5472050000000 1.0
C      1  0.4600880000000  0.5357720000000  0.4077520000000 1.0
C      1  0.5332190000000  0.5142470000000  0.5219730000000 1.0
C      1  0.5024400000000  0.5326170000000  0.5666100000000 1.0
C      1  0.4500490000000  0.5280540000000  0.4856310000000 1.0
C      1  0.5080340000000  0.4825780000000  0.5830690000000 1.0
C      1  0.4430210000000  0.5539350000000  0.5322110000000 1.0
C      1  0.5214110000000  0.6048030000000  0.4770700000000 1.0
C      1  0.4908680000000  0.5715440000000  0.5730480000000 1.0
C      1  0.4279500000000  0.4741620000000  0.5657540000000 1.0
C      1  0.4680980000000  0.4469840000000  0.3922410000000 1.0
C      1  0.5896790000000  0.4854000000000  0.4721250000000 1.0
C      1  0.4196240000000  0.5358190000000  0.5448030000000 1.0
END
