TITL C-2778431-5191-44 -0.153749783645029 125000 -348.079159109944 0 0 61 (C1) n - 1
REM
REM in /home/nfs/bkarasulu/CARBON/AIRSS/Generating-Clusters/REBO/Only-C1/SD-CG/HFTN-CG
REM
REM
REM
REM
REM
REM ./C.cell (11c1c37f851c82e70ff6c80c92926a4b)
REM
REM compiler GCC version 9.2.1 20190827 (Red Hat 9.2.1-1)
REM options -cpp -mtune=generic -march=x86-64 -g -O0 -fpre-include=/usr/include/finclude/math-vector-fortran.h
REM seed -1174610529 -90532959 532429327 1764769624 -909235945 -2020563954 -1034547146 -926817967 529374400 -393829773 -111034792 1689752995 -1440774598 1342693163 963431144 1329568893 -1115326290 -351374954 -857037362 58440878 -158191128 -1376733532 1140313688 -582991493 127144621 -1470389440 -20736864 -847492617 997000932 1633103429 517473125 -1668887892 1294876439
REM
CELL 1.54180   50.00000   50.00000   50.00000   90.00000   90.00000   90.00000
LATT -1
SFAC C  
C      1  0.4466780000000  0.4715930000000  0.4824970000000 1.0
C      1  0.5426350000000  0.5802380000000  0.4871120000000 1.0
C      1  0.4799350000000  0.4751710000000  0.4900190000000 1.0
C      1  0.5202350000000  0.4955870000000  0.4442020000000 1.0
C      1  0.5008790000000  0.4951520000000  0.4240480000000 1.0
C      1  0.5219130000000  0.4367580000000  0.4773100000000 1.0
C      1  0.4582790000000  0.5265120000000  0.4708260000000 1.0
C      1  0.4319740000000  0.4596630000000  0.5077580000000 1.0
C      1  0.4501800000000  0.4348370000000  0.5082150000000 1.0
C      1  0.5575180000000  0.4870510000000  0.5574950000000 1.0
C      1  0.5581340000000  0.5025980000000  0.4724500000000 1.0
C      1  0.4731450000000  0.5120510000000  0.5439150000000 1.0
C      1  0.5398270000000  0.4518810000000  0.4957350000000 1.0
C      1  0.5235210000000  0.5725510000000  0.5309990000000 1.0
C      1  0.4223920000000  0.4991190000000  0.4227960000000 1.0
C      1  0.4557600000000  0.4475710000000  0.4635730000000 1.0
C      1  0.5236310000000  0.4092070000000  0.4761640000000 1.0
C      1  0.4733950000000  0.5754910000000  0.4903930000000 1.0
C      1  0.5575850000000  0.4767720000000  0.4815350000000 1.0
C      1  0.5630500000000  0.5250400000000  0.4933770000000 1.0
C      1  0.4449970000000  0.5019610000000  0.4424900000000 1.0
C      1  0.4682320000000  0.5265860000000  0.4391640000000 1.0
C      1  0.4758080000000  0.4996990000000  0.4677380000000 1.0
C      1  0.5431810000000  0.5126850000000  0.5428980000000 1.0
C      1  0.4269520000000  0.4774470000000  0.5310770000000 1.0
C      1  0.4656160000000  0.4663170000000  0.5640830000000 1.0
C      1  0.4627630000000  0.4922900000000  0.5214190000000 1.0
C      1  0.5300930000000  0.5455010000000  0.5023240000000 1.0
C      1  0.5708860000000  0.4818660000000  0.5807650000000 1.0
C      1  0.5280020000000  0.4768380000000  0.5520180000000 1.0
C      1  0.5156310000000  0.5477300000000  0.4358350000000 1.0
C      1  0.4955930000000  0.5896660000000  0.4962300000000 1.0
C      1  0.4603150000000  0.5531150000000  0.4843000000000 1.0
C      1  0.4706490000000  0.4593860000000  0.5176400000000 1.0
C      1  0.4526660000000  0.5337920000000  0.5504200000000 1.0
C      1  0.5648150000000  0.4697480000000  0.5109070000000 1.0
C      1  0.5218270000000  0.5854770000000  0.5058710000000 1.0
C      1  0.4544010000000  0.4249500000000  0.4815760000000 1.0
C      1  0.4811410000000  0.4510810000000  0.5449720000000 1.0
C      1  0.5087340000000  0.4497040000000  0.5472880000000 1.0
C      1  0.4367180000000  0.5011550000000  0.4754690000000 1.0
C      1  0.5799060000000  0.5145170000000  0.5190350000000 1.0
C      1  0.4779610000000  0.4557670000000  0.4485770000000 1.0
C      1  0.4740290000000  0.4853160000000  0.4369130000000 1.0
C      1  0.5047820000000  0.5244330000000  0.5452900000000 1.0
C      1  0.5978470000000  0.5317180000000  0.5311230000000 1.0
C      1  0.4796030000000  0.4906940000000  0.5687080000000 1.0
C      1  0.5494470000000  0.5509160000000  0.4756960000000 1.0
C      1  0.5302280000000  0.4560080000000  0.5251000000000 1.0
C      1  0.5416590000000  0.5259460000000  0.5203130000000 1.0
C      1  0.4355690000000  0.5519430000000  0.5558500000000 1.0
C      1  0.4353990000000  0.4994730000000  0.5085750000000 1.0
C      1  0.4379930000000  0.4700850000000  0.5563250000000 1.0
C      1  0.5385880000000  0.5395050000000  0.4497920000000 1.0
C      1  0.4900830000000  0.5395190000000  0.4315890000000 1.0
C      1  0.5722920000000  0.4889970000000  0.5291780000000 1.0
C      1  0.5163810000000  0.5487070000000  0.5413450000000 1.0
C      1  0.5053060000000  0.4833380000000  0.4683880000000 1.0
C      1  0.5035820000000  0.4518560000000  0.4633830000000 1.0
C      1  0.5072210000000  0.4981540000000  0.5592550000000 1.0
C      1  0.5424340000000  0.5112720000000  0.4506620000000 1.0
END
