TITL C-2778431-5191-816 0.0799247236140165 125000 -805.509541948417 0 0 138 (C1) n - 1
REM
REM in /home/nfs/bkarasulu/CARBON/AIRSS/Generating-Clusters/REBO/Only-C1/SD-CG/HFTN-CG
REM
REM
REM
REM
REM
REM ./C.cell (11c1c37f851c82e70ff6c80c92926a4b)
REM
REM compiler GCC version 9.2.1 20190827 (Red Hat 9.2.1-1)
REM options -cpp -mtune=generic -march=x86-64 -g -O0 -fpre-include=/usr/include/finclude/math-vector-fortran.h
REM seed -675464532 635782361 -492972392 454528397 -1338005161 -546201713 -1727269567 -1900769349 -74321464 1333323988 237284741 1810453996 291652190 1957186665 664620153 -941919925 -591541104 1034431757 -503445366 -332071960 -1092935110 -1448892209 768681068 -1589610308 -1658127646 906532737 -374271203 -152634862 1541116827 -835860426 -803046995 -2106542611 362693544
REM
CELL 1.54180   50.00000   50.00000   50.00000   90.00000   90.00000   90.00000
LATT -1
SFAC C  
C      1  0.4633590000000  0.5981470000000  0.4940930000000 1.0
C      1  0.5045270000000  0.5241580000000  0.5249010000000 1.0
C      1  0.4900890000000  0.4891270000000  0.4004180000000 1.0
C      1  0.5722080000000  0.5009250000000  0.5566250000000 1.0
C      1  0.4545630000000  0.5606620000000  0.5190190000000 1.0
C      1  0.4475070000000  0.4201330000000  0.5365900000000 1.0
C      1  0.5372610000000  0.5464820000000  0.4922150000000 1.0
C      1  0.5015260000000  0.5718290000000  0.5711300000000 1.0
C      1  0.4149780000000  0.5311530000000  0.4512280000000 1.0
C      1  0.6162650000000  0.5065870000000  0.4544270000000 1.0
C      1  0.5739670000000  0.4902160000000  0.4989490000000 1.0
C      1  0.5084480000000  0.5771940000000  0.4376020000000 1.0
C      1  0.4682420000000  0.4007930000000  0.5249860000000 1.0
C      1  0.4918090000000  0.5002630000000  0.6000420000000 1.0
C      1  0.4913040000000  0.4508730000000  0.4877800000000 1.0
C      1  0.4407550000000  0.5854520000000  0.5078490000000 1.0
C      1  0.4840010000000  0.4313520000000  0.5247480000000 1.0
C      1  0.4015160000000  0.4872230000000  0.5073490000000 1.0
C      1  0.5345130000000  0.4192420000000  0.4743150000000 1.0
C      1  0.4290320000000  0.4746280000000  0.6278750000000 1.0
C      1  0.4324710000000  0.4344820000000  0.5175870000000 1.0
C      1  0.5611820000000  0.4839980000000  0.5760290000000 1.0
C      1  0.5070450000000  0.4812870000000  0.5328000000000 1.0
C      1  0.4460220000000  0.5113090000000  0.4859230000000 1.0
C      1  0.5399510000000  0.5235180000000  0.4672760000000 1.0
C      1  0.5058960000000  0.4901380000000  0.5641020000000 1.0
C      1  0.4396870000000  0.5467590000000  0.4365080000000 1.0
C      1  0.4570270000000  0.5410630000000  0.4959260000000 1.0
C      1  0.5128850000000  0.4282900000000  0.4937080000000 1.0
C      1  0.5745930000000  0.5309270000000  0.5567190000000 1.0
C      1  0.5057920000000  0.5004420000000  0.4474660000000 1.0
C      1  0.5401960000000  0.4960570000000  0.5907020000000 1.0
C      1  0.5729050000000  0.4527410000000  0.4689050000000 1.0
C      1  0.4744860000000  0.4615010000000  0.4090750000000 1.0
C      1  0.4601550000000  0.4382250000000  0.5583810000000 1.0
C      1  0.5209020000000  0.4114480000000  0.5584960000000 1.0
C      1  0.4150670000000  0.4729730000000  0.6499900000000 1.0
C      1  0.4554390000000  0.4886880000000  0.4169580000000 1.0
C      1  0.4793910000000  0.5754420000000  0.4473600000000 1.0
C      1  0.5709610000000  0.5509330000000  0.4962930000000 1.0
C      1  0.5117710000000  0.5605900000000  0.4143390000000 1.0
C      1  0.4165910000000  0.5704980000000  0.5229890000000 1.0
C      1  0.5289020000000  0.4651060000000  0.5620050000000 1.0
C      1  0.4179360000000  0.4669380000000  0.4458870000000 1.0
C      1  0.5570270000000  0.4543790000000  0.5755540000000 1.0
C      1  0.5317590000000  0.5225880000000  0.5834820000000 1.0
C      1  0.5638100000000  0.5616570000000  0.4667120000000 1.0
C      1  0.5145110000000  0.4803950000000  0.5959030000000 1.0
C      1  0.4632250000000  0.4828340000000  0.4862450000000 1.0
C      1  0.4633080000000  0.4236340000000  0.4464380000000 1.0
C      1  0.4429160000000  0.5286550000000  0.5560270000000 1.0
C      1  0.5269460000000  0.4415750000000  0.5168550000000 1.0
C      1  0.5926790000000  0.5169780000000  0.4647890000000 1.0
C      1  0.5249860000000  0.6312740000000  0.5190930000000 1.0
C      1  0.5499460000000  0.5581170000000  0.5411580000000 1.0
C      1  0.4280330000000  0.4948300000000  0.4194580000000 1.0
C      1  0.5329310000000  0.5751050000000  0.4612190000000 1.0
C      1  0.4003930000000  0.5386130000000  0.4802330000000 1.0
C      1  0.4705880000000  0.4784250000000  0.4459550000000 1.0
C      1  0.4901660000000  0.5801050000000  0.5470670000000 1.0
C      1  0.4622500000000  0.4518110000000  0.4744380000000 1.0
C      1  0.4862050000000  0.4611610000000  0.5174840000000 1.0
C      1  0.5491330000000  0.4062330000000  0.5599380000000 1.0
C      1  0.4197770000000  0.4463640000000  0.4709820000000 1.0
C      1  0.4428310000000  0.4762650000000  0.6060230000000 1.0
C      1  0.5347830000000  0.5298500000000  0.5502430000000 1.0
C      1  0.5413030000000  0.5513040000000  0.4114500000000 1.0
C      1  0.4218160000000  0.4650530000000  0.5235020000000 1.0
C      1  0.4585840000000  0.5064570000000  0.4546340000000 1.0
C      1  0.4508700000000  0.4639880000000  0.5765770000000 1.0
C      1  0.4672760000000  0.4853150000000  0.5321630000000 1.0
C      1  0.4901250000000  0.5941080000000  0.4894040000000 1.0
C      1  0.4167550000000  0.5140360000000  0.4972470000000 1.0
C      1  0.4843870000000  0.4108170000000  0.4972850000000 1.0
C      1  0.4898470000000  0.4256270000000  0.5575280000000 1.0
C      1  0.4549000000000  0.5023090000000  0.5577730000000 1.0
C      1  0.4136410000000  0.5011760000000  0.4454070000000 1.0
C      1  0.5338190000000  0.5472260000000  0.4448230000000 1.0
C      1  0.5362210000000  0.5055980000000  0.3988370000000 1.0
C      1  0.5249900000000  0.5035930000000  0.4893900000000 1.0
C      1  0.5981520000000  0.4880270000000  0.5302260000000 1.0
C      1  0.5375400000000  0.4712230000000  0.5301620000000 1.0
C      1  0.4888600000000  0.5434160000000  0.5769420000000 1.0
C      1  0.4901040000000  0.5498410000000  0.4602470000000 1.0
C      1  0.4056270000000  0.5409210000000  0.5127490000000 1.0
C      1  0.5197740000000  0.6069830000000  0.5123890000000 1.0
C      1  0.5066210000000  0.5487300000000  0.5069200000000 1.0
C      1  0.5621840000000  0.4286050000000  0.4847600000000 1.0
C      1  0.5164040000000  0.4412760000000  0.5459240000000 1.0
C      1  0.4853310000000  0.4429730000000  0.4354430000000 1.0
C      1  0.5049090000000  0.5258820000000  0.5957210000000 1.0
C      1  0.5063220000000  0.5786700000000  0.5230620000000 1.0
C      1  0.4937060000000  0.5377050000000  0.4150760000000 1.0
C      1  0.5649660000000  0.5095960000000  0.5245020000000 1.0
C      1  0.4971940000000  0.4631490000000  0.4588110000000 1.0
C      1  0.4235650000000  0.5418090000000  0.5400360000000 1.0
C      1  0.5026230000000  0.5211260000000  0.5563070000000 1.0
C      1  0.5258120000000  0.4795830000000  0.4650000000000 1.0
C      1  0.5506620000000  0.4593560000000  0.4254120000000 1.0
C      1  0.6038230000000  0.5110460000000  0.5152230000000 1.0
C      1  0.5540560000000  0.4732130000000  0.4528800000000 1.0
C      1  0.5452270000000  0.5274570000000  0.3916490000000 1.0
C      1  0.5930150000000  0.5254610000000  0.4944330000000 1.0
C      1  0.5761240000000  0.5409910000000  0.4503840000000 1.0
C      1  0.5626500000000  0.3970990000000  0.5359070000000 1.0
C      1  0.4521240000000  0.5723630000000  0.4389640000000 1.0
C      1  0.5563210000000  0.5269970000000  0.4300130000000 1.0
C      1  0.5604150000000  0.5513560000000  0.5730930000000 1.0
C      1  0.5592800000000  0.4419490000000  0.5145390000000 1.0
C      1  0.4653000000000  0.5670800000000  0.5442900000000 1.0
C      1  0.4930460000000  0.4970020000000  0.4793200000000 1.0
C      1  0.5340260000000  0.5116290000000  0.5207640000000 1.0
C      1  0.4329850000000  0.5473050000000  0.4754590000000 1.0
C      1  0.4967890000000  0.5294240000000  0.4428150000000 1.0
C      1  0.5306020000000  0.4056420000000  0.4521690000000 1.0
C      1  0.5633750000000  0.5035000000000  0.4537630000000 1.0
C      1  0.4322870000000  0.4699710000000  0.4922680000000 1.0
C      1  0.4069650000000  0.4835320000000  0.4737210000000 1.0
C      1  0.5689490000000  0.4111810000000  0.5134880000000 1.0
C      1  0.4479690000000  0.4541590000000  0.4440470000000 1.0
C      1  0.5739060000000  0.5411500000000  0.5256630000000 1.0
C      1  0.5042620000000  0.4447810000000  0.4093850000000 1.0
C      1  0.5264830000000  0.4619110000000  0.4138530000000 1.0
C      1  0.5696680000000  0.4701060000000  0.5247180000000 1.0
C      1  0.5158320000000  0.4904890000000  0.4163910000000 1.0
C      1  0.4849900000000  0.5460450000000  0.4869620000000 1.0
C      1  0.4402640000000  0.4304230000000  0.4892250000000 1.0
C      1  0.5627380000000  0.4271370000000  0.5742320000000 1.0
C      1  0.4729980000000  0.5156130000000  0.4050720000000 1.0
C      1  0.4631360000000  0.4121070000000  0.4745880000000 1.0
C      1  0.4884830000000  0.5005370000000  0.5116580000000 1.0
C      1  0.4453100000000  0.4659580000000  0.5444170000000 1.0
C      1  0.5227520000000  0.5846220000000  0.4873600000000 1.0
C      1  0.4579650000000  0.5250780000000  0.4331460000000 1.0
C      1  0.4654340000000  0.4925620000000  0.5874280000000 1.0
C      1  0.4615120000000  0.5479100000000  0.5646470000000 1.0
C      1  0.5379070000000  0.5714870000000  0.5155440000000 1.0
C      1  0.5848130000000  0.4776060000000  0.4779540000000 1.0
END
