TITL C-2778425-5191-413 0.00232297602340608 125000 -653.468420761152 0 0 111 (C1) n - 1
REM
REM in /home/nfs/bkarasulu/CARBON/AIRSS/Generating-Clusters/REBO/Only-C1/SD-CG/HFTN-CG
REM
REM
REM
REM
REM
REM ./C.cell (11c1c37f851c82e70ff6c80c92926a4b)
REM
REM compiler GCC version 9.2.1 20190827 (Red Hat 9.2.1-1)
REM options -cpp -mtune=generic -march=x86-64 -g -O0 -fpre-include=/usr/include/finclude/math-vector-fortran.h
REM seed -1336944010 -277185330 -1284722434 -2066914343 -922300391 1586037641 35470335 -481144972 840433460 400705474 1893781082 348988971 453098094 1589018224 -1479273326 1283289549 1735994281 -719339152 1692468953 1743219385 2019310913 928499288 2074463278 -1770435536 1877234004 -390387989 962269539 -818748248 -954121025 1577150332 -1434404463 593510367 1973691589
REM
CELL 1.54180   50.00000   50.00000   50.00000   90.00000   90.00000   90.00000
LATT -1
SFAC C  
C      1  0.4134750000000  0.5138630000000  0.4474340000000 1.0
C      1  0.5823040000000  0.4998200000000  0.5568050000000 1.0
C      1  0.4984630000000  0.5967010000000  0.5245070000000 1.0
C      1  0.5168730000000  0.5150300000000  0.4977980000000 1.0
C      1  0.5088630000000  0.4212470000000  0.4515140000000 1.0
C      1  0.5107800000000  0.4662450000000  0.4818850000000 1.0
C      1  0.5267470000000  0.5699490000000  0.5168290000000 1.0
C      1  0.4243090000000  0.4479750000000  0.5013940000000 1.0
C      1  0.4344940000000  0.5118190000000  0.5044850000000 1.0
C      1  0.4405510000000  0.5181690000000  0.5579390000000 1.0
C      1  0.5959460000000  0.4902300000000  0.5057470000000 1.0
C      1  0.4418340000000  0.4714390000000  0.4732700000000 1.0
C      1  0.4222820000000  0.4923500000000  0.5464790000000 1.0
C      1  0.4117730000000  0.4859790000000  0.4668340000000 1.0
C      1  0.5753610000000  0.4691270000000  0.5594980000000 1.0
C      1  0.4952130000000  0.5264380000000  0.4215330000000 1.0
C      1  0.5234120000000  0.4273690000000  0.4750670000000 1.0
C      1  0.4563280000000  0.5332130000000  0.4356540000000 1.0
C      1  0.4174710000000  0.4916060000000  0.5190960000000 1.0
C      1  0.4544500000000  0.5618650000000  0.4806880000000 1.0
C      1  0.5131380000000  0.5917040000000  0.4939130000000 1.0
C      1  0.4659600000000  0.5179470000000  0.5102080000000 1.0
C      1  0.4938400000000  0.5556670000000  0.4388860000000 1.0
C      1  0.5290940000000  0.4825050000000  0.5540170000000 1.0
C      1  0.4765250000000  0.5396730000000  0.4914710000000 1.0
C      1  0.5526050000000  0.4789520000000  0.5403590000000 1.0
C      1  0.4579000000000  0.4267870000000  0.5451550000000 1.0
C      1  0.5673430000000  0.5310810000000  0.4661860000000 1.0
C      1  0.5502360000000  0.4533630000000  0.5709610000000 1.0
C      1  0.4774010000000  0.4061270000000  0.4902220000000 1.0
C      1  0.5546650000000  0.5578480000000  0.4583520000000 1.0
C      1  0.5250470000000  0.5660530000000  0.4441640000000 1.0
C      1  0.4478270000000  0.4566770000000  0.4430030000000 1.0
C      1  0.5076630000000  0.4952840000000  0.5423220000000 1.0
C      1  0.5143010000000  0.4757140000000  0.4180300000000 1.0
C      1  0.5563360000000  0.5025800000000  0.4621140000000 1.0
C      1  0.4724120000000  0.5760090000000  0.4560270000000 1.0
C      1  0.4546330000000  0.5779560000000  0.5084670000000 1.0
C      1  0.4825690000000  0.4737420000000  0.4998780000000 1.0
C      1  0.4896540000000  0.5091910000000  0.5649110000000 1.0
C      1  0.4664400000000  0.4408030000000  0.5726130000000 1.0
C      1  0.5094730000000  0.5774680000000  0.5447600000000 1.0
C      1  0.5080370000000  0.5520630000000  0.4947490000000 1.0
C      1  0.5456120000000  0.4898140000000  0.4864760000000 1.0
C      1  0.4442020000000  0.4875490000000  0.5705380000000 1.0
C      1  0.5375230000000  0.5479600000000  0.5704840000000 1.0
C      1  0.5244750000000  0.5083330000000  0.4215360000000 1.0
C      1  0.4818460000000  0.4117960000000  0.4569520000000 1.0
C      1  0.5423970000000  0.5244220000000  0.5128830000000 1.0
C      1  0.4548040000000  0.5614390000000  0.4326370000000 1.0
C      1  0.4108970000000  0.4731520000000  0.4984200000000 1.0
C      1  0.5656360000000  0.4555670000000  0.4826980000000 1.0
C      1  0.4693370000000  0.4563090000000  0.5208100000000 1.0
C      1  0.4691120000000  0.5216030000000  0.5404250000000 1.0
C      1  0.4855510000000  0.5967860000000  0.4759610000000 1.0
C      1  0.4859000000000  0.4201640000000  0.5372690000000 1.0
C      1  0.4353260000000  0.4380720000000  0.4759890000000 1.0
C      1  0.4573740000000  0.4307580000000  0.4434480000000 1.0
C      1  0.5802220000000  0.4859050000000  0.4467510000000 1.0
C      1  0.5444240000000  0.5302160000000  0.5422620000000 1.0
C      1  0.5201960000000  0.4224540000000  0.5026020000000 1.0
C      1  0.5911880000000  0.5120210000000  0.5315710000000 1.0
C      1  0.5487400000000  0.4886030000000  0.4335230000000 1.0
C      1  0.5810780000000  0.5393560000000  0.5293650000000 1.0
C      1  0.5556380000000  0.5615200000000  0.5202400000000 1.0
C      1  0.4885920000000  0.4919800000000  0.4257420000000 1.0
C      1  0.5050180000000  0.4363090000000  0.5578050000000 1.0
C      1  0.4660920000000  0.5114100000000  0.4119810000000 1.0
C      1  0.4903290000000  0.5027400000000  0.4547450000000 1.0
C      1  0.5638310000000  0.5574250000000  0.5525600000000 1.0
C      1  0.4948830000000  0.4559990000000  0.5840400000000 1.0
C      1  0.5048310000000  0.4463530000000  0.4036890000000 1.0
C      1  0.4401690000000  0.5657420000000  0.5303960000000 1.0
C      1  0.5363450000000  0.4600530000000  0.4389700000000 1.0
C      1  0.5618820000000  0.5440300000000  0.4951640000000 1.0
C      1  0.4523520000000  0.5489200000000  0.5498310000000 1.0
C      1  0.4907930000000  0.5421040000000  0.5737480000000 1.0
C      1  0.5763260000000  0.5141260000000  0.4946150000000 1.0
C      1  0.4945550000000  0.4133740000000  0.5111320000000 1.0
C      1  0.4127850000000  0.5402570000000  0.4539130000000 1.0
C      1  0.5236320000000  0.4703400000000  0.5839990000000 1.0
C      1  0.5838890000000  0.4768050000000  0.4765740000000 1.0
C      1  0.4424000000000  0.4427820000000  0.5231900000000 1.0
C      1  0.5390470000000  0.4394310000000  0.5213590000000 1.0
C      1  0.4508720000000  0.4119920000000  0.4710700000000 1.0
C      1  0.5080300000000  0.4965550000000  0.4746560000000 1.0
C      1  0.5580190000000  0.4953860000000  0.5167180000000 1.0
C      1  0.5669380000000  0.4483150000000  0.5096590000000 1.0
C      1  0.4274830000000  0.4788760000000  0.4372280000000 1.0
C      1  0.5062590000000  0.5378380000000  0.4652030000000 1.0
C      1  0.4735780000000  0.4800000000000  0.5717160000000 1.0
C      1  0.4753090000000  0.5969690000000  0.5051520000000 1.0
C      1  0.5289010000000  0.5325850000000  0.4413910000000 1.0
C      1  0.5070720000000  0.4896250000000  0.5138700000000 1.0
C      1  0.5316310000000  0.4669180000000  0.5074790000000 1.0
C      1  0.4579330000000  0.4905690000000  0.4912420000000 1.0
C      1  0.5104340000000  0.5597300000000  0.5660950000000 1.0
C      1  0.5392810000000  0.4532690000000  0.4687320000000 1.0
C      1  0.5376680000000  0.5199570000000  0.5871420000000 1.0
C      1  0.5873100000000  0.4624900000000  0.5216690000000 1.0
C      1  0.4155120000000  0.5542870000000  0.5215280000000 1.0
C      1  0.5160750000000  0.4374550000000  0.4294890000000 1.0
C      1  0.5301730000000  0.5708890000000  0.4767480000000 1.0
C      1  0.4817960000000  0.4587350000000  0.5468870000000 1.0
C      1  0.4738370000000  0.5280400000000  0.4596420000000 1.0
C      1  0.5606280000000  0.5155170000000  0.5672660000000 1.0
C      1  0.5156100000000  0.5020190000000  0.5861400000000 1.0
C      1  0.4363960000000  0.5074960000000  0.4252490000000 1.0
C      1  0.4189400000000  0.5368800000000  0.4996360000000 1.0
C      1  0.4269150000000  0.5498870000000  0.4758850000000 1.0
C      1  0.5341430000000  0.4381160000000  0.5509940000000 1.0
END
