TITL C-2778427-5640-144 -0.00200529043438024 125000 -760.933373490087 0 0 131 (C1) n - 1
REM
REM in /home/nfs/bkarasulu/CARBON/AIRSS/Generating-Clusters/REBO/Only-C1/SD-CG/HFTN-CG
REM
REM
REM
REM
REM
REM ./C.cell (11c1c37f851c82e70ff6c80c92926a4b)
REM
REM compiler GCC version 9.2.1 20190827 (Red Hat 9.2.1-1)
REM options -cpp -mtune=generic -march=x86-64 -g -O0 -fpre-include=/usr/include/finclude/math-vector-fortran.h
REM seed -1475291223 157697336 1336802120 -2065856784 -573337539 1579285824 -1880453550 -1782817201 -93845253 -777067520 1224843131 -921630241 -480295130 1592527736 -1359870868 1980164970 -1014944828 557935946 781362257 1253356529 -1112255372 -1877498949 -1183845896 -2033409499 1617578672 -1844082111 -1619224779 -746907013 619402796 444740725 -1239689367 2064459015 1985500116
REM
CELL 1.54180   50.00000   50.00000   50.00000   90.00000   90.00000   90.00000
LATT -1
SFAC C  
C      1  0.5345420000000  0.5618400000000  0.5613190000000 1.0
C      1  0.4935550000000  0.4961950000000  0.4509210000000 1.0
C      1  0.5780530000000  0.4541920000000  0.4613240000000 1.0
C      1  0.5221040000000  0.5571370000000  0.4020650000000 1.0
C      1  0.5237580000000  0.5179700000000  0.4365490000000 1.0
C      1  0.4844790000000  0.4451030000000  0.5005730000000 1.0
C      1  0.5396150000000  0.5772430000000  0.4704300000000 1.0
C      1  0.4910530000000  0.5811190000000  0.5356520000000 1.0
C      1  0.5846650000000  0.5490700000000  0.4748090000000 1.0
C      1  0.4482230000000  0.5027200000000  0.4258870000000 1.0
C      1  0.4720560000000  0.4091530000000  0.5516340000000 1.0
C      1  0.5483470000000  0.4438040000000  0.5559410000000 1.0
C      1  0.4058690000000  0.4559400000000  0.4846530000000 1.0
C      1  0.5449460000000  0.5933190000000  0.4934730000000 1.0
C      1  0.4635090000000  0.5806300000000  0.4601360000000 1.0
C      1  0.5347350000000  0.4608050000000  0.4889100000000 1.0
C      1  0.5549270000000  0.5506380000000  0.4645490000000 1.0
C      1  0.5327160000000  0.4882280000000  0.5263930000000 1.0
C      1  0.5071700000000  0.4981140000000  0.4136570000000 1.0
C      1  0.5872270000000  0.4776990000000  0.4493790000000 1.0
C      1  0.4558850000000  0.4706960000000  0.4173880000000 1.0
C      1  0.4332340000000  0.5417900000000  0.5227570000000 1.0
C      1  0.4364620000000  0.4682500000000  0.4429800000000 1.0
C      1  0.5541830000000  0.5294120000000  0.4982830000000 1.0
C      1  0.5413270000000  0.4696820000000  0.5754650000000 1.0
C      1  0.5353100000000  0.5228990000000  0.5458560000000 1.0
C      1  0.5585420000000  0.5226340000000  0.5777360000000 1.0
C      1  0.5968490000000  0.5244400000000  0.4708260000000 1.0
C      1  0.4092270000000  0.5030730000000  0.5426750000000 1.0
C      1  0.5292420000000  0.4472190000000  0.4233240000000 1.0
C      1  0.4339660000000  0.5169290000000  0.4475070000000 1.0
C      1  0.4136550000000  0.4722780000000  0.5070590000000 1.0
C      1  0.5011840000000  0.5890160000000  0.5101550000000 1.0
C      1  0.5019880000000  0.4677240000000  0.4468520000000 1.0
C      1  0.5882920000000  0.4951130000000  0.5092130000000 1.0
C      1  0.4274410000000  0.4476290000000  0.4684020000000 1.0
C      1  0.5148850000000  0.4656160000000  0.5541110000000 1.0
C      1  0.4272230000000  0.5241600000000  0.5467070000000 1.0
C      1  0.5752590000000  0.4652110000000  0.5548730000000 1.0
C      1  0.4732230000000  0.4453570000000  0.4124820000000 1.0
C      1  0.4245350000000  0.5538010000000  0.4597400000000 1.0
C      1  0.5680420000000  0.5373960000000  0.5502880000000 1.0
C      1  0.4633280000000  0.4978760000000  0.5057090000000 1.0
C      1  0.5312340000000  0.3989120000000  0.4607420000000 1.0
C      1  0.4720850000000  0.5718970000000  0.4847200000000 1.0
C      1  0.4734530000000  0.5166680000000  0.4418390000000 1.0
C      1  0.4950440000000  0.4999620000000  0.4921720000000 1.0
C      1  0.5097780000000  0.5378150000000  0.4148500000000 1.0
C      1  0.5386040000000  0.5033720000000  0.4024030000000 1.0
C      1  0.5052880000000  0.4030750000000  0.4733740000000 1.0
C      1  0.5214590000000  0.6338100000000  0.5096710000000 1.0
C      1  0.4838700000000  0.4596710000000  0.5823380000000 1.0
C      1  0.4812130000000  0.4351390000000  0.5670350000000 1.0
C      1  0.5728020000000  0.5177580000000  0.5237630000000 1.0
C      1  0.5083640000000  0.4289960000000  0.4949370000000 1.0
C      1  0.5777540000000  0.5074480000000  0.4521600000000 1.0
C      1  0.4663080000000  0.5340970000000  0.5218060000000 1.0
C      1  0.5137530000000  0.5756480000000  0.4590850000000 1.0
C      1  0.5090620000000  0.5051850000000  0.5537180000000 1.0
C      1  0.5628160000000  0.5057900000000  0.4803910000000 1.0
C      1  0.4814180000000  0.4455630000000  0.4609030000000 1.0
C      1  0.4092560000000  0.4855240000000  0.4471980000000 1.0
C      1  0.5344570000000  0.5403050000000  0.5817230000000 1.0
C      1  0.4012350000000  0.5015180000000  0.4644220000000 1.0
C      1  0.4949390000000  0.5564310000000  0.4558070000000 1.0
C      1  0.4532030000000  0.5167010000000  0.5605040000000 1.0
C      1  0.5061370000000  0.4837280000000  0.5799310000000 1.0
C      1  0.5091140000000  0.5088930000000  0.5192210000000 1.0
C      1  0.4659190000000  0.4569660000000  0.5256430000000 1.0
C      1  0.5579880000000  0.5671400000000  0.5378920000000 1.0
C      1  0.4464910000000  0.5637790000000  0.4444440000000 1.0
C      1  0.5612750000000  0.4231350000000  0.5022100000000 1.0
C      1  0.4391980000000  0.5090120000000  0.4758670000000 1.0
C      1  0.5127610000000  0.5163120000000  0.4686860000000 1.0
C      1  0.5553660000000  0.5280870000000  0.4420320000000 1.0
C      1  0.4863220000000  0.5580810000000  0.5873970000000 1.0
C      1  0.5366600000000  0.4149120000000  0.5083040000000 1.0
C      1  0.4527760000000  0.4486840000000  0.4885200000000 1.0
C      1  0.5631580000000  0.4772030000000  0.4926790000000 1.0
C      1  0.4579030000000  0.5503010000000  0.4222730000000 1.0
C      1  0.5332910000000  0.4795020000000  0.4250200000000 1.0
C      1  0.4285040000000  0.4291270000000  0.5610300000000 1.0
C      1  0.6081350000000  0.5088650000000  0.4903780000000 1.0
C      1  0.4588170000000  0.4739730000000  0.5851740000000 1.0
C      1  0.5529400000000  0.5255600000000  0.4103210000000 1.0
C      1  0.4119250000000  0.4812990000000  0.5606820000000 1.0
C      1  0.5061450000000  0.5348770000000  0.5910580000000 1.0
C      1  0.4754030000000  0.4062290000000  0.4997210000000 1.0
C      1  0.4863270000000  0.4045240000000  0.5266880000000 1.0
C      1  0.4807460000000  0.5296130000000  0.4126690000000 1.0
C      1  0.4766540000000  0.5378510000000  0.4630260000000 1.0
C      1  0.4334290000000  0.4615910000000  0.5699640000000 1.0
C      1  0.4780870000000  0.4190980000000  0.4709430000000 1.0
C      1  0.5656050000000  0.4908110000000  0.5751800000000 1.0
C      1  0.4103170000000  0.5158840000000  0.4922610000000 1.0
C      1  0.5789250000000  0.4475630000000  0.4946790000000 1.0
C      1  0.4910610000000  0.4757480000000  0.5319850000000 1.0
C      1  0.4765270000000  0.4961600000000  0.4078200000000 1.0
C      1  0.4243090000000  0.5460480000000  0.4901960000000 1.0
C      1  0.5518910000000  0.4434880000000  0.4484930000000 1.0
C      1  0.4493360000000  0.5651180000000  0.5036350000000 1.0
C      1  0.4635190000000  0.5020690000000  0.5856650000000 1.0
C      1  0.5214710000000  0.6074210000000  0.5034710000000 1.0
C      1  0.4630810000000  0.5274070000000  0.4885680000000 1.0
C      1  0.5866360000000  0.4659000000000  0.5225170000000 1.0
C      1  0.4439930000000  0.4727500000000  0.5093870000000 1.0
C      1  0.5311020000000  0.4679760000000  0.4571330000000 1.0
C      1  0.4920340000000  0.5097020000000  0.5910320000000 1.0
C      1  0.4557650000000  0.4455430000000  0.5502850000000 1.0
C      1  0.4630440000000  0.5660530000000  0.5334740000000 1.0
C      1  0.4733560000000  0.5044460000000  0.5364770000000 1.0
C      1  0.5542400000000  0.4630910000000  0.5289890000000 1.0
C      1  0.5086210000000  0.5644660000000  0.5505700000000 1.0
C      1  0.5636340000000  0.5868100000000  0.5144160000000 1.0
C      1  0.5401830000000  0.5440390000000  0.5227080000000 1.0
C      1  0.5337450000000  0.4310180000000  0.4719830000000 1.0
C      1  0.5173430000000  0.4625880000000  0.5144940000000 1.0
C      1  0.5571220000000  0.4994360000000  0.5452190000000 1.0
C      1  0.4039120000000  0.4975120000000  0.5153400000000 1.0
C      1  0.4653490000000  0.5727660000000  0.5663910000000 1.0
C      1  0.5023600000000  0.5613050000000  0.4946760000000 1.0
C      1  0.4513520000000  0.4791030000000  0.4708270000000 1.0
C      1  0.5095800000000  0.5414900000000  0.5179060000000 1.0
C      1  0.4827990000000  0.4731890000000  0.4812830000000 1.0
C      1  0.4718030000000  0.5402460000000  0.5626340000000 1.0
C      1  0.4982260000000  0.4450870000000  0.4230640000000 1.0
C      1  0.5141150000000  0.4096580000000  0.5292540000000 1.0
C      1  0.4971320000000  0.5346640000000  0.5472570000000 1.0
C      1  0.4437600000000  0.4051050000000  0.5557000000000 1.0
C      1  0.5267320000000  0.5412280000000  0.4818790000000 1.0
C      1  0.5223260000000  0.4383710000000  0.5371800000000 1.0
END
