TITL C-2778422-5617-850 -0.000376947916597224 125000 -688.451680300241 0 0 116 (C1) n - 1
REM
REM in /home/nfs/bkarasulu/CARBON/AIRSS/Generating-Clusters/REBO/Only-C1/SD-CG/HFTN-CG
REM
REM
REM
REM
REM
REM ./C.cell (11c1c37f851c82e70ff6c80c92926a4b)
REM
REM compiler GCC version 9.2.1 20190827 (Red Hat 9.2.1-1)
REM options -cpp -mtune=generic -march=x86-64 -g -O0 -fpre-include=/usr/include/finclude/math-vector-fortran.h
REM seed -77073140 1802206416 1845897734 2115631034 557864497 -1315622403 1952412168 -1551376139 -377426730 1925640453 1871968982 -946381786 1838670689 983086200 -282563277 -1482595164 508837564 -1935587073 -1155953099 1492649320 -2116383225 -428540740 -798863627 -1340538536 167533083 -1706002489 -638817086 782654385 1540183154 -806693981 2142384723 1795356066 -2102164376
REM
CELL 1.54180   50.00000   50.00000   50.00000   90.00000   90.00000   90.00000
LATT -1
SFAC C  
C      1  0.5249130000000  0.4542430000000  0.4963760000000 1.0
C      1  0.5124810000000  0.4905780000000  0.5907580000000 1.0
C      1  0.4813630000000  0.4610950000000  0.5622480000000 1.0
C      1  0.5375750000000  0.5370170000000  0.4223210000000 1.0
C      1  0.4790050000000  0.5727980000000  0.4810240000000 1.0
C      1  0.4935470000000  0.4024370000000  0.5391910000000 1.0
C      1  0.5428260000000  0.5519930000000  0.5478250000000 1.0
C      1  0.4897320000000  0.4837010000000  0.4179990000000 1.0
C      1  0.4281270000000  0.5294420000000  0.4791990000000 1.0
C      1  0.4465770000000  0.5020390000000  0.4792140000000 1.0
C      1  0.5339680000000  0.5009140000000  0.4862060000000 1.0
C      1  0.4399490000000  0.5801260000000  0.4771950000000 1.0
C      1  0.4805430000000  0.4225860000000  0.5518420000000 1.0
C      1  0.5373300000000  0.4544070000000  0.4457900000000 1.0
C      1  0.4224330000000  0.4506650000000  0.5187950000000 1.0
C      1  0.5759050000000  0.4692180000000  0.4503040000000 1.0
C      1  0.5528820000000  0.4771690000000  0.4265190000000 1.0
C      1  0.5225790000000  0.5888580000000  0.4877110000000 1.0
C      1  0.5380230000000  0.5098030000000  0.5856700000000 1.0
C      1  0.4562990000000  0.5020620000000  0.5666160000000 1.0
C      1  0.4682840000000  0.5001180000000  0.4592260000000 1.0
C      1  0.5658780000000  0.4667660000000  0.4991790000000 1.0
C      1  0.4741800000000  0.5428950000000  0.4917790000000 1.0
C      1  0.4883100000000  0.4397600000000  0.4906600000000 1.0
C      1  0.4607940000000  0.5301490000000  0.5721910000000 1.0
C      1  0.4047160000000  0.5241660000000  0.5004340000000 1.0
C      1  0.4932660000000  0.4064640000000  0.5119300000000 1.0
C      1  0.4541090000000  0.4498350000000  0.4535660000000 1.0
C      1  0.4616420000000  0.4637590000000  0.5082830000000 1.0
C      1  0.4357830000000  0.4883290000000  0.5513220000000 1.0
C      1  0.4800570000000  0.4530640000000  0.6086500000000 1.0
C      1  0.5483030000000  0.5142600000000  0.4641730000000 1.0
C      1  0.5715670000000  0.5468420000000  0.5209050000000 1.0
C      1  0.5333250000000  0.5577420000000  0.4462210000000 1.0
C      1  0.4584890000000  0.4209390000000  0.4719180000000 1.0
C      1  0.4773020000000  0.5194980000000  0.5127140000000 1.0
C      1  0.4703110000000  0.5666540000000  0.4356060000000 1.0
C      1  0.5175940000000  0.4091120000000  0.4620150000000 1.0
C      1  0.4505900000000  0.4360730000000  0.5582550000000 1.0
C      1  0.4301470000000  0.5546730000000  0.5351170000000 1.0
C      1  0.5916160000000  0.4764700000000  0.5120570000000 1.0
C      1  0.4949330000000  0.5901950000000  0.5029610000000 1.0
C      1  0.5170590000000  0.4235550000000  0.4992400000000 1.0
C      1  0.4447160000000  0.4493670000000  0.4858270000000 1.0
C      1  0.4990080000000  0.4731930000000  0.6074440000000 1.0
C      1  0.4631370000000  0.5993710000000  0.4929690000000 1.0
C      1  0.4449600000000  0.5510360000000  0.4898630000000 1.0
C      1  0.5109190000000  0.5625910000000  0.5504420000000 1.0
C      1  0.5118350000000  0.5370250000000  0.4065390000000 1.0
C      1  0.5279100000000  0.4922470000000  0.5377480000000 1.0
C      1  0.5759870000000  0.5029710000000  0.4482600000000 1.0
C      1  0.4326360000000  0.4606340000000  0.5466170000000 1.0
C      1  0.4919000000000  0.5377610000000  0.4666910000000 1.0
C      1  0.4386860000000  0.5259420000000  0.4482740000000 1.0
C      1  0.4765260000000  0.5467100000000  0.5313820000000 1.0
C      1  0.4377940000000  0.5748250000000  0.5116160000000 1.0
C      1  0.4940120000000  0.4931460000000  0.4727130000000 1.0
C      1  0.4724290000000  0.5278240000000  0.4439910000000 1.0
C      1  0.4623600000000  0.5924500000000  0.5254740000000 1.0
C      1  0.5445430000000  0.5865390000000  0.5056760000000 1.0
C      1  0.4161780000000  0.4635900000000  0.4893510000000 1.0
C      1  0.4913510000000  0.5116860000000  0.4087800000000 1.0
C      1  0.5510880000000  0.4249350000000  0.5014020000000 1.0
C      1  0.5181530000000  0.5812680000000  0.4588250000000 1.0
C      1  0.5581740000000  0.4727880000000  0.5556320000000 1.0
C      1  0.4184970000000  0.4942800000000  0.4954270000000 1.0
C      1  0.5086250000000  0.4500380000000  0.5489660000000 1.0
C      1  0.4852440000000  0.4467500000000  0.4585400000000 1.0
C      1  0.4617390000000  0.4776070000000  0.4367310000000 1.0
C      1  0.5331370000000  0.4575430000000  0.5568810000000 1.0
C      1  0.4813640000000  0.4896870000000  0.5656490000000 1.0
C      1  0.4686410000000  0.4450380000000  0.5853680000000 1.0
C      1  0.4870710000000  0.5348800000000  0.5843850000000 1.0
C      1  0.5163540000000  0.5303420000000  0.5454330000000 1.0
C      1  0.6011520000000  0.5170400000000  0.4759410000000 1.0
C      1  0.5562510000000  0.5014980000000  0.5644960000000 1.0
C      1  0.5097190000000  0.4748780000000  0.5178940000000 1.0
C      1  0.5359550000000  0.5404790000000  0.4916420000000 1.0
C      1  0.4449750000000  0.4297370000000  0.5252080000000 1.0
C      1  0.4553170000000  0.4971200000000  0.5103640000000 1.0
C      1  0.5087140000000  0.5037020000000  0.5594680000000 1.0
C      1  0.4901590000000  0.4142150000000  0.4602250000000 1.0
C      1  0.5604510000000  0.5231760000000  0.5426370000000 1.0
C      1  0.4269240000000  0.5042700000000  0.5268370000000 1.0
C      1  0.5500790000000  0.5062490000000  0.5157300000000 1.0
C      1  0.4786060000000  0.4502910000000  0.5317140000000 1.0
C      1  0.5291430000000  0.4706650000000  0.4728130000000 1.0
C      1  0.4894380000000  0.4722730000000  0.4954940000000 1.0
C      1  0.5140840000000  0.5303670000000  0.5887100000000 1.0
C      1  0.5206320000000  0.4686110000000  0.4192790000000 1.0
C      1  0.5651640000000  0.4534770000000  0.4740870000000 1.0
C      1  0.4326000000000  0.4941710000000  0.4425940000000 1.0
C      1  0.5653600000000  0.5346290000000  0.4420430000000 1.0
C      1  0.5775260000000  0.4591740000000  0.5364480000000 1.0
C      1  0.5425200000000  0.4674120000000  0.5193400000000 1.0
C      1  0.4904950000000  0.5757120000000  0.5316000000000 1.0
C      1  0.5394350000000  0.5059910000000  0.4325110000000 1.0
C      1  0.4150140000000  0.4789180000000  0.4589050000000 1.0
C      1  0.5173230000000  0.4930220000000  0.4507420000000 1.0
C      1  0.5030710000000  0.5096930000000  0.4986800000000 1.0
C      1  0.5811070000000  0.5356980000000  0.4715420000000 1.0
C      1  0.6074840000000  0.4910980000000  0.4942120000000 1.0
C      1  0.5643700000000  0.5420080000000  0.4933310000000 1.0
C      1  0.4991050000000  0.4655200000000  0.4443140000000 1.0
C      1  0.4646540000000  0.4201510000000  0.5042850000000 1.0
C      1  0.5237090000000  0.5254830000000  0.5159410000000 1.0
C      1  0.4130030000000  0.5335680000000  0.5285440000000 1.0
C      1  0.4538810000000  0.5468520000000  0.5495690000000 1.0
C      1  0.4804130000000  0.5430590000000  0.4163480000000 1.0
C      1  0.6027120000000  0.4870180000000  0.4607160000000 1.0
C      1  0.5571770000000  0.5730540000000  0.5272610000000 1.0
C      1  0.4457890000000  0.5593480000000  0.4507530000000 1.0
C      1  0.4895850000000  0.5771270000000  0.4533370000000 1.0
C      1  0.5659240000000  0.4344060000000  0.5225550000000 1.0
C      1  0.5197540000000  0.5427460000000  0.4691110000000 1.0
C      1  0.5419450000000  0.4295620000000  0.4686820000000 1.0
END
