TITL C-2778431-5191-930 0.292623050580138 125000 -539.098490850813 0 0 93 (C1) n - 1
REM
REM in /home/nfs/bkarasulu/CARBON/AIRSS/Generating-Clusters/REBO/Only-C1/SD-CG/HFTN-CG
REM
REM
REM
REM
REM
REM ./C.cell (11c1c37f851c82e70ff6c80c92926a4b)
REM
REM compiler GCC version 9.2.1 20190827 (Red Hat 9.2.1-1)
REM options -cpp -mtune=generic -march=x86-64 -g -O0 -fpre-include=/usr/include/finclude/math-vector-fortran.h
REM seed -466475456 1622600152 -699236431 -358814303 -1602385179 -520961807 2004909290 2144366260 -218630435 -1650481523 1803781485 2571666 -990946206 -1748266695 1113968206 -1661358868 285658620 -1109434744 1301344712 -672488529 -842334100 -864539461 -1343407836 -482443264 -478535393 1827749119 -849407245 -1467336572 -2022330903 -2139348507 379333080 1016913524 1063190073
REM
CELL 1.54180   50.00000   50.00000   50.00000   90.00000   90.00000   90.00000
LATT -1
SFAC C  
C      1  0.5359910000000  0.5696920000000  0.5331220000000 1.0
C      1  0.4873330000000  0.5996300000000  0.5082800000000 1.0
C      1  0.4715910000000  0.5528200000000  0.4649820000000 1.0
C      1  0.4785510000000  0.4967340000000  0.4045990000000 1.0
C      1  0.4622850000000  0.5086390000000  0.4848480000000 1.0
C      1  0.5397740000000  0.4975070000000  0.4203190000000 1.0
C      1  0.5684160000000  0.4668490000000  0.5436430000000 1.0
C      1  0.4902680000000  0.4523810000000  0.5027140000000 1.0
C      1  0.5992180000000  0.4984850000000  0.5215700000000 1.0
C      1  0.5340510000000  0.4928870000000  0.5251560000000 1.0
C      1  0.4423750000000  0.5031990000000  0.5763020000000 1.0
C      1  0.5102860000000  0.5874150000000  0.4624370000000 1.0
C      1  0.5487730000000  0.4779050000000  0.5624270000000 1.0
C      1  0.5295560000000  0.5031300000000  0.4522010000000 1.0
C      1  0.5531560000000  0.4367740000000  0.4932260000000 1.0
C      1  0.5153030000000  0.4006800000000  0.4451980000000 1.0
C      1  0.4502080000000  0.5597750000000  0.4816070000000 1.0
C      1  0.5005170000000  0.5990130000000  0.4846440000000 1.0
C      1  0.4577030000000  0.4406380000000  0.4835110000000 1.0
C      1  0.5450160000000  0.5100580000000  0.5736510000000 1.0
C      1  0.5065460000000  0.4623730000000  0.4226220000000 1.0
C      1  0.4229400000000  0.5525590000000  0.4984910000000 1.0
C      1  0.4743780000000  0.4808310000000  0.5686030000000 1.0
C      1  0.5018100000000  0.5312980000000  0.5263130000000 1.0
C      1  0.4430560000000  0.4635570000000  0.5328070000000 1.0
C      1  0.4606020000000  0.4438960000000  0.5168110000000 1.0
C      1  0.5334740000000  0.4803960000000  0.4758840000000 1.0
C      1  0.5241360000000  0.4575330000000  0.5630800000000 1.0
C      1  0.5223350000000  0.5499420000000  0.5987930000000 1.0
C      1  0.5180230000000  0.5608110000000  0.6222470000000 1.0
C      1  0.5797320000000  0.4407470000000  0.4969420000000 1.0
C      1  0.5451990000000  0.5668520000000  0.5100650000000 1.0
C      1  0.4403040000000  0.4632780000000  0.4714240000000 1.0
C      1  0.4383240000000  0.5111830000000  0.5272620000000 1.0
C      1  0.4783020000000  0.5170400000000  0.4484770000000 1.0
C      1  0.4614510000000  0.4111220000000  0.4675480000000 1.0
C      1  0.5011280000000  0.5003590000000  0.4636200000000 1.0
C      1  0.4809730000000  0.4248300000000  0.5342100000000 1.0
C      1  0.4142560000000  0.5187470000000  0.5664740000000 1.0
C      1  0.5329320000000  0.5047670000000  0.4974770000000 1.0
C      1  0.5125270000000  0.5295440000000  0.4985500000000 1.0
C      1  0.5467350000000  0.5295760000000  0.4613190000000 1.0
C      1  0.5496280000000  0.4572810000000  0.4479060000000 1.0
C      1  0.5409760000000  0.4351960000000  0.4670960000000 1.0
C      1  0.4934560000000  0.5314690000000  0.4750740000000 1.0
C      1  0.4334510000000  0.5253800000000  0.4318370000000 1.0
C      1  0.5790900000000  0.4424040000000  0.5502470000000 1.0
C      1  0.5286570000000  0.5430720000000  0.4388080000000 1.0
C      1  0.4303670000000  0.4827480000000  0.5173810000000 1.0
C      1  0.5280830000000  0.4631940000000  0.5299700000000 1.0
C      1  0.4976880000000  0.4380080000000  0.5533750000000 1.0
C      1  0.4971680000000  0.4780760000000  0.5220730000000 1.0
C      1  0.4875260000000  0.4290850000000  0.4705060000000 1.0
C      1  0.4465970000000  0.5477230000000  0.4224980000000 1.0
C      1  0.4801760000000  0.4901690000000  0.4959020000000 1.0
C      1  0.5665500000000  0.5018710000000  0.4666380000000 1.0
C      1  0.5767070000000  0.4779670000000  0.5174480000000 1.0
C      1  0.4115910000000  0.5234950000000  0.5387760000000 1.0
C      1  0.4468520000000  0.5732400000000  0.5104130000000 1.0
C      1  0.4811170000000  0.4703050000000  0.4130600000000 1.0
C      1  0.4525290000000  0.5267770000000  0.5039280000000 1.0
C      1  0.4473020000000  0.4736440000000  0.5591590000000 1.0
C      1  0.5555250000000  0.5112600000000  0.5418330000000 1.0
C      1  0.5148170000000  0.5529230000000  0.5487930000000 1.0
C      1  0.4950030000000  0.4043030000000  0.5169490000000 1.0
C      1  0.4923210000000  0.5147220000000  0.5554650000000 1.0
C      1  0.4307850000000  0.4889790000000  0.4702780000000 1.0
C      1  0.5189080000000  0.5238410000000  0.4199520000000 1.0
C      1  0.4699620000000  0.5352790000000  0.5296560000000 1.0
C      1  0.4756340000000  0.5076670000000  0.5846320000000 1.0
C      1  0.5336680000000  0.4388960000000  0.5133210000000 1.0
C      1  0.5412600000000  0.5432120000000  0.4910240000000 1.0
C      1  0.5188390000000  0.5683460000000  0.4455060000000 1.0
C      1  0.5161920000000  0.4625050000000  0.4520150000000 1.0
C      1  0.4092740000000  0.5279060000000  0.5060870000000 1.0
C      1  0.5085920000000  0.4285300000000  0.5055540000000 1.0
C      1  0.5633790000000  0.4797280000000  0.4924940000000 1.0
C      1  0.4905430000000  0.5174470000000  0.4202150000000 1.0
C      1  0.4705690000000  0.5829330000000  0.5239700000000 1.0
C      1  0.5621470000000  0.4832550000000  0.4414030000000 1.0
C      1  0.4832470000000  0.5629720000000  0.5405080000000 1.0
C      1  0.4187580000000  0.4998630000000  0.4943670000000 1.0
C      1  0.5269880000000  0.4727600000000  0.4068390000000 1.0
C      1  0.5267550000000  0.5388000000000  0.5747520000000 1.0
C      1  0.4948850000000  0.4699380000000  0.4748570000000 1.0
C      1  0.5772090000000  0.5176400000000  0.5222420000000 1.0
C      1  0.4588750000000  0.5124670000000  0.5497590000000 1.0
C      1  0.5636140000000  0.5195130000000  0.4956730000000 1.0
C      1  0.5215610000000  0.5072820000000  0.5509500000000 1.0
C      1  0.4482250000000  0.5095880000000  0.4538750000000 1.0
C      1  0.4958120000000  0.4705260000000  0.5523200000000 1.0
C      1  0.5138470000000  0.4226810000000  0.4618830000000 1.0
C      1  0.4677640000000  0.5576810000000  0.4372800000000 1.0
END
