TITL C-2778428-5639-930 0.00152146897139354 125000 -470.940000050798 0 0 81 (C1) n - 1
REM
REM in /home/nfs/bkarasulu/CARBON/AIRSS/Generating-Clusters/REBO/Only-C1/SD-CG/HFTN-CG
REM
REM
REM
REM
REM
REM ./C.cell (11c1c37f851c82e70ff6c80c92926a4b)
REM
REM compiler GCC version 9.2.1 20190827 (Red Hat 9.2.1-1)
REM options -cpp -mtune=generic -march=x86-64 -g -O0 -fpre-include=/usr/include/finclude/math-vector-fortran.h
REM seed 944018632 -1698877410 2104159178 -545854312 650347393 -1720748763 124994809 -986554881 1720529121 986841061 1665749845 649794414 -146166338 269747667 -630840170 1317485872 939747670 1596185577 -1033882765 202422249 -1397029470 -1189994553 -720241613 -527265713 1777888223 985421303 -1339699158 -2092777461 1679125753 -1113394267 -1778617325 -1105904082 -1839461326
REM
CELL 1.54180   50.00000   50.00000   50.00000   90.00000   90.00000   90.00000
LATT -1
SFAC C  
C      1  0.4456620000000  0.5462640000000  0.4932380000000 1.0
C      1  0.5742570000000  0.4945290000000  0.4800970000000 1.0
C      1  0.4566080000000  0.5543120000000  0.5183610000000 1.0
C      1  0.4881710000000  0.5058960000000  0.4820320000000 1.0
C      1  0.4783610000000  0.4692270000000  0.4946350000000 1.0
C      1  0.5054180000000  0.5396500000000  0.4694960000000 1.0
C      1  0.4655080000000  0.5038400000000  0.4341480000000 1.0
C      1  0.4806610000000  0.5243030000000  0.4564630000000 1.0
C      1  0.4991770000000  0.4994760000000  0.4317950000000 1.0
C      1  0.4611750000000  0.4565640000000  0.5568170000000 1.0
C      1  0.4851160000000  0.4219280000000  0.4820360000000 1.0
C      1  0.5037730000000  0.4642020000000  0.5740400000000 1.0
C      1  0.4660410000000  0.5233210000000  0.5697800000000 1.0
C      1  0.5007450000000  0.4891170000000  0.5836350000000 1.0
C      1  0.4825300000000  0.5959730000000  0.4454120000000 1.0
C      1  0.4173590000000  0.4860580000000  0.5088690000000 1.0
C      1  0.4435380000000  0.5277040000000  0.4447880000000 1.0
C      1  0.5536650000000  0.5218110000000  0.5218210000000 1.0
C      1  0.4695900000000  0.4225690000000  0.5071440000000 1.0
C      1  0.4644340000000  0.4963460000000  0.4992960000000 1.0
C      1  0.5150480000000  0.4240850000000  0.4782590000000 1.0
C      1  0.4669250000000  0.5314130000000  0.5381530000000 1.0
C      1  0.5718900000000  0.4974200000000  0.5118100000000 1.0
C      1  0.4762810000000  0.5762790000000  0.5207970000000 1.0
C      1  0.5103040000000  0.4370870000000  0.5157510000000 1.0
C      1  0.5631550000000  0.4555470000000  0.4396890000000 1.0
C      1  0.5052280000000  0.5553560000000  0.5555030000000 1.0
C      1  0.5715810000000  0.5451860000000  0.5298880000000 1.0
C      1  0.5474280000000  0.4503740000000  0.4644300000000 1.0
C      1  0.5061560000000  0.5229400000000  0.5447470000000 1.0
C      1  0.5161610000000  0.4318110000000  0.4486370000000 1.0
C      1  0.5335780000000  0.4692220000000  0.5113590000000 1.0
C      1  0.5161780000000  0.4617030000000  0.4650890000000 1.0
C      1  0.4338280000000  0.4836390000000  0.5320430000000 1.0
C      1  0.5361060000000  0.4988670000000  0.4704550000000 1.0
C      1  0.5303180000000  0.5507770000000  0.4492170000000 1.0
C      1  0.4960100000000  0.5667860000000  0.4973150000000 1.0
C      1  0.5352130000000  0.5142860000000  0.5448170000000 1.0
C      1  0.5518520000000  0.5311100000000  0.4476180000000 1.0
C      1  0.5274340000000  0.5776510000000  0.5195200000000 1.0
C      1  0.5434000000000  0.4346560000000  0.4941280000000 1.0
C      1  0.5471340000000  0.5079550000000  0.4322890000000 1.0
C      1  0.4593690000000  0.5013480000000  0.5288490000000 1.0
C      1  0.4816360000000  0.5720010000000  0.4677020000000 1.0
C      1  0.5865630000000  0.5647080000000  0.5366480000000 1.0
C      1  0.5083360000000  0.5243910000000  0.4973770000000 1.0
C      1  0.5037820000000  0.5757740000000  0.5356710000000 1.0
C      1  0.5469610000000  0.5650210000000  0.5054650000000 1.0
C      1  0.4869090000000  0.4399030000000  0.5568480000000 1.0
C      1  0.5073470000000  0.5755690000000  0.4450960000000 1.0
C      1  0.5656840000000  0.5264810000000  0.4719950000000 1.0
C      1  0.4615040000000  0.5501570000000  0.4637030000000 1.0
C      1  0.4208400000000  0.4606560000000  0.4917830000000 1.0
C      1  0.4412270000000  0.4393090000000  0.5088560000000 1.0
C      1  0.4676290000000  0.4507730000000  0.4343540000000 1.0
C      1  0.5601680000000  0.4855490000000  0.4504530000000 1.0
C      1  0.5223430000000  0.5050620000000  0.4181110000000 1.0
C      1  0.4941550000000  0.5406540000000  0.5194310000000 1.0
C      1  0.5363370000000  0.5122840000000  0.4951690000000 1.0
C      1  0.4331960000000  0.5246000000000  0.4744240000000 1.0
C      1  0.5208800000000  0.4426860000000  0.5538100000000 1.0
C      1  0.5091240000000  0.5397440000000  0.5808440000000 1.0
C      1  0.4920280000000  0.5169140000000  0.5823360000000 1.0
C      1  0.4377700000000  0.4717420000000  0.4644480000000 1.0
C      1  0.5066740000000  0.4914490000000  0.4601600000000 1.0
C      1  0.4363240000000  0.4968240000000  0.4848810000000 1.0
C      1  0.5379860000000  0.4298430000000  0.5270660000000 1.0
C      1  0.4705700000000  0.4344590000000  0.4579860000000 1.0
C      1  0.4872720000000  0.4277400000000  0.5283650000000 1.0
C      1  0.4662250000000  0.4837240000000  0.5642360000000 1.0
C      1  0.5611180000000  0.5466180000000  0.4913570000000 1.0
C      1  0.5205110000000  0.5697700000000  0.4759360000000 1.0
C      1  0.4873660000000  0.4984500000000  0.5471870000000 1.0
C      1  0.5579870000000  0.4664920000000  0.4907480000000 1.0
C      1  0.4417030000000  0.4561170000000  0.5366090000000 1.0
C      1  0.5068250000000  0.4603820000000  0.4949510000000 1.0
C      1  0.4575910000000  0.4508780000000  0.4817400000000 1.0
C      1  0.4539130000000  0.4750750000000  0.4385850000000 1.0
C      1  0.5351750000000  0.4674110000000  0.5397340000000 1.0
C      1  0.5405370000000  0.4898830000000  0.5553400000000 1.0
C      1  0.4454350000000  0.5023210000000  0.5763290000000 1.0
END
