TITL C-2778431-5191-1270 0.000398668789624868 125000 -265.971625943655 0 0 46 (C1) n - 1
REM
REM in /home/nfs/bkarasulu/CARBON/AIRSS/Generating-Clusters/REBO/Only-C1/SD-CG/HFTN-CG
REM
REM
REM
REM
REM
REM ./C.cell (11c1c37f851c82e70ff6c80c92926a4b)
REM
REM compiler GCC version 9.2.1 20190827 (Red Hat 9.2.1-1)
REM options -cpp -mtune=generic -march=x86-64 -g -O0 -fpre-include=/usr/include/finclude/math-vector-fortran.h
REM seed 1903008064 -384901783 -1197588599 -743628035 -1287072657 450684156 1512946412 1304767051 65165814 1470808757 9760565 1589368236 -1713909789 -1168724172 -1319860692 -1613194049 -1184807338 740522483 -1869573883 -1760868106 -1531336197 773224452 -186377129 -24726561 1575937393 -2050178752 -1765308939 1005581843 1055274191 167311556 1970611692 421277267 -1052371075
REM
CELL 1.54180   50.00000   50.00000   50.00000   90.00000   90.00000   90.00000
LATT -1
SFAC C  
C      1  0.4667510000000  0.5497400000000  0.4603810000000 1.0
C      1  0.5334520000000  0.4902280000000  0.5253500000000 1.0
C      1  0.5206330000000  0.5550940000000  0.5385880000000 1.0
C      1  0.5302240000000  0.5251870000000  0.4919960000000 1.0
C      1  0.4458490000000  0.5272840000000  0.5148110000000 1.0
C      1  0.4923760000000  0.4672530000000  0.5418160000000 1.0
C      1  0.4689260000000  0.5345810000000  0.5675590000000 1.0
C      1  0.4879890000000  0.5184340000000  0.5549320000000 1.0
C      1  0.5030560000000  0.5168900000000  0.4364580000000 1.0
C      1  0.5176230000000  0.5119230000000  0.5139760000000 1.0
C      1  0.4760150000000  0.5508840000000  0.4860500000000 1.0
C      1  0.5340720000000  0.3969900000000  0.5229290000000 1.0
C      1  0.5470930000000  0.5000610000000  0.4527300000000 1.0
C      1  0.5052360000000  0.4713040000000  0.4505480000000 1.0
C      1  0.5637370000000  0.5421890000000  0.5155910000000 1.0
C      1  0.4291720000000  0.4822340000000  0.5155800000000 1.0
C      1  0.5249030000000  0.5550870000000  0.4876710000000 1.0
C      1  0.5386050000000  0.5562070000000  0.5157020000000 1.0
C      1  0.4931000000000  0.5223910000000  0.5237080000000 1.0
C      1  0.4299620000000  0.5189890000000  0.4545900000000 1.0
C      1  0.5348000000000  0.4145200000000  0.4522960000000 1.0
C      1  0.4184180000000  0.5120270000000  0.4782540000000 1.0
C      1  0.4724800000000  0.5356570000000  0.5095800000000 1.0
C      1  0.4751640000000  0.5081090000000  0.4382430000000 1.0
C      1  0.4822890000000  0.4623790000000  0.4728900000000 1.0
C      1  0.5219130000000  0.4212310000000  0.4741070000000 1.0
C      1  0.5201190000000  0.4680300000000  0.5362590000000 1.0
C      1  0.5028190000000  0.5754440000000  0.5424430000000 1.0
C      1  0.4743540000000  0.4800180000000  0.4464900000000 1.0
C      1  0.5098740000000  0.5438880000000  0.4413420000000 1.0
C      1  0.4752530000000  0.4567880000000  0.5212840000000 1.0
C      1  0.5081700000000  0.4283870000000  0.4973650000000 1.0
C      1  0.4877740000000  0.4481410000000  0.4964900000000 1.0
C      1  0.4557920000000  0.5273700000000  0.4465790000000 1.0
C      1  0.4838590000000  0.4879170000000  0.5593750000000 1.0
C      1  0.5179060000000  0.5308190000000  0.5538100000000 1.0
C      1  0.5144830000000  0.4159450000000  0.5221570000000 1.0
C      1  0.5168440000000  0.5610500000000  0.4614840000000 1.0
C      1  0.5008000000000  0.4232580000000  0.5445840000000 1.0
C      1  0.4480190000000  0.4637630000000  0.5212470000000 1.0
C      1  0.5211570000000  0.4946530000000  0.4428100000000 1.0
C      1  0.5539620000000  0.5131670000000  0.4764620000000 1.0
C      1  0.4273140000000  0.5082380000000  0.5048680000000 1.0
C      1  0.5674410000000  0.5162000000000  0.5037580000000 1.0
C      1  0.5389220000000  0.5160690000000  0.5640250000000 1.0
C      1  0.5613020000000  0.4939800000000  0.5208280000000 1.0
END
