TITL C-2778427-5640-51 0.00106778862418724 125000 -220.641858179107 0 0 41 (C1) n - 1
REM
REM in /home/nfs/bkarasulu/CARBON/AIRSS/Generating-Clusters/REBO/Only-C1/SD-CG/HFTN-CG
REM
REM
REM
REM
REM
REM ./C.cell (11c1c37f851c82e70ff6c80c92926a4b)
REM
REM compiler GCC version 9.2.1 20190827 (Red Hat 9.2.1-1)
REM options -cpp -mtune=generic -march=x86-64 -g -O0 -fpre-include=/usr/include/finclude/math-vector-fortran.h
REM seed 1483183420 112356187 -159527172 2127175969 -1637080995 1140805808 2104094825 648934610 -177512278 353854621 -1184712044 2103731863 310588966 -149354748 -128329566 288982429 2091018531 1205756039 1701551764 1223338901 -463958273 -1923070110 1959551902 -1931917067 -1395487099 200284614 1207933124 1488170971 168288768 -1511994545 242933409 2119137190 -1315761951
REM
CELL 1.54180   50.00000   50.00000   50.00000   90.00000   90.00000   90.00000
LATT -1
SFAC C  
C      1  0.5691970000000  0.4876430000000  0.5298220000000 1.0
C      1  0.5266810000000  0.5085360000000  0.4764560000000 1.0
C      1  0.4607120000000  0.3980230000000  0.5081350000000 1.0
C      1  0.4431350000000  0.5202920000000  0.4564650000000 1.0
C      1  0.5090210000000  0.4663320000000  0.5411790000000 1.0
C      1  0.4235760000000  0.4674660000000  0.5354330000000 1.0
C      1  0.4397150000000  0.4707040000000  0.5101990000000 1.0
C      1  0.4435350000000  0.5155810000000  0.4829900000000 1.0
C      1  0.5409690000000  0.4855930000000  0.4820450000000 1.0
C      1  0.5124610000000  0.5394550000000  0.4784840000000 1.0
C      1  0.4980360000000  0.4804780000000  0.5682930000000 1.0
C      1  0.5420160000000  0.5735970000000  0.5051080000000 1.0
C      1  0.4323660000000  0.4965250000000  0.5393670000000 1.0
C      1  0.4921410000000  0.5422140000000  0.4580580000000 1.0
C      1  0.5234730000000  0.5680070000000  0.4888050000000 1.0
C      1  0.4690910000000  0.5224900000000  0.4432990000000 1.0
C      1  0.4852150000000  0.4677410000000  0.4919860000000 1.0
C      1  0.4471020000000  0.4354290000000  0.4682290000000 1.0
C      1  0.4750760000000  0.4952890000000  0.5680200000000 1.0
C      1  0.5188920000000  0.5183220000000  0.5339500000000 1.0
C      1  0.4964760000000  0.4759470000000  0.5166710000000 1.0
C      1  0.4459400000000  0.5029140000000  0.5091680000000 1.0
C      1  0.5933780000000  0.4775200000000  0.5369160000000 1.0
C      1  0.4566760000000  0.4208220000000  0.4945160000000 1.0
C      1  0.5278420000000  0.5330490000000  0.5076700000000 1.0
C      1  0.4912560000000  0.5039710000000  0.5254730000000 1.0
C      1  0.5256160000000  0.4920010000000  0.5546900000000 1.0
C      1  0.4953260000000  0.5028480000000  0.4523540000000 1.0
C      1  0.4919540000000  0.4821310000000  0.4689390000000 1.0
C      1  0.5533580000000  0.5034970000000  0.5475790000000 1.0
C      1  0.5592280000000  0.5499690000000  0.5174700000000 1.0
C      1  0.5404110000000  0.4647290000000  0.4644200000000 1.0
C      1  0.4972500000000  0.5326340000000  0.4266670000000 1.0
C      1  0.5575300000000  0.4838680000000  0.5045790000000 1.0
C      1  0.4638680000000  0.5058910000000  0.5408090000000 1.0
C      1  0.4200860000000  0.5230760000000  0.4414680000000 1.0
C      1  0.4585350000000  0.4543490000000  0.4940820000000 1.0
C      1  0.5232260000000  0.5208540000000  0.4448080000000 1.0
C      1  0.5519850000000  0.5401370000000  0.4856850000000 1.0
C      1  0.5499650000000  0.5324370000000  0.5405500000000 1.0
C      1  0.5476830000000  0.5376380000000  0.4591630000000 1.0
END
