TITL C-2778435-5768-749 -0.601822426031013 125000 -785.246221988594 0 0 133 (C1) n - 1
REM
REM in /home/nfs/bkarasulu/CARBON/AIRSS/Generating-Clusters/REBO/Only-C1/SD-CG/HFTN-CG
REM
REM
REM
REM
REM
REM ./C.cell (11c1c37f851c82e70ff6c80c92926a4b)
REM
REM compiler GCC version 9.2.1 20190827 (Red Hat 9.2.1-1)
REM options -cpp -mtune=generic -march=x86-64 -g -O0 -fpre-include=/usr/include/finclude/math-vector-fortran.h
REM seed -1624896987 1369557018 1759292586 1710198794 -1408137862 1357556063 -1472422609 694370157 -1584283159 1964447425 2029805084 -1031501012 -138126717 -2020407030 -1521489794 -1063641410 -1703470 375681414 1270894980 -594157186 -30577091 621284910 -1846784297 1363449381 -742562830 1281422234 -1176350252 1605775326 1271279423 1854529184 874895455 1026732023 -875795739
REM
CELL 1.54180   50.00000   50.00000   50.00000   90.00000   90.00000   90.00000
LATT -1
SFAC C  
C      1  0.4832860000000  0.5909970000000  0.4491760000000 1.0
C      1  0.4827470000000  0.4901730000000  0.4751950000000 1.0
C      1  0.5270060000000  0.4202510000000  0.5721360000000 1.0
C      1  0.5439270000000  0.4664880000000  0.5532610000000 1.0
C      1  0.5453910000000  0.4899080000000  0.5783730000000 1.0
C      1  0.5709830000000  0.4529360000000  0.5045150000000 1.0
C      1  0.4529150000000  0.4089420000000  0.5004420000000 1.0
C      1  0.5077780000000  0.5538550000000  0.5751110000000 1.0
C      1  0.4545160000000  0.5126480000000  0.5743060000000 1.0
C      1  0.5346300000000  0.5789760000000  0.4438890000000 1.0
C      1  0.4979840000000  0.4300560000000  0.4804910000000 1.0
C      1  0.5008420000000  0.4307770000000  0.5516600000000 1.0
C      1  0.4485760000000  0.5731260000000  0.5110190000000 1.0
C      1  0.5274990000000  0.4500030000000  0.5762710000000 1.0
C      1  0.4221340000000  0.5461650000000  0.4821750000000 1.0
C      1  0.5520390000000  0.5811960000000  0.4674680000000 1.0
C      1  0.5592960000000  0.4249390000000  0.4969700000000 1.0
C      1  0.4049040000000  0.4949320000000  0.5431690000000 1.0
C      1  0.4602100000000  0.4557790000000  0.5660040000000 1.0
C      1  0.4764430000000  0.5439010000000  0.4622860000000 1.0
C      1  0.5937090000000  0.4501010000000  0.5253980000000 1.0
C      1  0.4394340000000  0.5391380000000  0.5606560000000 1.0
C      1  0.5861540000000  0.5300560000000  0.5240130000000 1.0
C      1  0.4314870000000  0.5294440000000  0.4584270000000 1.0
C      1  0.4458150000000  0.5386520000000  0.4371750000000 1.0
C      1  0.5408780000000  0.5866050000000  0.4965810000000 1.0
C      1  0.4670270000000  0.4547790000000  0.4848000000000 1.0
C      1  0.5147390000000  0.4497780000000  0.5027090000000 1.0
C      1  0.5030280000000  0.4603270000000  0.5912240000000 1.0
C      1  0.4354130000000  0.4866100000000  0.5676170000000 1.0
C      1  0.5572060000000  0.5078820000000  0.4978480000000 1.0
C      1  0.4780090000000  0.4445090000000  0.4279020000000 1.0
C      1  0.5048780000000  0.4821770000000  0.4993650000000 1.0
C      1  0.4556800000000  0.5291950000000  0.5255870000000 1.0
C      1  0.4139530000000  0.5282920000000  0.5419050000000 1.0
C      1  0.5289470000000  0.4552560000000  0.4219670000000 1.0
C      1  0.5802830000000  0.4726810000000  0.4812390000000 1.0
C      1  0.5960110000000  0.4607460000000  0.5480010000000 1.0
C      1  0.4192180000000  0.4430860000000  0.4987840000000 1.0
C      1  0.5232790000000  0.5416000000000  0.4045240000000 1.0
C      1  0.5547050000000  0.5580420000000  0.4996500000000 1.0
C      1  0.4557630000000  0.4346080000000  0.4460070000000 1.0
C      1  0.4643880000000  0.5009560000000  0.4990370000000 1.0
C      1  0.5164750000000  0.5920410000000  0.5125890000000 1.0
C      1  0.5741540000000  0.4801610000000  0.5578850000000 1.0
C      1  0.5396110000000  0.5458860000000  0.5418970000000 1.0
C      1  0.5011310000000  0.5301860000000  0.5551380000000 1.0
C      1  0.4757120000000  0.4306180000000  0.5337120000000 1.0
C      1  0.5062540000000  0.5558440000000  0.4738890000000 1.0
C      1  0.5452030000000  0.4791210000000  0.4048860000000 1.0
C      1  0.5608400000000  0.5121910000000  0.5381650000000 1.0
C      1  0.4262990000000  0.4819560000000  0.4433050000000 1.0
C      1  0.4364810000000  0.4508600000000  0.4768340000000 1.0
C      1  0.4066750000000  0.5029530000000  0.5119290000000 1.0
C      1  0.5357990000000  0.5420330000000  0.5711800000000 1.0
C      1  0.4353830000000  0.4670850000000  0.5133760000000 1.0
C      1  0.4741840000000  0.5928350000000  0.4878810000000 1.0
C      1  0.5403680000000  0.5330560000000  0.4885760000000 1.0
C      1  0.5625260000000  0.5505460000000  0.5270000000000 1.0
C      1  0.5419540000000  0.4620120000000  0.5195330000000 1.0
C      1  0.5751660000000  0.4682940000000  0.4542300000000 1.0
C      1  0.4836710000000  0.5911000000000  0.5205590000000 1.0
C      1  0.4651690000000  0.4230490000000  0.4754700000000 1.0
C      1  0.4977470000000  0.5190630000000  0.4040320000000 1.0
C      1  0.5850500000000  0.5373120000000  0.4591680000000 1.0
C      1  0.4677720000000  0.4588620000000  0.5164070000000 1.0
C      1  0.4717400000000  0.5334320000000  0.4212500000000 1.0
C      1  0.4977050000000  0.3891820000000  0.5112630000000 1.0
C      1  0.4247210000000  0.4673050000000  0.5442080000000 1.0
C      1  0.4735930000000  0.4905640000000  0.5268430000000 1.0
C      1  0.5898700000000  0.4994230000000  0.4989540000000 1.0
C      1  0.4908680000000  0.4572930000000  0.5620840000000 1.0
C      1  0.4810100000000  0.5112910000000  0.4531210000000 1.0
C      1  0.4288670000000  0.5018010000000  0.4636170000000 1.0
C      1  0.4375490000000  0.5046610000000  0.5389790000000 1.0
C      1  0.4952220000000  0.5781120000000  0.5676790000000 1.0
C      1  0.4740410000000  0.5160070000000  0.5495410000000 1.0
C      1  0.5066080000000  0.4351080000000  0.4317010000000 1.0
C      1  0.4335560000000  0.4942080000000  0.4938510000000 1.0
C      1  0.4976890000000  0.4813230000000  0.5466770000000 1.0
C      1  0.5785300000000  0.5622790000000  0.4782930000000 1.0
C      1  0.5603350000000  0.4644110000000  0.4317540000000 1.0
C      1  0.3909520000000  0.5418570000000  0.4870250000000 1.0
C      1  0.4852440000000  0.4635070000000  0.4585410000000 1.0
C      1  0.5103350000000  0.5028280000000  0.5643580000000 1.0
C      1  0.4609620000000  0.5727740000000  0.4644560000000 1.0
C      1  0.5433310000000  0.5593110000000  0.4243070000000 1.0
C      1  0.4997750000000  0.5513830000000  0.4270320000000 1.0
C      1  0.5131890000000  0.5194170000000  0.4882480000000 1.0
C      1  0.5322250000000  0.4213370000000  0.4994940000000 1.0
C      1  0.5367030000000  0.5119050000000  0.4001020000000 1.0
C      1  0.5225410000000  0.4977210000000  0.4520140000000 1.0
C      1  0.5146710000000  0.4259860000000  0.4574190000000 1.0
C      1  0.5901450000000  0.4973240000000  0.5329970000000 1.0
C      1  0.5065050000000  0.4745690000000  0.4376420000000 1.0
C      1  0.4965240000000  0.5032480000000  0.6097360000000 1.0
C      1  0.4818770000000  0.4660980000000  0.6078110000000 1.0
C      1  0.5526280000000  0.5004640000000  0.4468520000000 1.0
C      1  0.4381390000000  0.5712250000000  0.4854970000000 1.0
C      1  0.5127190000000  0.4892110000000  0.4086930000000 1.0
C      1  0.5910400000000  0.5328300000000  0.4917640000000 1.0
C      1  0.4539470000000  0.4759650000000  0.5918890000000 1.0
C      1  0.5087220000000  0.5264400000000  0.4466160000000 1.0
C      1  0.4526900000000  0.5621270000000  0.5529510000000 1.0
C      1  0.4328300000000  0.4233780000000  0.5153720000000 1.0
C      1  0.4679120000000  0.5546190000000  0.5167760000000 1.0
C      1  0.5229250000000  0.4006910000000  0.5170230000000 1.0
C      1  0.4750930000000  0.5798490000000  0.5469030000000 1.0
C      1  0.5142480000000  0.5355440000000  0.5267660000000 1.0
C      1  0.5282330000000  0.4811570000000  0.4781920000000 1.0
C      1  0.5411610000000  0.4347970000000  0.4629000000000 1.0
C      1  0.5432350000000  0.4587260000000  0.4761680000000 1.0
C      1  0.5681150000000  0.5106690000000  0.4676630000000 1.0
C      1  0.5336630000000  0.5419290000000  0.4588840000000 1.0
C      1  0.4256420000000  0.5300230000000  0.5097440000000 1.0
C      1  0.5117980000000  0.5020220000000  0.5240820000000 1.0
C      1  0.4326550000000  0.4547580000000  0.4479790000000 1.0
C      1  0.5521680000000  0.5169710000000  0.5663680000000 1.0
C      1  0.5179340000000  0.4973370000000  0.5925660000000 1.0
C      1  0.4726180000000  0.4727910000000  0.4165840000000 1.0
C      1  0.5414490000000  0.4937780000000  0.5207120000000 1.0
C      1  0.4767170000000  0.4997710000000  0.4224890000000 1.0
C      1  0.4978920000000  0.5509930000000  0.5071150000000 1.0
C      1  0.4437280000000  0.4395520000000  0.5417850000000 1.0
C      1  0.5246970000000  0.4094110000000  0.5432990000000 1.0
C      1  0.5601090000000  0.5124210000000  0.4206850000000 1.0
C      1  0.5611820000000  0.5386050000000  0.4390250000000 1.0
C      1  0.5025050000000  0.5846210000000  0.4860790000000 1.0
C      1  0.4747250000000  0.4038290000000  0.5177760000000 1.0
C      1  0.4831730000000  0.5272250000000  0.4896100000000 1.0
C      1  0.5056050000000  0.5785070000000  0.4399640000000 1.0
C      1  0.4706410000000  0.5038880000000  0.6014490000000 1.0
C      1  0.3838420000000  0.5205780000000  0.4988130000000 1.0
END
