TITL C-2778430-5657-786 0.0015933866273246 125000 -723.228814137438 0 0 123 (C1) n - 1
REM
REM in /home/nfs/bkarasulu/CARBON/AIRSS/Generating-Clusters/REBO/Only-C1/SD-CG/HFTN-CG
REM
REM
REM
REM
REM
REM ./C.cell (11c1c37f851c82e70ff6c80c92926a4b)
REM
REM compiler GCC version 9.2.1 20190827 (Red Hat 9.2.1-1)
REM options -cpp -mtune=generic -march=x86-64 -g -O0 -fpre-include=/usr/include/finclude/math-vector-fortran.h
REM seed 158843635 -693306987 1373258347 597880588 -1922246498 2010591456 1730548685 -1896347227 -1985679608 -1304787044 -1653637811 -622996871 -1908830576 1835776984 -145867517 -936572577 -1972106618 -41186828 602578330 -498253106 1236236826 -344076001 1083347714 -1240794006 378957507 1012851932 1643146853 -593401085 609196064 -1311155248 597577526 104176671 -4755395
REM
CELL 1.54180   50.00000   50.00000   50.00000   90.00000   90.00000   90.00000
LATT -1
SFAC C  
C      1  0.4848310000000  0.5827630000000  0.5047800000000 1.0
C      1  0.4533530000000  0.4293060000000  0.5274490000000 1.0
C      1  0.4319620000000  0.4879400000000  0.5591270000000 1.0
C      1  0.4441040000000  0.6267830000000  0.4616520000000 1.0
C      1  0.5751980000000  0.4417810000000  0.5559120000000 1.0
C      1  0.5769900000000  0.4688650000000  0.5383540000000 1.0
C      1  0.4313700000000  0.5489590000000  0.4547380000000 1.0
C      1  0.5312350000000  0.4968850000000  0.5148660000000 1.0
C      1  0.5339950000000  0.4526260000000  0.5525180000000 1.0
C      1  0.4145930000000  0.4613520000000  0.5055260000000 1.0
C      1  0.5189560000000  0.4646890000000  0.4309390000000 1.0
C      1  0.5191720000000  0.5093640000000  0.5651670000000 1.0
C      1  0.5427880000000  0.4872890000000  0.4342360000000 1.0
C      1  0.5062520000000  0.4334870000000  0.4399160000000 1.0
C      1  0.5785860000000  0.5185670000000  0.4907990000000 1.0
C      1  0.4723580000000  0.5327690000000  0.4968040000000 1.0
C      1  0.4263220000000  0.4805840000000  0.5285770000000 1.0
C      1  0.5381940000000  0.4257090000000  0.5232720000000 1.0
C      1  0.5620540000000  0.5646440000000  0.4482610000000 1.0
C      1  0.5130680000000  0.4555640000000  0.4631370000000 1.0
C      1  0.4711010000000  0.5732620000000  0.5585260000000 1.0
C      1  0.4503790000000  0.6065360000000  0.4770630000000 1.0
C      1  0.4979230000000  0.5014990000000  0.4549030000000 1.0
C      1  0.4945860000000  0.4062820000000  0.5376940000000 1.0
C      1  0.4524760000000  0.5654180000000  0.4406140000000 1.0
C      1  0.4687520000000  0.5562080000000  0.5809780000000 1.0
C      1  0.5083030000000  0.5840180000000  0.4843460000000 1.0
C      1  0.4777320000000  0.5171770000000  0.4438410000000 1.0
C      1  0.5778050000000  0.4571450000000  0.5075930000000 1.0
C      1  0.5419590000000  0.5521620000000  0.5471180000000 1.0
C      1  0.4883920000000  0.5122300000000  0.5398140000000 1.0
C      1  0.4656110000000  0.4044970000000  0.5357320000000 1.0
C      1  0.5188030000000  0.5425900000000  0.5701540000000 1.0
C      1  0.4642450000000  0.4129780000000  0.4158630000000 1.0
C      1  0.4907660000000  0.5632940000000  0.5322810000000 1.0
C      1  0.5950930000000  0.4750990000000  0.4863640000000 1.0
C      1  0.5534350000000  0.4878070000000  0.4640470000000 1.0
C      1  0.4803480000000  0.5413900000000  0.4755470000000 1.0
C      1  0.5108220000000  0.3976900000000  0.5154490000000 1.0
C      1  0.5780510000000  0.5021540000000  0.5375570000000 1.0
C      1  0.5236630000000  0.5044040000000  0.4646510000000 1.0
C      1  0.5236090000000  0.4027940000000  0.4899180000000 1.0
C      1  0.4537640000000  0.4883990000000  0.5130280000000 1.0
C      1  0.4179590000000  0.5205870000000  0.4919030000000 1.0
C      1  0.5575110000000  0.5819810000000  0.4691960000000 1.0
C      1  0.5299300000000  0.4538730000000  0.4864090000000 1.0
C      1  0.4385800000000  0.5303050000000  0.5372300000000 1.0
C      1  0.4518670000000  0.5072090000000  0.4360150000000 1.0
C      1  0.4460630000000  0.4843150000000  0.4843140000000 1.0
C      1  0.4760990000000  0.5347090000000  0.4070400000000 1.0
C      1  0.5759080000000  0.5354370000000  0.5418940000000 1.0
C      1  0.4999130000000  0.5835880000000  0.4558580000000 1.0
C      1  0.4570190000000  0.5851050000000  0.4933820000000 1.0
C      1  0.5240390000000  0.4709430000000  0.5927420000000 1.0
C      1  0.4789370000000  0.4710700000000  0.5705740000000 1.0
C      1  0.5045650000000  0.5453900000000  0.4188000000000 1.0
C      1  0.5692740000000  0.4405570000000  0.4576520000000 1.0
C      1  0.4887150000000  0.4992890000000  0.5700160000000 1.0
C      1  0.5094000000000  0.5021470000000  0.3960830000000 1.0
C      1  0.5506870000000  0.5209040000000  0.5596640000000 1.0
C      1  0.4155880000000  0.4591000000000  0.4783610000000 1.0
C      1  0.4790850000000  0.5070120000000  0.4012230000000 1.0
C      1  0.4375530000000  0.5657750000000  0.5012250000000 1.0
C      1  0.5014130000000  0.4877690000000  0.5247480000000 1.0
C      1  0.4785860000000  0.5191090000000  0.5909270000000 1.0
C      1  0.4707390000000  0.4414350000000  0.5080150000000 1.0
C      1  0.4399680000000  0.4553920000000  0.5971540000000 1.0
C      1  0.4815460000000  0.5488150000000  0.4439610000000 1.0
C      1  0.4890710000000  0.4733270000000  0.4559790000000 1.0
C      1  0.5191010000000  0.5616950000000  0.5069180000000 1.0
C      1  0.5622970000000  0.4141790000000  0.4610000000000 1.0
C      1  0.4400260000000  0.4487550000000  0.5446590000000 1.0
C      1  0.5612370000000  0.4444840000000  0.5806060000000 1.0
C      1  0.5519410000000  0.4081540000000  0.4868230000000 1.0
C      1  0.4771330000000  0.4698970000000  0.5175310000000 1.0
C      1  0.4617610000000  0.4681910000000  0.4699370000000 1.0
C      1  0.4362470000000  0.5162730000000  0.5640520000000 1.0
C      1  0.4733840000000  0.5873890000000  0.4505760000000 1.0
C      1  0.5279660000000  0.4708720000000  0.5350670000000 1.0
C      1  0.4778900000000  0.4328140000000  0.4265950000000 1.0
C      1  0.5548990000000  0.5356350000000  0.4427620000000 1.0
C      1  0.4294420000000  0.5244270000000  0.4403010000000 1.0
C      1  0.5584990000000  0.4606840000000  0.4797500000000 1.0
C      1  0.4894630000000  0.5978650000000  0.5335740000000 1.0
C      1  0.4713210000000  0.4627330000000  0.4301840000000 1.0
C      1  0.5142480000000  0.5705390000000  0.4366140000000 1.0
C      1  0.5603040000000  0.5119060000000  0.5136960000000 1.0
C      1  0.5053260000000  0.4168240000000  0.4690770000000 1.0
C      1  0.5710390000000  0.5555340000000  0.5189590000000 1.0
C      1  0.5016310000000  0.4293070000000  0.5533530000000 1.0
C      1  0.5237630000000  0.5233490000000  0.4083230000000 1.0
C      1  0.5452710000000  0.5762660000000  0.5232760000000 1.0
C      1  0.5868700000000  0.5447050000000  0.4931980000000 1.0
C      1  0.4725350000000  0.6043590000000  0.5570260000000 1.0
C      1  0.5412520000000  0.5881920000000  0.4908410000000 1.0
C      1  0.4261470000000  0.5470470000000  0.4825020000000 1.0
C      1  0.4489310000000  0.4653860000000  0.5727090000000 1.0
C      1  0.4212650000000  0.4984100000000  0.4739200000000 1.0
C      1  0.5056930000000  0.5374940000000  0.5395460000000 1.0
C      1  0.4629920000000  0.5166030000000  0.5217390000000 1.0
C      1  0.5442280000000  0.5151550000000  0.4255850000000 1.0
C      1  0.5498870000000  0.4716740000000  0.5838950000000 1.0
C      1  0.4458960000000  0.4790640000000  0.4348900000000 1.0
C      1  0.5655700000000  0.4204380000000  0.5401640000000 1.0
C      1  0.5014030000000  0.4496060000000  0.5812870000000 1.0
C      1  0.4964550000000  0.5446550000000  0.5910300000000 1.0
C      1  0.5192420000000  0.4384900000000  0.5072890000000 1.0
C      1  0.5680800000000  0.4258910000000  0.5083460000000 1.0
C      1  0.5314780000000  0.4345760000000  0.5779200000000 1.0
C      1  0.4931310000000  0.4281220000000  0.4965000000000 1.0
C      1  0.4882720000000  0.4556040000000  0.5444420000000 1.0
C      1  0.5609210000000  0.4885010000000  0.5620310000000 1.0
C      1  0.4506800000000  0.3932570000000  0.4051920000000 1.0
C      1  0.4562070000000  0.5527770000000  0.4111950000000 1.0
C      1  0.4943480000000  0.4794510000000  0.4150300000000 1.0
C      1  0.4354480000000  0.5593990000000  0.5289360000000 1.0
C      1  0.4505130000000  0.5295580000000  0.5844180000000 1.0
C      1  0.4219690000000  0.5120030000000  0.5184390000000 1.0
C      1  0.5479010000000  0.5354510000000  0.4716080000000 1.0
C      1  0.5327510000000  0.5280120000000  0.5248860000000 1.0
C      1  0.4242430000000  0.4733740000000  0.4527910000000 1.0
C      1  0.5471670000000  0.5487700000000  0.4949380000000 1.0
C      1  0.5813210000000  0.4961040000000  0.4745970000000 1.0
END
