TITL C-2778424-3986-1455 0.0025219544248086 125000 -1068.59951482008 0 0 186 (C1) n - 1
REM
REM in /home/nfs/bkarasulu/CARBON/AIRSS/Generating-Clusters/REBO/Only-C1/SD-CG/HFTN-CG
REM
REM
REM
REM
REM
REM ./C.cell (11c1c37f851c82e70ff6c80c92926a4b)
REM
REM compiler GCC version 9.2.1 20190827 (Red Hat 9.2.1-1)
REM options -cpp -mtune=generic -march=x86-64 -g -O0 -fpre-include=/usr/include/finclude/math-vector-fortran.h
REM seed -924361607 279270167 416466330 -142848568 255776549 453048651 2065609620 -494448536 1073342638 542257668 -831744920 1955371561 -220894100 -1349492028 -1726473983 1935978940 -1605561894 -1983198925 556834437 99414750 1280930596 -681372 -275911147 933770652 1017380971 753428741 424592586 1258042731 -1384961807 -1936523125 -1709604879 -2075071063 -460852029
REM
CELL 1.54180   50.00000   50.00000   50.00000   90.00000   90.00000   90.00000
LATT -1
SFAC C  
C      1  0.5266640000000  0.4240150000000  0.4860210000000 1.0
C      1  0.4449160000000  0.5326690000000  0.4934090000000 1.0
C      1  0.4199090000000  0.5110330000000  0.5839510000000 1.0
C      1  0.5583280000000  0.4207390000000  0.4802110000000 1.0
C      1  0.5069840000000  0.4167350000000  0.5458710000000 1.0
C      1  0.4218340000000  0.4292250000000  0.4803420000000 1.0
C      1  0.5023990000000  0.5508400000000  0.3957320000000 1.0
C      1  0.4408830000000  0.4735930000000  0.4124860000000 1.0
C      1  0.4159210000000  0.4943620000000  0.5554530000000 1.0
C      1  0.5799370000000  0.5524690000000  0.5176230000000 1.0
C      1  0.4055780000000  0.4892510000000  0.4439510000000 1.0
C      1  0.4208970000000  0.4748190000000  0.5279370000000 1.0
C      1  0.4428250000000  0.4128570000000  0.5023440000000 1.0
C      1  0.4719740000000  0.3848620000000  0.4610250000000 1.0
C      1  0.5183280000000  0.5531230000000  0.5901910000000 1.0
C      1  0.4469620000000  0.5623730000000  0.5198890000000 1.0
C      1  0.5738770000000  0.5360440000000  0.4114640000000 1.0
C      1  0.3991840000000  0.4822010000000  0.5050750000000 1.0
C      1  0.5115360000000  0.5063990000000  0.6096980000000 1.0
C      1  0.5241550000000  0.5324550000000  0.4432150000000 1.0
C      1  0.5756620000000  0.4574850000000  0.4425500000000 1.0
C      1  0.5361170000000  0.4638310000000  0.5535450000000 1.0
C      1  0.4478510000000  0.4320100000000  0.5586920000000 1.0
C      1  0.5010750000000  0.6104570000000  0.4959220000000 1.0
C      1  0.4775310000000  0.4339940000000  0.4554750000000 1.0
C      1  0.4482850000000  0.4830270000000  0.5550720000000 1.0
C      1  0.4828580000000  0.4655480000000  0.5649480000000 1.0
C      1  0.5223690000000  0.5414760000000  0.5466050000000 1.0
C      1  0.5809250000000  0.5102870000000  0.5672320000000 1.0
C      1  0.4823640000000  0.4711470000000  0.3863960000000 1.0
C      1  0.5940970000000  0.4978830000000  0.5108430000000 1.0
C      1  0.5927600000000  0.4372670000000  0.5245470000000 1.0
C      1  0.4574130000000  0.5064580000000  0.5715860000000 1.0
C      1  0.4526010000000  0.5310590000000  0.5267810000000 1.0
C      1  0.4733740000000  0.5410610000000  0.4520860000000 1.0
C      1  0.5801570000000  0.5484200000000  0.5509760000000 1.0
C      1  0.4260960000000  0.5872520000000  0.4973250000000 1.0
C      1  0.4537420000000  0.4576780000000  0.5732400000000 1.0
C      1  0.4760500000000  0.4186680000000  0.5567240000000 1.0
C      1  0.4471960000000  0.5006590000000  0.6018760000000 1.0
C      1  0.5006100000000  0.4551140000000  0.4175510000000 1.0
C      1  0.5926510000000  0.5198510000000  0.5367530000000 1.0
C      1  0.5052570000000  0.4336660000000  0.4393750000000 1.0
C      1  0.5259450000000  0.5486600000000  0.5077250000000 1.0
C      1  0.5057540000000  0.5025760000000  0.5474390000000 1.0
C      1  0.5846530000000  0.4706020000000  0.5289670000000 1.0
C      1  0.4961420000000  0.5351660000000  0.5173110000000 1.0
C      1  0.5707260000000  0.5155220000000  0.4630800000000 1.0
C      1  0.5049260000000  0.5694640000000  0.4726660000000 1.0
C      1  0.6008800000000  0.5491050000000  0.4918010000000 1.0
C      1  0.4636070000000  0.4983900000000  0.4457850000000 1.0
C      1  0.5501990000000  0.5602590000000  0.4125720000000 1.0
C      1  0.5282960000000  0.4823380000000  0.5920150000000 1.0
C      1  0.4917750000000  0.5096320000000  0.4297160000000 1.0
C      1  0.4602880000000  0.4882560000000  0.3962530000000 1.0
C      1  0.5433350000000  0.3981810000000  0.5125630000000 1.0
C      1  0.4209290000000  0.5556330000000  0.4848740000000 1.0
C      1  0.4004330000000  0.4504010000000  0.4923690000000 1.0
C      1  0.4959230000000  0.5875610000000  0.5282370000000 1.0
C      1  0.4515740000000  0.4679430000000  0.5147510000000 1.0
C      1  0.4141080000000  0.5300700000000  0.5421840000000 1.0
C      1  0.4516380000000  0.5344120000000  0.5573510000000 1.0
C      1  0.6090310000000  0.4754530000000  0.4898530000000 1.0
C      1  0.4970270000000  0.4312180000000  0.5811580000000 1.0
C      1  0.5721020000000  0.4467630000000  0.5501060000000 1.0
C      1  0.5123060000000  0.5726010000000  0.5521210000000 1.0
C      1  0.4916170000000  0.5015310000000  0.5174330000000 1.0
C      1  0.5258720000000  0.5295690000000  0.4828790000000 1.0
C      1  0.4205400000000  0.5582120000000  0.5496020000000 1.0
C      1  0.5286390000000  0.5136500000000  0.5260780000000 1.0
C      1  0.5698210000000  0.5383880000000  0.5811280000000 1.0
C      1  0.5427570000000  0.4182940000000  0.4259440000000 1.0
C      1  0.4778670000000  0.4207160000000  0.4855810000000 1.0
C      1  0.4771940000000  0.5990460000000  0.5669470000000 1.0
C      1  0.5933060000000  0.5442680000000  0.4355150000000 1.0
C      1  0.4965900000000  0.5302530000000  0.6033940000000 1.0
C      1  0.4647320000000  0.3900290000000  0.4898000000000 1.0
C      1  0.4961990000000  0.5761000000000  0.5797200000000 1.0
C      1  0.5672820000000  0.4992840000000  0.4896000000000 1.0
C      1  0.6128940000000  0.5189500000000  0.4918170000000 1.0
C      1  0.5652980000000  0.4217110000000  0.5116780000000 1.0
C      1  0.5659440000000  0.4679680000000  0.4855660000000 1.0
C      1  0.4170510000000  0.5251530000000  0.5102150000000 1.0
C      1  0.4422780000000  0.4412270000000  0.5277860000000 1.0
C      1  0.4226980000000  0.5191200000000  0.4632640000000 1.0
C      1  0.5160330000000  0.4869700000000  0.4361780000000 1.0
C      1  0.4250280000000  0.5698790000000  0.4479200000000 1.0
C      1  0.5135920000000  0.4462460000000  0.4675060000000 1.0
C      1  0.5284300000000  0.4240200000000  0.5697650000000 1.0
C      1  0.4022200000000  0.5524360000000  0.4565020000000 1.0
C      1  0.4479320000000  0.4682840000000  0.6003610000000 1.0
C      1  0.5446040000000  0.4276930000000  0.4505830000000 1.0
C      1  0.4132420000000  0.5691800000000  0.5212580000000 1.0
C      1  0.4701930000000  0.4474470000000  0.4052400000000 1.0
C      1  0.4606410000000  0.4614620000000  0.4608660000000 1.0
C      1  0.5713250000000  0.5662620000000  0.4367110000000 1.0
C      1  0.5783860000000  0.5721770000000  0.4909300000000 1.0
C      1  0.5804830000000  0.4380900000000  0.4636310000000 1.0
C      1  0.4886370000000  0.5038070000000  0.4856160000000 1.0
C      1  0.4984530000000  0.5269610000000  0.4651070000000 1.0
C      1  0.4910500000000  0.4873170000000  0.5813190000000 1.0
C      1  0.4172290000000  0.4274090000000  0.5441980000000 1.0
C      1  0.4399910000000  0.4812630000000  0.4728070000000 1.0
C      1  0.5553840000000  0.5140150000000  0.5488920000000 1.0
C      1  0.4895030000000  0.5562360000000  0.4932180000000 1.0
C      1  0.4468100000000  0.6038260000000  0.5104160000000 1.0
C      1  0.5174340000000  0.3979430000000  0.5259220000000 1.0
C      1  0.5096940000000  0.3972190000000  0.4786390000000 1.0
C      1  0.5407140000000  0.5127930000000  0.6145010000000 1.0
C      1  0.4514120000000  0.4410320000000  0.4842690000000 1.0
C      1  0.4718660000000  0.5596850000000  0.5657390000000 1.0
C      1  0.4854830000000  0.4725750000000  0.4419320000000 1.0
C      1  0.5571350000000  0.4888800000000  0.6062350000000 1.0
C      1  0.4807540000000  0.4594800000000  0.5036700000000 1.0
C      1  0.4867900000000  0.5144860000000  0.5681480000000 1.0
C      1  0.5336810000000  0.4992350000000  0.4955650000000 1.0
C      1  0.5492200000000  0.5372140000000  0.4629840000000 1.0
C      1  0.5774550000000  0.4852060000000  0.5846900000000 1.0
C      1  0.5250420000000  0.4501050000000  0.5892170000000 1.0
C      1  0.5642940000000  0.5087550000000  0.4104760000000 1.0
C      1  0.5037190000000  0.4735030000000  0.4860850000000 1.0
C      1  0.4929380000000  0.3910670000000  0.5075840000000 1.0
C      1  0.5076320000000  0.4506950000000  0.5483050000000 1.0
C      1  0.4547840000000  0.5663670000000  0.4638290000000 1.0
C      1  0.5472560000000  0.4734340000000  0.4315370000000 1.0
C      1  0.3942660000000  0.5484340000000  0.5057780000000 1.0
C      1  0.5448830000000  0.5908560000000  0.4823340000000 1.0
C      1  0.5541600000000  0.5368950000000  0.5231260000000 1.0
C      1  0.6148730000000  0.4818400000000  0.4638430000000 1.0
C      1  0.5173240000000  0.5938950000000  0.4793630000000 1.0
C      1  0.5075430000000  0.5607830000000  0.4457860000000 1.0
C      1  0.3926480000000  0.5023570000000  0.5318050000000 1.0
C      1  0.4424070000000  0.5730650000000  0.5598460000000 1.0
C      1  0.4871910000000  0.4711850000000  0.5323000000000 1.0
C      1  0.3792450000000  0.5280070000000  0.5227090000000 1.0
C      1  0.3944260000000  0.5209670000000  0.4493290000000 1.0
C      1  0.4503590000000  0.5646220000000  0.4294650000000 1.0
C      1  0.5982820000000  0.5306610000000  0.4634160000000 1.0
C      1  0.5321140000000  0.5314160000000  0.4141150000000 1.0
C      1  0.4526390000000  0.4989370000000  0.5259550000000 1.0
C      1  0.5139480000000  0.4764200000000  0.3944070000000 1.0
C      1  0.5931490000000  0.4487480000000  0.4932220000000 1.0
C      1  0.4631140000000  0.5891920000000  0.5370980000000 1.0
C      1  0.4671780000000  0.5137030000000  0.4084910000000 1.0
C      1  0.5337340000000  0.5019980000000  0.3969500000000 1.0
C      1  0.4451020000000  0.4446820000000  0.4234970000000 1.0
C      1  0.5279770000000  0.4850980000000  0.4645710000000 1.0
C      1  0.4399590000000  0.5374050000000  0.5891830000000 1.0
C      1  0.5189780000000  0.5688610000000  0.4153750000000 1.0
C      1  0.4737810000000  0.6036410000000  0.4960250000000 1.0
C      1  0.4939360000000  0.4308720000000  0.5108650000000 1.0
C      1  0.5416250000000  0.4330930000000  0.4030330000000 1.0
C      1  0.5290870000000  0.4680830000000  0.5087030000000 1.0
C      1  0.4030680000000  0.4480260000000  0.5254940000000 1.0
C      1  0.4904050000000  0.5393750000000  0.5497610000000 1.0
C      1  0.5583630000000  0.5871800000000  0.5132980000000 1.0
C      1  0.4333000000000  0.4349630000000  0.4486360000000 1.0
C      1  0.5430000000000  0.4331640000000  0.5423200000000 1.0
C      1  0.5330540000000  0.5966520000000  0.5424560000000 1.0
C      1  0.4194170000000  0.5021010000000  0.4894810000000 1.0
C      1  0.5393610000000  0.3862110000000  0.4871440000000 1.0
C      1  0.5257040000000  0.5774900000000  0.5147830000000 1.0
C      1  0.5441440000000  0.5541980000000  0.5672570000000 1.0
C      1  0.5592490000000  0.4551690000000  0.5134200000000 1.0
C      1  0.5183150000000  0.5285230000000  0.3828890000000 1.0
C      1  0.4585410000000  0.5090450000000  0.4777480000000 1.0
C      1  0.4337760000000  0.4914180000000  0.4340370000000 1.0
C      1  0.4933560000000  0.4043190000000  0.4525310000000 1.0
C      1  0.4080070000000  0.4707650000000  0.4678930000000 1.0
C      1  0.4418830000000  0.5315270000000  0.4493460000000 1.0
C      1  0.4906180000000  0.5421950000000  0.4238000000000 1.0
C      1  0.5246430000000  0.4357610000000  0.5155150000000 1.0
C      1  0.5462060000000  0.5382230000000  0.6030970000000 1.0
C      1  0.4515530000000  0.5357870000000  0.4182830000000 1.0
C      1  0.5135370000000  0.6164200000000  0.5228510000000 1.0
C      1  0.5383140000000  0.4598540000000  0.4051660000000 1.0
C      1  0.5972690000000  0.4790920000000  0.4419630000000 1.0
C      1  0.5323340000000  0.4938320000000  0.5604930000000 1.0
C      1  0.4682590000000  0.5277380000000  0.6035340000000 1.0
C      1  0.4697750000000  0.4106330000000  0.5236680000000 1.0
C      1  0.5596540000000  0.5673110000000  0.4649710000000 1.0
C      1  0.5572760000000  0.4584760000000  0.5784340000000 1.0
C      1  0.4626550000000  0.5715980000000  0.4931340000000 1.0
C      1  0.5447970000000  0.4572240000000  0.4676050000000 1.0
C      1  0.5702310000000  0.4965060000000  0.4384100000000 1.0
C      1  0.5592330000000  0.5748140000000  0.5448150000000 1.0
END
