TITL C-2778430-5657-1445 -0.00082877934563468 125000 -386.298340428253 0 0 67 (C1) n - 1
REM
REM in /home/nfs/bkarasulu/CARBON/AIRSS/Generating-Clusters/REBO/Only-C1/SD-CG/HFTN-CG
REM
REM
REM
REM
REM
REM ./C.cell (11c1c37f851c82e70ff6c80c92926a4b)
REM
REM compiler GCC version 9.2.1 20190827 (Red Hat 9.2.1-1)
REM options -cpp -mtune=generic -march=x86-64 -g -O0 -fpre-include=/usr/include/finclude/math-vector-fortran.h
REM seed -1522092432 -712062600 -1622784022 -430111811 717155945 699937807 1956745362 -2018315620 -1147535981 -723780557 412692565 -368311922 -942561937 1657165975 -1370975468 283953569 -1274409836 1649545231 1497112063 678529546 2074727270 -1059251451 803388690 546777347 326451511 167266579 -1111075647 1150924963 -1360638498 -1837883590 1995704869 1982447710 -1474441911
REM
CELL 1.54180   50.00000   50.00000   50.00000   90.00000   90.00000   90.00000
LATT -1
SFAC C  
C      1  0.4794990000000  0.5021930000000  0.4701410000000 1.0
C      1  0.4458200000000  0.4361160000000  0.4973320000000 1.0
C      1  0.4603180000000  0.5195170000000  0.5457230000000 1.0
C      1  0.5240710000000  0.4490450000000  0.4535100000000 1.0
C      1  0.5295780000000  0.5066670000000  0.5411600000000 1.0
C      1  0.4194490000000  0.5227540000000  0.5155230000000 1.0
C      1  0.4171240000000  0.5097420000000  0.4913440000000 1.0
C      1  0.5005760000000  0.4898230000000  0.5348130000000 1.0
C      1  0.4506980000000  0.4770430000000  0.5235940000000 1.0
C      1  0.5115460000000  0.4287240000000  0.5585440000000 1.0
C      1  0.4660710000000  0.5444610000000  0.5013540000000 1.0
C      1  0.5600670000000  0.5000050000000  0.4922420000000 1.0
C      1  0.5449440000000  0.5362580000000  0.5366950000000 1.0
C      1  0.5291620000000  0.5820100000000  0.4680410000000 1.0
C      1  0.5107390000000  0.5423630000000  0.5168900000000 1.0
C      1  0.5165390000000  0.4638010000000  0.5013280000000 1.0
C      1  0.5152720000000  0.5290750000000  0.4441150000000 1.0
C      1  0.5191830000000  0.5420910000000  0.5559760000000 1.0
C      1  0.5054580000000  0.5131140000000  0.5101670000000 1.0
C      1  0.4344560000000  0.5277180000000  0.5378440000000 1.0
C      1  0.4618030000000  0.4523800000000  0.4527740000000 1.0
C      1  0.4319930000000  0.5057200000000  0.4633410000000 1.0
C      1  0.4743210000000  0.4687900000000  0.6183570000000 1.0
C      1  0.4764770000000  0.4720720000000  0.4731060000000 1.0
C      1  0.5346740000000  0.4864670000000  0.5148370000000 1.0
C      1  0.5185930000000  0.4344230000000  0.5285080000000 1.0
C      1  0.4714830000000  0.4992710000000  0.5259510000000 1.0
C      1  0.4365340000000  0.4500230000000  0.4701540000000 1.0
C      1  0.4346950000000  0.4629210000000  0.5073220000000 1.0
C      1  0.4967120000000  0.4524410000000  0.5728290000000 1.0
C      1  0.4746200000000  0.4339700000000  0.5014180000000 1.0
C      1  0.5039480000000  0.4615240000000  0.5423720000000 1.0
C      1  0.4922260000000  0.5575660000000  0.5487160000000 1.0
C      1  0.4762320000000  0.5578080000000  0.4299500000000 1.0
C      1  0.4632610000000  0.5356950000000  0.4377620000000 1.0
C      1  0.5777170000000  0.5187290000000  0.5073530000000 1.0
C      1  0.4567460000000  0.5138690000000  0.4537330000000 1.0
C      1  0.4760250000000  0.5153180000000  0.4978780000000 1.0
C      1  0.5171470000000  0.4791980000000  0.4455540000000 1.0
C      1  0.4752520000000  0.4222330000000  0.4497270000000 1.0
C      1  0.5197620000000  0.5489690000000  0.4287840000000 1.0
C      1  0.4891440000000  0.4055480000000  0.4663630000000 1.0
C      1  0.5390540000000  0.5729520000000  0.4913520000000 1.0
C      1  0.5363040000000  0.5558660000000  0.5126630000000 1.0
C      1  0.4942600000000  0.4140200000000  0.4930730000000 1.0
C      1  0.5197570000000  0.4240900000000  0.5023280000000 1.0
C      1  0.5727520000000  0.4743350000000  0.4830290000000 1.0
C      1  0.4776130000000  0.4531290000000  0.4247530000000 1.0
C      1  0.5637080000000  0.4510080000000  0.4827820000000 1.0
C      1  0.4849750000000  0.5583320000000  0.5184290000000 1.0
C      1  0.4228020000000  0.4783030000000  0.4809850000000 1.0
C      1  0.5934880000000  0.5391660000000  0.5492670000000 1.0
C      1  0.5266380000000  0.5042840000000  0.4869850000000 1.0
C      1  0.4932230000000  0.5800280000000  0.4271970000000 1.0
C      1  0.5339030000000  0.4441140000000  0.4814130000000 1.0
C      1  0.6121860000000  0.5467470000000  0.5666480000000 1.0
C      1  0.5104150000000  0.5039160000000  0.4609860000000 1.0
C      1  0.5056460000000  0.4555400000000  0.4274550000000 1.0
C      1  0.4853290000000  0.4607520000000  0.5959730000000 1.0
C      1  0.4879100000000  0.4600400000000  0.4964890000000 1.0
C      1  0.4813210000000  0.5309930000000  0.5611200000000 1.0
C      1  0.5129700000000  0.5840120000000  0.4467990000000 1.0
C      1  0.5073560000000  0.5138610000000  0.5660150000000 1.0
C      1  0.6305870000000  0.5542070000000  0.5837530000000 1.0
C      1  0.5741080000000  0.5313090000000  0.5312520000000 1.0
C      1  0.4906330000000  0.5971700000000  0.4061840000000 1.0
C      1  0.4431260000000  0.5543730000000  0.4899430000000 1.0
END
