TITL C-2778435-5768-320 -0.00277988630484821 125000 -678.70783041379 0 0 119 (C1) n - 1
REM
REM in /home/nfs/bkarasulu/CARBON/AIRSS/Generating-Clusters/REBO/Only-C1/SD-CG/HFTN-CG
REM
REM
REM
REM
REM
REM ./C.cell (11c1c37f851c82e70ff6c80c92926a4b)
REM
REM compiler GCC version 9.2.1 20190827 (Red Hat 9.2.1-1)
REM options -cpp -mtune=generic -march=x86-64 -g -O0 -fpre-include=/usr/include/finclude/math-vector-fortran.h
REM seed -370389800 867116788 1451807098 -2055294591 1132078042 1350789102 1894706716 -266306206 -1444186995 -1063749987 -1010452294 253691990 -706491554 1222603450 -63239316 -455565 424176842 2104890684 -1752479278 -529105189 1236037206 97598974 -367175338 670431976 1776992754 -144078969 1666010886 944346995 211171570 -1738510720 1475073190 -1068659725 -53952976
REM
CELL 1.54180   50.00000   50.00000   50.00000   90.00000   90.00000   90.00000
LATT -1
SFAC C  
C      1  0.5711190000000  0.5419420000000  0.4718900000000 1.0
C      1  0.5170670000000  0.5370130000000  0.5395420000000 1.0
C      1  0.4922520000000  0.5364450000000  0.4824550000000 1.0
C      1  0.4895680000000  0.4502320000000  0.4199800000000 1.0
C      1  0.4175200000000  0.4882320000000  0.4897990000000 1.0
C      1  0.4227460000000  0.5314660000000  0.5976510000000 1.0
C      1  0.5935780000000  0.5335980000000  0.4962730000000 1.0
C      1  0.5147480000000  0.4918540000000  0.4061860000000 1.0
C      1  0.5773610000000  0.4436100000000  0.4596950000000 1.0
C      1  0.5208280000000  0.5038580000000  0.5179890000000 1.0
C      1  0.4788920000000  0.4075090000000  0.5040810000000 1.0
C      1  0.4337570000000  0.5068250000000  0.5127770000000 1.0
C      1  0.4678550000000  0.4726400000000  0.4170980000000 1.0
C      1  0.5322720000000  0.5416070000000  0.5135110000000 1.0
C      1  0.5586860000000  0.5544770000000  0.5181070000000 1.0
C      1  0.5797210000000  0.4889480000000  0.5545010000000 1.0
C      1  0.5398040000000  0.5410950000000  0.4813230000000 1.0
C      1  0.5763980000000  0.5178420000000  0.4404630000000 1.0
C      1  0.4921880000000  0.5607980000000  0.5608250000000 1.0
C      1  0.4144310000000  0.5428050000000  0.5141730000000 1.0
C      1  0.5086730000000  0.4682690000000  0.4600930000000 1.0
C      1  0.5497470000000  0.5740940000000  0.4849430000000 1.0
C      1  0.5246920000000  0.5198790000000  0.4663080000000 1.0
C      1  0.5653980000000  0.4915640000000  0.4300700000000 1.0
C      1  0.4407750000000  0.5112400000000  0.5432810000000 1.0
C      1  0.4967370000000  0.5273480000000  0.4535460000000 1.0
C      1  0.4650940000000  0.5454260000000  0.4981170000000 1.0
C      1  0.5529800000000  0.4918820000000  0.5515670000000 1.0
C      1  0.4822600000000  0.4805440000000  0.4448310000000 1.0
C      1  0.4167730000000  0.5043530000000  0.4532880000000 1.0
C      1  0.4544210000000  0.4620450000000  0.5649930000000 1.0
C      1  0.5223930000000  0.4599480000000  0.5754530000000 1.0
C      1  0.4329860000000  0.4880100000000  0.5644970000000 1.0
C      1  0.4396250000000  0.5320290000000  0.4951070000000 1.0
C      1  0.5116910000000  0.4987510000000  0.4855400000000 1.0
C      1  0.4801480000000  0.4832300000000  0.5863510000000 1.0
C      1  0.4764070000000  0.4579700000000  0.4672730000000 1.0
C      1  0.5556490000000  0.5448570000000  0.4414440000000 1.0
C      1  0.4777550000000  0.5440220000000  0.5277080000000 1.0
C      1  0.4670960000000  0.4816630000000  0.5400980000000 1.0
C      1  0.4799480000000  0.4230730000000  0.5314600000000 1.0
C      1  0.4709130000000  0.5152990000000  0.5449550000000 1.0
C      1  0.5821830000000  0.4751600000000  0.4798250000000 1.0
C      1  0.5261480000000  0.4315870000000  0.4435240000000 1.0
C      1  0.4757850000000  0.4359800000000  0.5628280000000 1.0
C      1  0.5323570000000  0.5329600000000  0.4253720000000 1.0
C      1  0.5194340000000  0.5839750000000  0.4740650000000 1.0
C      1  0.5181680000000  0.4207490000000  0.4915930000000 1.0
C      1  0.5512750000000  0.4601690000000  0.4739460000000 1.0
C      1  0.4365680000000  0.4835410000000  0.4619870000000 1.0
C      1  0.4670130000000  0.5189700000000  0.4420160000000 1.0
C      1  0.5557570000000  0.4447320000000  0.5105530000000 1.0
C      1  0.5150250000000  0.4630680000000  0.4103000000000 1.0
C      1  0.4990910000000  0.4731380000000  0.5314340000000 1.0
C      1  0.4781330000000  0.5601260000000  0.4412230000000 1.0
C      1  0.4592870000000  0.4235570000000  0.4577830000000 1.0
C      1  0.5894860000000  0.5136240000000  0.4699060000000 1.0
C      1  0.4145280000000  0.4764120000000  0.5299070000000 1.0
C      1  0.5478500000000  0.5043010000000  0.5014520000000 1.0
C      1  0.4438910000000  0.5152640000000  0.6049170000000 1.0
C      1  0.4937200000000  0.4558810000000  0.5806330000000 1.0
C      1  0.6048840000000  0.4775420000000  0.5051070000000 1.0
C      1  0.5211010000000  0.5896590000000  0.5076850000000 1.0
C      1  0.5404670000000  0.5211750000000  0.5756870000000 1.0
C      1  0.4040500000000  0.5041860000000  0.5564290000000 1.0
C      1  0.4942850000000  0.5126810000000  0.4055880000000 1.0
C      1  0.5369560000000  0.4322130000000  0.4695750000000 1.0
C      1  0.4347820000000  0.5694360000000  0.5083430000000 1.0
C      1  0.4435200000000  0.4503670000000  0.4597910000000 1.0
C      1  0.4590360000000  0.4533600000000  0.4961210000000 1.0
C      1  0.5446730000000  0.5478170000000  0.5547680000000 1.0
C      1  0.4500670000000  0.4328300000000  0.5407730000000 1.0
C      1  0.4965060000000  0.5709120000000  0.5320720000000 1.0
C      1  0.5534830000000  0.5858560000000  0.5154580000000 1.0
C      1  0.4225550000000  0.5307900000000  0.4663350000000 1.0
C      1  0.5300620000000  0.5740030000000  0.5375470000000 1.0
C      1  0.4786070000000  0.4996990000000  0.4899830000000 1.0
C      1  0.5432880000000  0.5711930000000  0.4531720000000 1.0
C      1  0.4811810000000  0.4725100000000  0.5041220000000 1.0
C      1  0.4258980000000  0.4562400000000  0.4884870000000 1.0
C      1  0.5330400000000  0.4896190000000  0.4531850000000 1.0
C      1  0.4360480000000  0.4348360000000  0.5118390000000 1.0
C      1  0.4890220000000  0.4181730000000  0.4734230000000 1.0
C      1  0.4636120000000  0.5623670000000  0.4723040000000 1.0
C      1  0.5094140000000  0.5154540000000  0.5845890000000 1.0
C      1  0.5002200000000  0.5409880000000  0.4235940000000 1.0
C      1  0.4485240000000  0.5441350000000  0.4496320000000 1.0
C      1  0.5030610000000  0.4365480000000  0.5163650000000 1.0
C      1  0.4965070000000  0.4309890000000  0.4426700000000 1.0
C      1  0.4905600000000  0.5791090000000  0.4669430000000 1.0
C      1  0.5314320000000  0.4893910000000  0.5848760000000 1.0
C      1  0.4636310000000  0.4970810000000  0.4645130000000 1.0
C      1  0.5360900000000  0.5029970000000  0.4232480000000 1.0
C      1  0.4398930000000  0.4636640000000  0.5296860000000 1.0
C      1  0.5333470000000  0.4756060000000  0.4905870000000 1.0
C      1  0.4539520000000  0.4938770000000  0.5890320000000 1.0
C      1  0.4023350000000  0.5191440000000  0.4921320000000 1.0
C      1  0.5949770000000  0.5285920000000  0.5246550000000 1.0
C      1  0.5776540000000  0.4981650000000  0.5055320000000 1.0
C      1  0.4882260000000  0.5831810000000  0.5011350000000 1.0
C      1  0.5321090000000  0.4240520000000  0.5235530000000 1.0
C      1  0.5634020000000  0.4626600000000  0.4351610000000 1.0
C      1  0.5586020000000  0.4991150000000  0.4705900000000 1.0
C      1  0.5000670000000  0.4895230000000  0.5605310000000 1.0
C      1  0.4078270000000  0.5322600000000  0.5751160000000 1.0
C      1  0.5378270000000  0.4511140000000  0.4252610000000 1.0
C      1  0.5311790000000  0.4627890000000  0.5264550000000 1.0
C      1  0.5747530000000  0.5424800000000  0.5393470000000 1.0
C      1  0.5067460000000  0.4589890000000  0.4929480000000 1.0
C      1  0.5764020000000  0.4363520000000  0.4930310000000 1.0
C      1  0.4687370000000  0.5032150000000  0.4148910000000 1.0
C      1  0.4004700000000  0.5032150000000  0.5224800000000 1.0
C      1  0.5984210000000  0.4978700000000  0.5316670000000 1.0
C      1  0.5315990000000  0.4443380000000  0.5518140000000 1.0
C      1  0.4163820000000  0.5337790000000  0.5424520000000 1.0
C      1  0.4943220000000  0.5289320000000  0.5607450000000 1.0
C      1  0.5271120000000  0.4973150000000  0.5459940000000 1.0
C      1  0.4553270000000  0.5832370000000  0.5062160000000 1.0
C      1  0.4931230000000  0.5208950000000  0.5122580000000 1.0
END
