TITL C-2778437-8639-344 -0.004978236968556 125000 -826.202698783877 0 0 143 (C1) n - 1
REM
REM in /home/nfs/bkarasulu/CARBON/AIRSS/Generating-Clusters/REBO/Only-C1/SD-CG/HFTN-CG
REM
REM
REM
REM
REM
REM ./C.cell (11c1c37f851c82e70ff6c80c92926a4b)
REM
REM compiler GCC version 9.2.1 20190827 (Red Hat 9.2.1-1)
REM options -cpp -mtune=generic -march=x86-64 -g -O0 -fpre-include=/usr/include/finclude/math-vector-fortran.h
REM seed -1209766538 -1931565629 1813079693 -1353321474 -1346998448 -802057514 1614965323 240017653 1741836185 1605644617 -841290067 1863817710 -1103153521 1017226882 1486133152 -20177752 1700745298 -1410511432 1120090628 2099919061 1079491655 -1120103348 -596146483 1426547952 -910738852 -426080958 356894030 3412825 2103013247 -493263652 433909599 1118750188 -649220032
REM
CELL 1.54180   50.00000   50.00000   50.00000   90.00000   90.00000   90.00000
LATT -1
SFAC C  
C      1  0.4493190000000  0.5584100000000  0.5219630000000 1.0
C      1  0.5104440000000  0.5046300000000  0.5487240000000 1.0
C      1  0.5728180000000  0.4538280000000  0.5551890000000 1.0
C      1  0.4862520000000  0.5339700000000  0.4990820000000 1.0
C      1  0.5984290000000  0.4621820000000  0.5612910000000 1.0
C      1  0.5083290000000  0.5106120000000  0.5032630000000 1.0
C      1  0.5027150000000  0.4047780000000  0.5027600000000 1.0
C      1  0.5223420000000  0.6060680000000  0.4804120000000 1.0
C      1  0.4752410000000  0.5388720000000  0.4397310000000 1.0
C      1  0.4661640000000  0.5757880000000  0.4997840000000 1.0
C      1  0.5995850000000  0.5256130000000  0.4979760000000 1.0
C      1  0.4922790000000  0.4948970000000  0.3899220000000 1.0
C      1  0.5023730000000  0.4718590000000  0.5821100000000 1.0
C      1  0.4508940000000  0.4703620000000  0.5267540000000 1.0
C      1  0.5318060000000  0.4792510000000  0.5133500000000 1.0
C      1  0.5062100000000  0.4546980000000  0.4467740000000 1.0
C      1  0.5460750000000  0.4548340000000  0.4698770000000 1.0
C      1  0.5223480000000  0.5902970000000  0.4579940000000 1.0
C      1  0.5494700000000  0.4717320000000  0.5604840000000 1.0
C      1  0.5747320000000  0.4698260000000  0.4465210000000 1.0
C      1  0.4977940000000  0.4646550000000  0.5430920000000 1.0
C      1  0.4620880000000  0.5618210000000  0.4610200000000 1.0
C      1  0.4312040000000  0.4896720000000  0.5569420000000 1.0
C      1  0.4450050000000  0.5361310000000  0.4756570000000 1.0
C      1  0.5129510000000  0.5896360000000  0.5047940000000 1.0
C      1  0.4182800000000  0.5754410000000  0.4897450000000 1.0
C      1  0.4445750000000  0.4403570000000  0.5126780000000 1.0
C      1  0.4291190000000  0.4606260000000  0.5586710000000 1.0
C      1  0.4640850000000  0.4229840000000  0.4568700000000 1.0
C      1  0.5996850000000  0.4931270000000  0.5012390000000 1.0
C      1  0.4934150000000  0.4521410000000  0.5123170000000 1.0
C      1  0.4360990000000  0.4883440000000  0.4316180000000 1.0
C      1  0.4373200000000  0.4416600000000  0.4465810000000 1.0
C      1  0.5266800000000  0.5491040000000  0.4320110000000 1.0
C      1  0.5570290000000  0.5501360000000  0.5640990000000 1.0
C      1  0.3964180000000  0.4438070000000  0.4746960000000 1.0
C      1  0.5704100000000  0.4976270000000  0.4892470000000 1.0
C      1  0.5632060000000  0.4270060000000  0.4928310000000 1.0
C      1  0.4234850000000  0.5005590000000  0.4779530000000 1.0
C      1  0.5449180000000  0.4795930000000  0.4841110000000 1.0
C      1  0.4749950000000  0.4400650000000  0.5382590000000 1.0
C      1  0.4750720000000  0.5386230000000  0.5988410000000 1.0
C      1  0.4126190000000  0.5388570000000  0.4753970000000 1.0
C      1  0.5557800000000  0.5278700000000  0.5309870000000 1.0
C      1  0.4734110000000  0.4396260000000  0.4298350000000 1.0
C      1  0.5214660000000  0.4720640000000  0.4274790000000 1.0
C      1  0.5565600000000  0.5147810000000  0.4469260000000 1.0
C      1  0.5351960000000  0.5738390000000  0.5204880000000 1.0
C      1  0.5193640000000  0.4957090000000  0.4760630000000 1.0
C      1  0.4942710000000  0.5329470000000  0.5435150000000 1.0
C      1  0.5010600000000  0.4695690000000  0.4742320000000 1.0
C      1  0.4426420000000  0.5814800000000  0.4785870000000 1.0
C      1  0.5146490000000  0.5492680000000  0.5101480000000 1.0
C      1  0.4669580000000  0.4741250000000  0.4751760000000 1.0
C      1  0.5222970000000  0.4144250000000  0.5289450000000 1.0
C      1  0.4673640000000  0.4919970000000  0.5856380000000 1.0
C      1  0.4973740000000  0.6045110000000  0.5255740000000 1.0
C      1  0.5054660000000  0.4997510000000  0.5764640000000 1.0
C      1  0.5666570000000  0.4288810000000  0.5439610000000 1.0
C      1  0.4085210000000  0.5316880000000  0.5188600000000 1.0
C      1  0.5276220000000  0.5387180000000  0.5376870000000 1.0
C      1  0.4586680000000  0.4161960000000  0.5260620000000 1.0
C      1  0.5596580000000  0.5247480000000  0.4998490000000 1.0
C      1  0.4904240000000  0.5867950000000  0.5525780000000 1.0
C      1  0.4743510000000  0.4681570000000  0.4452520000000 1.0
C      1  0.4517220000000  0.5736200000000  0.5519630000000 1.0
C      1  0.5515330000000  0.5253250000000  0.5855440000000 1.0
C      1  0.5320600000000  0.5309750000000  0.4893750000000 1.0
C      1  0.5576020000000  0.5722910000000  0.5374510000000 1.0
C      1  0.4669870000000  0.5932130000000  0.5287430000000 1.0
C      1  0.5317330000000  0.5063960000000  0.6058720000000 1.0
C      1  0.4840170000000  0.4366910000000  0.4883610000000 1.0
C      1  0.5459740000000  0.5285450000000  0.4236790000000 1.0
C      1  0.4198360000000  0.4831430000000  0.5194370000000 1.0
C      1  0.4101380000000  0.5281170000000  0.5474870000000 1.0
C      1  0.5798390000000  0.5443790000000  0.4837480000000 1.0
C      1  0.5233520000000  0.4567710000000  0.5613530000000 1.0
C      1  0.5674320000000  0.5618380000000  0.4657670000000 1.0
C      1  0.5836870000000  0.4999220000000  0.5372120000000 1.0
C      1  0.4632280000000  0.4916690000000  0.4025590000000 1.0
C      1  0.4926120000000  0.4456560000000  0.3953040000000 1.0
C      1  0.5531060000000  0.4913010000000  0.5846160000000 1.0
C      1  0.4850670000000  0.5559910000000  0.5644170000000 1.0
C      1  0.4629890000000  0.4574990000000  0.4030450000000 1.0
C      1  0.4401800000000  0.4612360000000  0.4257060000000 1.0
C      1  0.4684150000000  0.4751510000000  0.5559090000000 1.0
C      1  0.5510410000000  0.4175960000000  0.5231950000000 1.0
C      1  0.5232980000000  0.4281080000000  0.4915510000000 1.0
C      1  0.5071090000000  0.5033090000000  0.6161820000000 1.0
C      1  0.5248660000000  0.5495930000000  0.5683150000000 1.0
C      1  0.4368450000000  0.5285480000000  0.5644210000000 1.0
C      1  0.5644250000000  0.4541100000000  0.5130110000000 1.0
C      1  0.4343120000000  0.5148470000000  0.4522580000000 1.0
C      1  0.5129190000000  0.5036270000000  0.4314060000000 1.0
C      1  0.5058960000000  0.5295120000000  0.5859970000000 1.0
C      1  0.4207180000000  0.5560110000000  0.5106110000000 1.0
C      1  0.5009610000000  0.4231490000000  0.4414200000000 1.0
C      1  0.4604880000000  0.5340580000000  0.5401270000000 1.0
C      1  0.5713270000000  0.4952590000000  0.4585790000000 1.0
C      1  0.4933910000000  0.4832760000000  0.5036480000000 1.0
C      1  0.4955510000000  0.5411870000000  0.4670390000000 1.0
C      1  0.5419300000000  0.4843550000000  0.3960560000000 1.0
C      1  0.5811300000000  0.4750030000000  0.5204260000000 1.0
C      1  0.4627570000000  0.4890170000000  0.5039150000000 1.0
C      1  0.5144340000000  0.5807980000000  0.5731400000000 1.0
C      1  0.4117110000000  0.5084050000000  0.5024630000000 1.0
C      1  0.4212970000000  0.4521390000000  0.4681280000000 1.0
C      1  0.5236900000000  0.5240040000000  0.4565760000000 1.0
C      1  0.5109460000000  0.4703190000000  0.3950990000000 1.0
C      1  0.5537470000000  0.4653760000000  0.4212470000000 1.0
C      1  0.5021620000000  0.4224740000000  0.4082970000000 1.0
C      1  0.4990720000000  0.5616290000000  0.5958640000000 1.0
C      1  0.4351290000000  0.4745190000000  0.4789500000000 1.0
C      1  0.5953870000000  0.5238680000000  0.5275280000000 1.0
C      1  0.5329520000000  0.4492410000000  0.5071970000000 1.0
C      1  0.5311200000000  0.4887250000000  0.5387150000000 1.0
C      1  0.4566590000000  0.4449500000000  0.5660260000000 1.0
C      1  0.5085530000000  0.5680430000000  0.4279770000000 1.0
C      1  0.4544150000000  0.5163490000000  0.4248650000000 1.0
C      1  0.5463870000000  0.5753900000000  0.4547590000000 1.0
C      1  0.4857670000000  0.5410200000000  0.4095090000000 1.0
C      1  0.4894330000000  0.4420500000000  0.5749130000000 1.0
C      1  0.4540410000000  0.4378690000000  0.4858240000000 1.0
C      1  0.4745600000000  0.3967810000000  0.5150890000000 1.0
C      1  0.4150690000000  0.4543730000000  0.5345540000000 1.0
C      1  0.5519220000000  0.4383350000000  0.4399040000000 1.0
C      1  0.4774800000000  0.5598460000000  0.3930330000000 1.0
C      1  0.4569360000000  0.5211440000000  0.5025560000000 1.0
C      1  0.5813910000000  0.5482610000000  0.5416610000000 1.0
C      1  0.5102360000000  0.4277100000000  0.5519740000000 1.0
C      1  0.4801710000000  0.5070980000000  0.6063910000000 1.0
C      1  0.4909990000000  0.5779170000000  0.4523090000000 1.0
C      1  0.4938480000000  0.4117120000000  0.4703420000000 1.0
C      1  0.4543800000000  0.5516080000000  0.5755120000000 1.0
C      1  0.5626100000000  0.5092590000000  0.5576660000000 1.0
C      1  0.5373680000000  0.5129250000000  0.4012260000000 1.0
C      1  0.5056050000000  0.5195070000000  0.4025040000000 1.0
C      1  0.4410080000000  0.5024710000000  0.5806610000000 1.0
C      1  0.4832720000000  0.4916750000000  0.4286780000000 1.0
C      1  0.5764360000000  0.4405850000000  0.4642490000000 1.0
C      1  0.4928000000000  0.5705990000000  0.4850310000000 1.0
C      1  0.4403990000000  0.5086020000000  0.5301020000000 1.0
C      1  0.5420980000000  0.4205070000000  0.4668370000000 1.0
END
