TITL C-2778434-4341-1376 0.000971271784301652 125000 -925.782838638495 0 0 159 (C1) n - 1
REM
REM in /home/nfs/bkarasulu/CARBON/AIRSS/Generating-Clusters/REBO/Only-C1/SD-CG/HFTN-CG
REM
REM
REM
REM
REM
REM ./C.cell (11c1c37f851c82e70ff6c80c92926a4b)
REM
REM compiler GCC version 9.2.1 20190827 (Red Hat 9.2.1-1)
REM options -cpp -mtune=generic -march=x86-64 -g -O0 -fpre-include=/usr/include/finclude/math-vector-fortran.h
REM seed 437022562 -89665205 -767771779 -1108552438 1840774387 -1755633089 -355329449 931497769 -2000136932 -1942615637 1229965268 -577143900 1162810309 -1345375870 -531330256 341409106 314791892 657935473 1876789253 -127291069 -467716841 -1529741571 1008155904 844032261 -2125434780 1396039008 -179506920 -172953576 1664865128 231883214 1699036501 -385435646 341565427
REM
CELL 1.54180   50.00000   50.00000   50.00000   90.00000   90.00000   90.00000
LATT -1
SFAC C  
C      1  0.5733080000000  0.5880480000000  0.5055120000000 1.0
C      1  0.5145450000000  0.5202870000000  0.5182900000000 1.0
C      1  0.5530360000000  0.5797950000000  0.5302380000000 1.0
C      1  0.4410420000000  0.4993910000000  0.4747020000000 1.0
C      1  0.5309140000000  0.4131710000000  0.5444680000000 1.0
C      1  0.4260160000000  0.5042930000000  0.5013790000000 1.0
C      1  0.5603390000000  0.5001780000000  0.4609460000000 1.0
C      1  0.4860190000000  0.4981590000000  0.5952210000000 1.0
C      1  0.3965990000000  0.4981770000000  0.5274760000000 1.0
C      1  0.4957960000000  0.4927910000000  0.5110210000000 1.0
C      1  0.4643630000000  0.5278640000000  0.4111550000000 1.0
C      1  0.4601260000000  0.4026650000000  0.5112080000000 1.0
C      1  0.4475580000000  0.5944650000000  0.4887140000000 1.0
C      1  0.5555270000000  0.5655260000000  0.5811290000000 1.0
C      1  0.5015510000000  0.5555220000000  0.5311560000000 1.0
C      1  0.4799690000000  0.4974090000000  0.5615160000000 1.0
C      1  0.4573670000000  0.4741960000000  0.4831090000000 1.0
C      1  0.4735220000000  0.5042150000000  0.5303980000000 1.0
C      1  0.5890490000000  0.5146490000000  0.4530180000000 1.0
C      1  0.5964040000000  0.4895980000000  0.4741360000000 1.0
C      1  0.5231400000000  0.5302220000000  0.5986380000000 1.0
C      1  0.4658730000000  0.5902210000000  0.5426720000000 1.0
C      1  0.5165750000000  0.5004820000000  0.6021150000000 1.0
C      1  0.4579780000000  0.5362540000000  0.4405130000000 1.0
C      1  0.4973120000000  0.4367300000000  0.5041630000000 1.0
C      1  0.5855690000000  0.5726310000000  0.4777320000000 1.0
C      1  0.5583590000000  0.5217550000000  0.5685160000000 1.0
C      1  0.5327560000000  0.5922860000000  0.4933730000000 1.0
C      1  0.5067590000000  0.5128660000000  0.5506000000000 1.0
C      1  0.5134210000000  0.4252430000000  0.4542930000000 1.0
C      1  0.5026830000000  0.5577700000000  0.4231880000000 1.0
C      1  0.5169030000000  0.5207330000000  0.4272050000000 1.0
C      1  0.5735180000000  0.4191340000000  0.5174160000000 1.0
C      1  0.5457260000000  0.5153530000000  0.5198840000000 1.0
C      1  0.4051070000000  0.4514270000000  0.4691330000000 1.0
C      1  0.4671690000000  0.4439820000000  0.5485360000000 1.0
C      1  0.5836210000000  0.5104610000000  0.5557050000000 1.0
C      1  0.4334820000000  0.5573220000000  0.5566420000000 1.0
C      1  0.4813970000000  0.4322650000000  0.5771400000000 1.0
C      1  0.4456940000000  0.5325300000000  0.4812490000000 1.0
C      1  0.4923860000000  0.4048760000000  0.5089000000000 1.0
C      1  0.3950690000000  0.4707750000000  0.4872620000000 1.0
C      1  0.5448000000000  0.5839670000000  0.4487870000000 1.0
C      1  0.4802750000000  0.4804310000000  0.4087610000000 1.0
C      1  0.5481590000000  0.5574100000000  0.5046200000000 1.0
C      1  0.4449280000000  0.4392300000000  0.5148540000000 1.0
C      1  0.5017250000000  0.3859420000000  0.4855000000000 1.0
C      1  0.5597770000000  0.5943830000000  0.4749630000000 1.0
C      1  0.5293640000000  0.4621460000000  0.4744740000000 1.0
C      1  0.4546440000000  0.4537980000000  0.5772470000000 1.0
C      1  0.4205050000000  0.4966020000000  0.5488210000000 1.0
C      1  0.4947880000000  0.5874110000000  0.5313900000000 1.0
C      1  0.4511670000000  0.5262080000000  0.5201170000000 1.0
C      1  0.5138870000000  0.4715110000000  0.5849060000000 1.0
C      1  0.4774280000000  0.5533760000000  0.5820890000000 1.0
C      1  0.5228860000000  0.5467330000000  0.4469530000000 1.0
C      1  0.5399510000000  0.4362690000000  0.4458860000000 1.0
C      1  0.4747500000000  0.5651610000000  0.4355160000000 1.0
C      1  0.5450230000000  0.4424340000000  0.5675930000000 1.0
C      1  0.5344160000000  0.5666140000000  0.4147630000000 1.0
C      1  0.5108110000000  0.4031720000000  0.5343320000000 1.0
C      1  0.4575920000000  0.4479160000000  0.4681140000000 1.0
C      1  0.4601810000000  0.5713310000000  0.5644630000000 1.0
C      1  0.5545620000000  0.4787970000000  0.4216760000000 1.0
C      1  0.4873140000000  0.4817850000000  0.4844900000000 1.0
C      1  0.5945250000000  0.4990630000000  0.5015810000000 1.0
C      1  0.4940940000000  0.5566200000000  0.4750930000000 1.0
C      1  0.4290680000000  0.4363220000000  0.4569230000000 1.0
C      1  0.5207770000000  0.4462520000000  0.5245030000000 1.0
C      1  0.4519820000000  0.4346510000000  0.4309500000000 1.0
C      1  0.5688190000000  0.5647570000000  0.5534400000000 1.0
C      1  0.4657140000000  0.4197240000000  0.4833140000000 1.0
C      1  0.5105180000000  0.4531450000000  0.4078410000000 1.0
C      1  0.5042290000000  0.5367770000000  0.5750090000000 1.0
C      1  0.3949730000000  0.4976910000000  0.4773090000000 1.0
C      1  0.4393520000000  0.5056700000000  0.5700800000000 1.0
C      1  0.5743890000000  0.4552220000000  0.5002380000000 1.0
C      1  0.4796690000000  0.5042220000000  0.3952160000000 1.0
C      1  0.5601030000000  0.4667020000000  0.5740390000000 1.0
C      1  0.5589190000000  0.5129770000000  0.4924720000000 1.0
C      1  0.4749300000000  0.4048580000000  0.5883340000000 1.0
C      1  0.4420620000000  0.4165590000000  0.5348160000000 1.0
C      1  0.5862390000000  0.4559910000000  0.5256970000000 1.0
C      1  0.5342050000000  0.4822580000000  0.4558760000000 1.0
C      1  0.4286910000000  0.5614340000000  0.4601970000000 1.0
C      1  0.4151280000000  0.5012580000000  0.4535600000000 1.0
C      1  0.5406570000000  0.5598180000000  0.4714050000000 1.0
C      1  0.4955450000000  0.5282590000000  0.4925320000000 1.0
C      1  0.5246850000000  0.5958580000000  0.5411680000000 1.0
C      1  0.4859380000000  0.4969800000000  0.4567060000000 1.0
C      1  0.5868790000000  0.5487810000000  0.4548400000000 1.0
C      1  0.5633010000000  0.4155970000000  0.4902040000000 1.0
C      1  0.5002430000000  0.4540410000000  0.4786380000000 1.0
C      1  0.5326970000000  0.6104340000000  0.5145040000000 1.0
C      1  0.4642600000000  0.5223690000000  0.5883830000000 1.0
C      1  0.3966920000000  0.4698660000000  0.5164770000000 1.0
C      1  0.4814170000000  0.4504730000000  0.5261620000000 1.0
C      1  0.5543730000000  0.5056510000000  0.4143160000000 1.0
C      1  0.5126310000000  0.4602720000000  0.5528140000000 1.0
C      1  0.5556760000000  0.4336050000000  0.5383970000000 1.0
C      1  0.4502290000000  0.5745040000000  0.4492470000000 1.0
C      1  0.4329730000000  0.4442750000000  0.5525860000000 1.0
C      1  0.4304850000000  0.4066160000000  0.4698800000000 1.0
C      1  0.5131800000000  0.4956490000000  0.4418570000000 1.0
C      1  0.5798670000000  0.4774390000000  0.5515580000000 1.0
C      1  0.4479510000000  0.4661920000000  0.5109010000000 1.0
C      1  0.5438220000000  0.4835840000000  0.5906700000000 1.0
C      1  0.5181540000000  0.5986210000000  0.4440570000000 1.0
C      1  0.5474100000000  0.4662940000000  0.5312270000000 1.0
C      1  0.5608300000000  0.5575570000000  0.4341860000000 1.0
C      1  0.4764100000000  0.5736940000000  0.5062470000000 1.0
C      1  0.4808760000000  0.4486180000000  0.4198080000000 1.0
C      1  0.4346400000000  0.4874690000000  0.5230600000000 1.0
C      1  0.4960370000000  0.6011810000000  0.4549650000000 1.0
C      1  0.5148640000000  0.5641310000000  0.5010290000000 1.0
C      1  0.4623490000000  0.5515830000000  0.5031000000000 1.0
C      1  0.5669440000000  0.5250190000000  0.4303090000000 1.0
C      1  0.5346660000000  0.4558960000000  0.4199650000000 1.0
C      1  0.4284080000000  0.5293220000000  0.4516600000000 1.0
C      1  0.5210830000000  0.5500730000000  0.5527530000000 1.0
C      1  0.4159930000000  0.5472250000000  0.4887900000000 1.0
C      1  0.4783460000000  0.5869930000000  0.4761600000000 1.0
C      1  0.5159260000000  0.5096540000000  0.4798480000000 1.0
C      1  0.5123830000000  0.4392190000000  0.5775930000000 1.0
C      1  0.4092210000000  0.4215890000000  0.5126990000000 1.0
C      1  0.4468270000000  0.5953280000000  0.5221780000000 1.0
C      1  0.5504140000000  0.5378570000000  0.5920330000000 1.0
C      1  0.4198210000000  0.4776520000000  0.4348320000000 1.0
C      1  0.5759890000000  0.5423230000000  0.5136110000000 1.0
C      1  0.5356340000000  0.4232210000000  0.5053790000000 1.0
C      1  0.5188290000000  0.4847530000000  0.5348910000000 1.0
C      1  0.4083400000000  0.4459870000000  0.5291540000000 1.0
C      1  0.5461230000000  0.4513080000000  0.4942190000000 1.0
C      1  0.5424270000000  0.5302590000000  0.5463240000000 1.0
C      1  0.5673970000000  0.4327860000000  0.4659290000000 1.0
C      1  0.5395520000000  0.5136530000000  0.3928190000000 1.0
C      1  0.5324190000000  0.5762910000000  0.5644770000000 1.0
C      1  0.4533000000000  0.5323720000000  0.5591860000000 1.0
C      1  0.4899130000000  0.4059910000000  0.4647090000000 1.0
C      1  0.3986030000000  0.5209490000000  0.5017740000000 1.0
C      1  0.4674920000000  0.4824520000000  0.4361470000000 1.0
C      1  0.4586870000000  0.4824070000000  0.5825500000000 1.0
C      1  0.4587940000000  0.4103630000000  0.4512920000000 1.0
C      1  0.5854340000000  0.4619530000000  0.4708120000000 1.0
C      1  0.4271710000000  0.5731380000000  0.5059310000000 1.0
C      1  0.5657610000000  0.4590980000000  0.4443990000000 1.0
C      1  0.5806110000000  0.5413270000000  0.5419620000000 1.0
C      1  0.5955070000000  0.5278000000000  0.5001120000000 1.0
C      1  0.4801790000000  0.5283370000000  0.4618450000000 1.0
C      1  0.4292610000000  0.4062140000000  0.4984470000000 1.0
C      1  0.4968770000000  0.5308820000000  0.4046250000000 1.0
C      1  0.4298270000000  0.5496110000000  0.5276110000000 1.0
C      1  0.5637210000000  0.5379290000000  0.4734160000000 1.0
C      1  0.5140940000000  0.3631620000000  0.4841910000000 1.0
C      1  0.4443350000000  0.4659970000000  0.4350400000000 1.0
C      1  0.4853130000000  0.4432600000000  0.4511240000000 1.0
C      1  0.5352260000000  0.5215770000000  0.4625340000000 1.0
C      1  0.4784680000000  0.5374770000000  0.5368030000000 1.0
C      1  0.5687450000000  0.4913900000000  0.5224750000000 1.0
END
