TITL C-2778426-5645-861 -0.00130095649470596 125000 -364.951936037205 0 0 63 (C1) n - 1
REM
REM in /home/nfs/bkarasulu/CARBON/AIRSS/Generating-Clusters/REBO/Only-C1/SD-CG/HFTN-CG
REM
REM
REM
REM
REM
REM ./C.cell (11c1c37f851c82e70ff6c80c92926a4b)
REM
REM compiler GCC version 9.2.1 20190827 (Red Hat 9.2.1-1)
REM options -cpp -mtune=generic -march=x86-64 -g -O0 -fpre-include=/usr/include/finclude/math-vector-fortran.h
REM seed -1717237706 980563698 459425122 -888620531 -190457925 -1507412439 -1715324043 -1565222837 -144064323 -2130360547 -887619244 -1419899290 -959038473 942074095 1367787890 -1189451941 -747899607 1202191717 -1388281674 1738947885 997911600 -1564063063 840067789 -263738405 614248896 586695966 613164278 -93787313 -1925684601 -68259426 2105756617 2084520689 1224251630
REM
CELL 1.54180   50.00000   50.00000   50.00000   90.00000   90.00000   90.00000
LATT -1
SFAC C  
C      1  0.4598570000000  0.4676540000000  0.4283850000000 1.0
C      1  0.5468320000000  0.4862950000000  0.4886660000000 1.0
C      1  0.4645150000000  0.4771450000000  0.4951910000000 1.0
C      1  0.4635270000000  0.4388330000000  0.4415800000000 1.0
C      1  0.4440210000000  0.4717070000000  0.4776040000000 1.0
C      1  0.4733300000000  0.5485570000000  0.4865530000000 1.0
C      1  0.5427120000000  0.5795550000000  0.4968030000000 1.0
C      1  0.5316110000000  0.5156760000000  0.5925510000000 1.0
C      1  0.5084550000000  0.5200420000000  0.5065310000000 1.0
C      1  0.4438080000000  0.4212200000000  0.4819820000000 1.0
C      1  0.4194400000000  0.4663160000000  0.4563290000000 1.0
C      1  0.4303840000000  0.5046380000000  0.4596380000000 1.0
C      1  0.5150870000000  0.5865850000000  0.4984490000000 1.0
C      1  0.4782640000000  0.5427030000000  0.4566150000000 1.0
C      1  0.4777410000000  0.4998550000000  0.5249880000000 1.0
C      1  0.4622780000000  0.4174340000000  0.4602450000000 1.0
C      1  0.5018210000000  0.5224020000000  0.5538000000000 1.0
C      1  0.5582990000000  0.5384590000000  0.4751590000000 1.0
C      1  0.4269210000000  0.5066590000000  0.4867710000000 1.0
C      1  0.5270260000000  0.5673010000000  0.4539750000000 1.0
C      1  0.5372170000000  0.4884660000000  0.5860310000000 1.0
C      1  0.5218880000000  0.5232730000000  0.4692290000000 1.0
C      1  0.4493140000000  0.4296650000000  0.5316940000000 1.0
C      1  0.4523320000000  0.4785350000000  0.5261380000000 1.0
C      1  0.5492540000000  0.5657970000000  0.4722330000000 1.0
C      1  0.4274680000000  0.4440790000000  0.4778790000000 1.0
C      1  0.5242800000000  0.4833960000000  0.5052450000000 1.0
C      1  0.4755080000000  0.5136210000000  0.4459200000000 1.0
C      1  0.5652860000000  0.5488770000000  0.5336820000000 1.0
C      1  0.4947950000000  0.3743210000000  0.4574680000000 1.0
C      1  0.5445840000000  0.4835000000000  0.4569530000000 1.0
C      1  0.5088980000000  0.5462000000000  0.4584320000000 1.0
C      1  0.4942780000000  0.4916490000000  0.4963520000000 1.0
C      1  0.5703650000000  0.4606180000000  0.5634120000000 1.0
C      1  0.5558870000000  0.4836870000000  0.5642320000000 1.0
C      1  0.4993660000000  0.4919680000000  0.5483570000000 1.0
C      1  0.5547030000000  0.5239590000000  0.5252460000000 1.0
C      1  0.4983970000000  0.4990180000000  0.4362280000000 1.0
C      1  0.4414690000000  0.5062810000000  0.5097220000000 1.0
C      1  0.5566720000000  0.5024630000000  0.5430750000000 1.0
C      1  0.4929010000000  0.4731110000000  0.5708590000000 1.0
C      1  0.5679520000000  0.5091190000000  0.4764440000000 1.0
C      1  0.5244810000000  0.4812030000000  0.5326660000000 1.0
C      1  0.4696450000000  0.4579930000000  0.5668010000000 1.0
C      1  0.4642270000000  0.5279660000000  0.5120720000000 1.0
C      1  0.4651560000000  0.5612710000000  0.4398140000000 1.0
C      1  0.4906940000000  0.5754350000000  0.4982080000000 1.0
C      1  0.4994870000000  0.5353070000000  0.5293040000000 1.0
C      1  0.5218290000000  0.5009740000000  0.4517090000000 1.0
C      1  0.4540800000000  0.4546430000000  0.5435270000000 1.0
C      1  0.4790350000000  0.3952160000000  0.4588140000000 1.0
C      1  0.4526480000000  0.4972630000000  0.4439420000000 1.0
C      1  0.5732130000000  0.4940430000000  0.4485610000000 1.0
C      1  0.5148220000000  0.4706490000000  0.5886800000000 1.0
C      1  0.4474580000000  0.4144410000000  0.5091930000000 1.0
C      1  0.4890250000000  0.4774620000000  0.4199750000000 1.0
C      1  0.5574160000000  0.5718390000000  0.5194530000000 1.0
C      1  0.4275550000000  0.4698730000000  0.4293490000000 1.0
C      1  0.5819790000000  0.5505790000000  0.5559860000000 1.0
C      1  0.4786740000000  0.5566340000000  0.5214300000000 1.0
C      1  0.5134770000000  0.5303300000000  0.5779870000000 1.0
C      1  0.5387050000000  0.5240640000000  0.4989580000000 1.0
C      1  0.5976530000000  0.5521770000000  0.5769280000000 1.0
END
