TITL C-2778430-5657-1232 -0.248360756643538 125000 -604.275243621076 0 0 104 (C1) n - 1
REM
REM in /home/nfs/bkarasulu/CARBON/AIRSS/Generating-Clusters/REBO/Only-C1/SD-CG/HFTN-CG
REM
REM
REM
REM
REM
REM ./C.cell (11c1c37f851c82e70ff6c80c92926a4b)
REM
REM compiler GCC version 9.2.1 20190827 (Red Hat 9.2.1-1)
REM options -cpp -mtune=generic -march=x86-64 -g -O0 -fpre-include=/usr/include/finclude/math-vector-fortran.h
REM seed -1990049139 -536038783 722906025 1529054506 -1310024940 -117105676 2034575210 -1409700033 -130354245 -1325570726 -891559261 104948814 1296852708 -2100232853 1553852781 641099482 1475996253 -624106401 602456920 1842029325 2084349745 -939132641 -1262742776 -2119544398 -1856831821 -1833660051 878752845 -194267500 1774836005 -1853769270 -384347569 329450972 2073308823
REM
CELL 1.54180   50.00000   50.00000   50.00000   90.00000   90.00000   90.00000
LATT -1
SFAC C  
C      1  0.5712950000000  0.5479550000000  0.4649040000000 1.0
C      1  0.4328010000000  0.4450980000000  0.4623990000000 1.0
C      1  0.4301920000000  0.5480580000000  0.5023660000000 1.0
C      1  0.5385810000000  0.4264930000000  0.5236370000000 1.0
C      1  0.5588210000000  0.5719240000000  0.4721780000000 1.0
C      1  0.4686390000000  0.5208230000000  0.4792320000000 1.0
C      1  0.4545210000000  0.4448630000000  0.5549340000000 1.0
C      1  0.5483010000000  0.5848070000000  0.4491270000000 1.0
C      1  0.4611380000000  0.4576400000000  0.4503660000000 1.0
C      1  0.5637750000000  0.5131920000000  0.5691540000000 1.0
C      1  0.4786180000000  0.4758380000000  0.5900840000000 1.0
C      1  0.4805510000000  0.4162260000000  0.5235960000000 1.0
C      1  0.5438500000000  0.4377840000000  0.4457060000000 1.0
C      1  0.4976580000000  0.5016990000000  0.4009340000000 1.0
C      1  0.4833180000000  0.4961900000000  0.5336910000000 1.0
C      1  0.4343120000000  0.4692860000000  0.5595360000000 1.0
C      1  0.5480130000000  0.5761150000000  0.4999400000000 1.0
C      1  0.5254860000000  0.5850410000000  0.5242480000000 1.0
C      1  0.4170320000000  0.5392350000000  0.4771460000000 1.0
C      1  0.4571020000000  0.5688900000000  0.4608790000000 1.0
C      1  0.5743750000000  0.5119390000000  0.4948460000000 1.0
C      1  0.4368470000000  0.4847010000000  0.5227500000000 1.0
C      1  0.4977940000000  0.5483380000000  0.4944930000000 1.0
C      1  0.5575800000000  0.5221230000000  0.4717040000000 1.0
C      1  0.4297460000000  0.4927460000000  0.4730850000000 1.0
C      1  0.5154720000000  0.4759390000000  0.4428960000000 1.0
C      1  0.5645860000000  0.5244940000000  0.5201360000000 1.0
C      1  0.4537620000000  0.4796160000000  0.4935120000000 1.0
C      1  0.5733700000000  0.4759040000000  0.4619540000000 1.0
C      1  0.4958720000000  0.5035660000000  0.4839660000000 1.0
C      1  0.5347130000000  0.4613290000000  0.4303130000000 1.0
C      1  0.4452090000000  0.5386420000000  0.4619730000000 1.0
C      1  0.4378590000000  0.5498610000000  0.5342450000000 1.0
C      1  0.5627850000000  0.4477420000000  0.5239550000000 1.0
C      1  0.5403380000000  0.5171520000000  0.4360440000000 1.0
C      1  0.4526870000000  0.5555230000000  0.5622950000000 1.0
C      1  0.5167440000000  0.4380300000000  0.4574000000000 1.0
C      1  0.5716340000000  0.5055300000000  0.5431240000000 1.0
C      1  0.5056620000000  0.5674540000000  0.5347400000000 1.0
C      1  0.5088260000000  0.4667860000000  0.4726140000000 1.0
C      1  0.5607500000000  0.4984550000000  0.4492180000000 1.0
C      1  0.5271360000000  0.4016340000000  0.4944810000000 1.0
C      1  0.5258370000000  0.5194570000000  0.4801020000000 1.0
C      1  0.4464900000000  0.5228920000000  0.5621060000000 1.0
C      1  0.5305450000000  0.5539620000000  0.5626620000000 1.0
C      1  0.5211660000000  0.4407560000000  0.5001410000000 1.0
C      1  0.4943270000000  0.4951670000000  0.4306140000000 1.0
C      1  0.5182910000000  0.5922980000000  0.4952710000000 1.0
C      1  0.5280610000000  0.4721060000000  0.4994810000000 1.0
C      1  0.5004990000000  0.4069310000000  0.5036280000000 1.0
C      1  0.5019560000000  0.4919960000000  0.5826350000000 1.0
C      1  0.4773460000000  0.5542810000000  0.4440160000000 1.0
C      1  0.5067040000000  0.5061970000000  0.5133510000000 1.0
C      1  0.4717950000000  0.5711150000000  0.5380330000000 1.0
C      1  0.5256710000000  0.4734520000000  0.5713850000000 1.0
C      1  0.5592410000000  0.4618590000000  0.4964080000000 1.0
C      1  0.4647290000000  0.4844180000000  0.4365300000000 1.0
C      1  0.5333030000000  0.5270070000000  0.5121910000000 1.0
C      1  0.4684610000000  0.4280780000000  0.4660370000000 1.0
C      1  0.4524890000000  0.5713070000000  0.5112840000000 1.0
C      1  0.4449160000000  0.5069520000000  0.4503690000000 1.0
C      1  0.4907100000000  0.4360400000000  0.4905090000000 1.0
C      1  0.5688380000000  0.4778050000000  0.5386410000000 1.0
C      1  0.4402740000000  0.4216400000000  0.4810950000000 1.0
C      1  0.5004390000000  0.5071510000000  0.3761590000000 1.0
C      1  0.4939840000000  0.5370720000000  0.4632710000000 1.0
C      1  0.5177720000000  0.5356500000000  0.5378830000000 1.0
C      1  0.5541580000000  0.5646020000000  0.5505500000000 1.0
C      1  0.5446370000000  0.4233300000000  0.4843270000000 1.0
C      1  0.4198580000000  0.4643110000000  0.4790060000000 1.0
C      1  0.5598060000000  0.5569550000000  0.5242630000000 1.0
C      1  0.4818650000000  0.5426540000000  0.5534710000000 1.0
C      1  0.5445710000000  0.4573320000000  0.5503710000000 1.0
C      1  0.4606700000000  0.5150100000000  0.4220530000000 1.0
C      1  0.4068280000000  0.5132540000000  0.4780860000000 1.0
C      1  0.5390720000000  0.5043690000000  0.5761500000000 1.0
C      1  0.4639970000000  0.4571230000000  0.5832680000000 1.0
C      1  0.4662650000000  0.5806880000000  0.4854710000000 1.0
C      1  0.5445970000000  0.5690060000000  0.4266820000000 1.0
C      1  0.4834370000000  0.5380830000000  0.5195740000000 1.0
C      1  0.4347850000000  0.4310280000000  0.5087420000000 1.0
C      1  0.5203790000000  0.4819080000000  0.5302400000000 1.0
C      1  0.4519650000000  0.4244950000000  0.5302880000000 1.0
C      1  0.5939190000000  0.5472170000000  0.4489620000000 1.0
C      1  0.4949920000000  0.5777640000000  0.4886910000000 1.0
C      1  0.4838510000000  0.4470580000000  0.5373760000000 1.0
C      1  0.4771000000000  0.4648160000000  0.4784710000000 1.0
C      1  0.5117910000000  0.5151330000000  0.4492070000000 1.0
C      1  0.5342560000000  0.4049120000000  0.5376010000000 1.0
C      1  0.5107430000000  0.4554610000000  0.5463600000000 1.0
C      1  0.4969410000000  0.4195950000000  0.4546700000000 1.0
C      1  0.4322770000000  0.4934070000000  0.5632510000000 1.0
C      1  0.4230670000000  0.4579730000000  0.5070250000000 1.0
C      1  0.5051720000000  0.5212140000000  0.5907680000000 1.0
C      1  0.5810770000000  0.4849330000000  0.4903300000000 1.0
C      1  0.5165390000000  0.5072410000000  0.5526120000000 1.0
C      1  0.5043160000000  0.5429860000000  0.5744820000000 1.0
C      1  0.5644910000000  0.4444260000000  0.4676510000000 1.0
C      1  0.4700180000000  0.5403270000000  0.4203190000000 1.0
C      1  0.4371550000000  0.5153630000000  0.5301840000000 1.0
C      1  0.4571270000000  0.5278290000000  0.5073200000000 1.0
C      1  0.4731240000000  0.5043650000000  0.5579390000000 1.0
C      1  0.5452300000000  0.5418360000000  0.4233190000000 1.0
C      1  0.4683290000000  0.4717440000000  0.5233180000000 1.0
END
