TITL C-2778436-5916-1258 -0.00784789706644342 125000 -268.657553616741 0 0 46 (C1) n - 1
REM
REM in /home/nfs/bkarasulu/CARBON/AIRSS/Generating-Clusters/REBO/Only-C1/SD-CG/HFTN-CG
REM
REM
REM
REM
REM
REM ./C.cell (11c1c37f851c82e70ff6c80c92926a4b)
REM
REM compiler GCC version 9.2.1 20190827 (Red Hat 9.2.1-1)
REM options -cpp -mtune=generic -march=x86-64 -g -O0 -fpre-include=/usr/include/finclude/math-vector-fortran.h
REM seed -168644185 -315477750 -1403252357 -1137226814 -499402575 1940532751 1229384706 1061876364 -192636862 -1316439248 -12726195 -1707420145 -925619664 -727140586 830134090 37794585 -2133409478 265634889 -1260699900 173804662 1785831473 -237450548 -1099540024 2076587686 1579591254 574616216 -2065892303 947742076 1709336183 1079881973 -1749728012 -792578848 4499688
REM
CELL 1.54180   50.00000   50.00000   50.00000   90.00000   90.00000   90.00000
LATT -1
SFAC C  
C      1  0.4869770000000  0.4403160000000  0.5416720000000 1.0
C      1  0.4757180000000  0.4236580000000  0.5601270000000 1.0
C      1  0.5223960000000  0.4799620000000  0.5567560000000 1.0
C      1  0.5102920000000  0.5547370000000  0.5051970000000 1.0
C      1  0.4451410000000  0.5335080000000  0.5500470000000 1.0
C      1  0.5173480000000  0.4519160000000  0.5448260000000 1.0
C      1  0.5338420000000  0.5371050000000  0.4670620000000 1.0
C      1  0.4667140000000  0.5307330000000  0.4980640000000 1.0
C      1  0.4733930000000  0.5719290000000  0.5304420000000 1.0
C      1  0.5402670000000  0.5117400000000  0.4800130000000 1.0
C      1  0.5160360000000  0.5115590000000  0.4288690000000 1.0
C      1  0.5386590000000  0.4814720000000  0.5286800000000 1.0
C      1  0.4454880000000  0.5035330000000  0.4975970000000 1.0
C      1  0.4437780000000  0.4568540000000  0.5118230000000 1.0
C      1  0.4972520000000  0.5161950000000  0.5412170000000 1.0
C      1  0.5196920000000  0.5331530000000  0.5261740000000 1.0
C      1  0.4989320000000  0.5543450000000  0.5434650000000 1.0
C      1  0.4818850000000  0.5575540000000  0.5055950000000 1.0
C      1  0.5160120000000  0.5369120000000  0.4436260000000 1.0
C      1  0.4774940000000  0.5289740000000  0.4692900000000 1.0
C      1  0.4822610000000  0.4815370000000  0.5100600000000 1.0
C      1  0.4909760000000  0.4431930000000  0.4866680000000 1.0
C      1  0.5475510000000  0.4494800000000  0.4887930000000 1.0
C      1  0.4896430000000  0.5475530000000  0.4515590000000 1.0
C      1  0.5032720000000  0.4408830000000  0.5123850000000 1.0
C      1  0.5056140000000  0.5003330000000  0.5620460000000 1.0
C      1  0.4666910000000  0.5516740000000  0.5543170000000 1.0
C      1  0.4434080000000  0.4758240000000  0.4888440000000 1.0
C      1  0.4822630000000  0.4819140000000  0.4821120000000 1.0
C      1  0.4810620000000  0.5725970000000  0.4459110000000 1.0
C      1  0.4769870000000  0.5080930000000  0.5215050000000 1.0
C      1  0.4927460000000  0.4955500000000  0.4355570000000 1.0
C      1  0.5427540000000  0.4895950000000  0.4615410000000 1.0
C      1  0.4696610000000  0.4593150000000  0.5236400000000 1.0
C      1  0.4864110000000  0.4675450000000  0.4443350000000 1.0
C      1  0.5900260000000  0.5048550000000  0.5340970000000 1.0
C      1  0.5380310000000  0.5112150000000  0.5118270000000 1.0
C      1  0.5287670000000  0.5588530000000  0.4845790000000 1.0
C      1  0.4459280000000  0.5154320000000  0.5283950000000 1.0
C      1  0.5060260000000  0.4552880000000  0.4635910000000 1.0
C      1  0.5402360000000  0.4971160000000  0.4339460000000 1.0
C      1  0.4834560000000  0.5026270000000  0.4632370000000 1.0
C      1  0.4651900000000  0.4578030000000  0.4695130000000 1.0
C      1  0.5656010000000  0.5007910000000  0.5275770000000 1.0
C      1  0.5338770000000  0.4627080000000  0.4677950000000 1.0
C      1  0.5342500000000  0.4520700000000  0.5156270000000 1.0
END
