TITL C-2778429-3646-794 -0.000597917449500329 125000 -310.999230460679 0 0 54 (C1) n - 1
REM
REM in /home/nfs/bkarasulu/CARBON/AIRSS/Generating-Clusters/REBO/Only-C1/SD-CG/HFTN-CG
REM
REM
REM
REM
REM
REM ./C.cell (11c1c37f851c82e70ff6c80c92926a4b)
REM
REM compiler GCC version 9.2.1 20190827 (Red Hat 9.2.1-1)
REM options -cpp -mtune=generic -march=x86-64 -g -O0 -fpre-include=/usr/include/finclude/math-vector-fortran.h
REM seed -918963109 -297764533 909980840 -951940628 -1143898561 -943347426 104206718 335453034 974054606 -2082457528 691471629 1644028481 -2041899382 1901311906 1464983988 -1625216287 -137147683 -940660243 -1794468438 -1148574737 -1607323155 114129665 -524541660 -1267207362 2128121484 1849800427 564370907 -243189263 -1978637609 692454552 -1606174603 812346354 619379549
REM
CELL 1.54180   50.00000   50.00000   50.00000   90.00000   90.00000   90.00000
LATT -1
SFAC C  
C      1  0.5168490000000  0.4876030000000  0.4662530000000 1.0
C      1  0.4212090000000  0.3156970000000  0.4124690000000 1.0
C      1  0.5432670000000  0.5254580000000  0.5994590000000 1.0
C      1  0.5149760000000  0.5107810000000  0.4875410000000 1.0
C      1  0.5076530000000  0.4291450000000  0.4597750000000 1.0
C      1  0.4298810000000  0.3402430000000  0.4180790000000 1.0
C      1  0.5025230000000  0.4762860000000  0.5560320000000 1.0
C      1  0.5654110000000  0.4934330000000  0.4850440000000 1.0
C      1  0.4851290000000  0.5572940000000  0.4619020000000 1.0
C      1  0.5715950000000  0.5922820000000  0.4439140000000 1.0
C      1  0.5075420000000  0.5277570000000  0.4329050000000 1.0
C      1  0.4125370000000  0.2911510000000  0.4068580000000 1.0
C      1  0.4040030000000  0.2669950000000  0.4013370000000 1.0
C      1  0.5099610000000  0.5289170000000  0.6061000000000 1.0
C      1  0.4826720000000  0.5329490000000  0.4463300000000 1.0
C      1  0.4825720000000  0.4703210000000  0.5756010000000 1.0
C      1  0.5069720000000  0.5366590000000  0.5301960000000 1.0
C      1  0.5383430000000  0.5686220000000  0.5789950000000 1.0
C      1  0.5278340000000  0.5706290000000  0.4433420000000 1.0
C      1  0.5310750000000  0.4989020000000  0.5906680000000 1.0
C      1  0.4645690000000  0.4384280000000  0.4405220000000 1.0
C      1  0.5462500000000  0.5900570000000  0.4534380000000 1.0
C      1  0.4624710000000  0.5136520000000  0.4455230000000 1.0
C      1  0.5135460000000  0.6000880000000  0.4973250000000 1.0
C      1  0.5138160000000  0.5448900000000  0.5787590000000 1.0
C      1  0.4385530000000  0.3647890000000  0.4236900000000 1.0
C      1  0.5001770000000  0.5771540000000  0.4478250000000 1.0
C      1  0.5060320000000  0.5660980000000  0.5330340000000 1.0
C      1  0.4388340000000  0.5369590000000  0.6382490000000 1.0
C      1  0.4813580000000  0.4820610000000  0.5998710000000 1.0
C      1  0.5443710000000  0.5058370000000  0.4715920000000 1.0
C      1  0.5560740000000  0.5493960000000  0.5923000000000 1.0
C      1  0.4736340000000  0.4640840000000  0.4463860000000 1.0
C      1  0.5005980000000  0.5772680000000  0.5067900000000 1.0
C      1  0.4558970000000  0.4138820000000  0.4349110000000 1.0
C      1  0.5315770000000  0.5421380000000  0.4393830000000 1.0
C      1  0.4998060000000  0.4695660000000  0.4552390000000 1.0
C      1  0.4573760000000  0.4870780000000  0.4439960000000 1.0
C      1  0.5096640000000  0.4929980000000  0.6120330000000 1.0
C      1  0.5523090000000  0.5278000000000  0.4524090000000 1.0
C      1  0.4472250000000  0.3893350000000  0.4293000000000 1.0
C      1  0.5789340000000  0.5351270000000  0.4505910000000 1.0
C      1  0.4589650000000  0.5257120000000  0.6273180000000 1.0
C      1  0.5139030000000  0.5244010000000  0.5544650000000 1.0
C      1  0.5303420000000  0.6278740000000  0.4972350000000 1.0
C      1  0.5201340000000  0.4982460000000  0.5637200000000 1.0
C      1  0.5019470000000  0.5303350000000  0.5022860000000 1.0
C      1  0.5051270000000  0.4523580000000  0.5071740000000 1.0
C      1  0.4822520000000  0.5127040000000  0.6146730000000 1.0
C      1  0.5136570000000  0.5729510000000  0.5593170000000 1.0
C      1  0.5360320000000  0.6058800000000  0.4740620000000 1.0
C      1  0.5038540000000  0.4640580000000  0.5310630000000 1.0
C      1  0.4923100000000  0.5550130000000  0.4894340000000 1.0
C      1  0.5064000000000  0.4406590000000  0.4832850000000 1.0
END
