TITL C-2778429-3646-1111 0.00229559696545615 125000 -976.706947378321 0 0 168 (C1) n - 1
REM
REM in /home/nfs/bkarasulu/CARBON/AIRSS/Generating-Clusters/REBO/Only-C1/SD-CG/HFTN-CG
REM
REM
REM
REM
REM
REM ./C.cell (11c1c37f851c82e70ff6c80c92926a4b)
REM
REM compiler GCC version 9.2.1 20190827 (Red Hat 9.2.1-1)
REM options -cpp -mtune=generic -march=x86-64 -g -O0 -fpre-include=/usr/include/finclude/math-vector-fortran.h
REM seed 863717808 1083748235 -710178608 -1856551531 -619582489 -2092487824 455915843 -431821897 1812973500 -623207640 2014132174 -147428222 1427651356 469168509 -827712300 -546224606 336750681 2107107378 1297262760 1054068500 -2053531332 396326798 1931116639 1201287616 -166478718 423964885 -408561156 -1307537328 968263671 2047958019 -1308485800 2005215267 674648845
REM
CELL 1.54180   50.00000   50.00000   50.00000   90.00000   90.00000   90.00000
LATT -1
SFAC C  
C      1  0.5187020000000  0.4969730000000  0.5346810000000 1.0
C      1  0.4729410000000  0.5251080000000  0.4380650000000 1.0
C      1  0.5169290000000  0.5637330000000  0.5889090000000 1.0
C      1  0.4258520000000  0.5025520000000  0.4535940000000 1.0
C      1  0.5649570000000  0.4522600000000  0.5740720000000 1.0
C      1  0.4389300000000  0.5355430000000  0.4199020000000 1.0
C      1  0.5218160000000  0.5070980000000  0.5851830000000 1.0
C      1  0.5726150000000  0.5518660000000  0.5247600000000 1.0
C      1  0.4340740000000  0.5182570000000  0.5084870000000 1.0
C      1  0.4766250000000  0.5844210000000  0.5480400000000 1.0
C      1  0.5851690000000  0.4540130000000  0.4265340000000 1.0
C      1  0.5529100000000  0.4948760000000  0.5143220000000 1.0
C      1  0.5499600000000  0.5235370000000  0.4780250000000 1.0
C      1  0.4431710000000  0.5804110000000  0.5292100000000 1.0
C      1  0.5994970000000  0.5302450000000  0.4737070000000 1.0
C      1  0.4744500000000  0.4679840000000  0.4951840000000 1.0
C      1  0.4805330000000  0.4997810000000  0.4720410000000 1.0
C      1  0.5111080000000  0.5142010000000  0.4667850000000 1.0
C      1  0.4056040000000  0.4588430000000  0.5181650000000 1.0
C      1  0.5241770000000  0.4380480000000  0.4597750000000 1.0
C      1  0.4648370000000  0.4202050000000  0.5614980000000 1.0
C      1  0.4908960000000  0.4892200000000  0.4035900000000 1.0
C      1  0.4608130000000  0.4528390000000  0.5897740000000 1.0
C      1  0.4193130000000  0.4619430000000  0.5493580000000 1.0
C      1  0.5047660000000  0.4557330000000  0.4896890000000 1.0
C      1  0.5291150000000  0.5035370000000  0.4940790000000 1.0
C      1  0.4658380000000  0.4691180000000  0.5598420000000 1.0
C      1  0.4248490000000  0.4546590000000  0.4411740000000 1.0
C      1  0.5634650000000  0.4172300000000  0.5211610000000 1.0
C      1  0.4491800000000  0.4127670000000  0.4600610000000 1.0
C      1  0.4457870000000  0.5129580000000  0.5485380000000 1.0
C      1  0.5644000000000  0.5338690000000  0.5824560000000 1.0
C      1  0.5406880000000  0.4869650000000  0.4185940000000 1.0
C      1  0.4687620000000  0.4181700000000  0.4961470000000 1.0
C      1  0.5904730000000  0.5653120000000  0.5483230000000 1.0
C      1  0.6032180000000  0.4985240000000  0.4976530000000 1.0
C      1  0.5446650000000  0.4174900000000  0.4749780000000 1.0
C      1  0.4760740000000  0.4060410000000  0.5409700000000 1.0
C      1  0.4806480000000  0.5634550000000  0.4620080000000 1.0
C      1  0.5302040000000  0.5567290000000  0.4692480000000 1.0
C      1  0.5179070000000  0.3959640000000  0.5079890000000 1.0
C      1  0.5496380000000  0.5876970000000  0.4850140000000 1.0
C      1  0.5358470000000  0.4345780000000  0.5765360000000 1.0
C      1  0.5519130000000  0.4809810000000  0.5499350000000 1.0
C      1  0.5097110000000  0.4680440000000  0.4581620000000 1.0
C      1  0.5222510000000  0.5849620000000  0.5393520000000 1.0
C      1  0.4740980000000  0.5729290000000  0.5160870000000 1.0
C      1  0.5439860000000  0.3976960000000  0.5258210000000 1.0
C      1  0.4795940000000  0.5280750000000  0.5010480000000 1.0
C      1  0.4581630000000  0.5386440000000  0.5329040000000 1.0
C      1  0.4279170000000  0.4949340000000  0.5877600000000 1.0
C      1  0.5376830000000  0.5793950000000  0.5669650000000 1.0
C      1  0.5207110000000  0.4706650000000  0.5559990000000 1.0
C      1  0.5169080000000  0.4063270000000  0.5408910000000 1.0
C      1  0.5498890000000  0.5575080000000  0.5892770000000 1.0
C      1  0.4948150000000  0.5398100000000  0.4768380000000 1.0
C      1  0.5040350000000  0.5947610000000  0.4524290000000 1.0
C      1  0.5898620000000  0.5180390000000  0.5125960000000 1.0
C      1  0.5925810000000  0.5397140000000  0.4458240000000 1.0
C      1  0.5210420000000  0.5219370000000  0.4263810000000 1.0
C      1  0.5438580000000  0.5501550000000  0.4970370000000 1.0
C      1  0.4304430000000  0.4812390000000  0.4320010000000 1.0
C      1  0.3897680000000  0.4822950000000  0.5109700000000 1.0
C      1  0.4954850000000  0.4647720000000  0.5339630000000 1.0
C      1  0.5117410000000  0.5180780000000  0.3756370000000 1.0
C      1  0.5142900000000  0.5569270000000  0.5264000000000 1.0
C      1  0.4490210000000  0.4660270000000  0.5104500000000 1.0
C      1  0.5841650000000  0.5128450000000  0.5689840000000 1.0
C      1  0.5577930000000  0.4925290000000  0.4686690000000 1.0
C      1  0.4781170000000  0.5943090000000  0.4372750000000 1.0
C      1  0.5140920000000  0.4215030000000  0.5657210000000 1.0
C      1  0.4399130000000  0.5480220000000  0.5065690000000 1.0
C      1  0.4545430000000  0.5126770000000  0.4581350000000 1.0
C      1  0.4711640000000  0.5862480000000  0.4843390000000 1.0
C      1  0.5300920000000  0.4912170000000  0.4503220000000 1.0
C      1  0.4869530000000  0.5626040000000  0.4283570000000 1.0
C      1  0.5568430000000  0.4208320000000  0.4445570000000 1.0
C      1  0.5855600000000  0.4559260000000  0.5238760000000 1.0
C      1  0.4688910000000  0.5146360000000  0.5991040000000 1.0
C      1  0.3859240000000  0.5055870000000  0.4860430000000 1.0
C      1  0.4987560000000  0.5190250000000  0.5738840000000 1.0
C      1  0.4865120000000  0.4319530000000  0.5799470000000 1.0
C      1  0.4113490000000  0.4860090000000  0.4773020000000 1.0
C      1  0.5062940000000  0.4399430000000  0.5168340000000 1.0
C      1  0.4033520000000  0.5226670000000  0.4639070000000 1.0
C      1  0.5315430000000  0.4730610000000  0.6174190000000 1.0
C      1  0.4418980000000  0.4418640000000  0.5236390000000 1.0
C      1  0.4454300000000  0.4345270000000  0.4371010000000 1.0
C      1  0.4554880000000  0.4861040000000  0.4201160000000 1.0
C      1  0.4984640000000  0.4627730000000  0.4008050000000 1.0
C      1  0.4894760000000  0.5387160000000  0.5293570000000 1.0
C      1  0.5648150000000  0.4410470000000  0.5443910000000 1.0
C      1  0.5431420000000  0.4545630000000  0.6001490000000 1.0
C      1  0.4126680000000  0.5194420000000  0.5442890000000 1.0
C      1  0.5795780000000  0.4528480000000  0.4964370000000 1.0
C      1  0.5810460000000  0.4271180000000  0.4303870000000 1.0
C      1  0.4974830000000  0.6012620000000  0.5315000000000 1.0
C      1  0.5187140000000  0.4980030000000  0.6133660000000 1.0
C      1  0.5025010000000  0.4339560000000  0.4181450000000 1.0
C      1  0.4815210000000  0.4758000000000  0.4400760000000 1.0
C      1  0.4859180000000  0.5098650000000  0.3826150000000 1.0
C      1  0.5748280000000  0.5040800000000  0.5373830000000 1.0
C      1  0.5203490000000  0.5705020000000  0.4488960000000 1.0
C      1  0.4786030000000  0.4368890000000  0.4691740000000 1.0
C      1  0.4325770000000  0.5219100000000  0.5851960000000 1.0
C      1  0.4765310000000  0.4827230000000  0.5953290000000 1.0
C      1  0.5056440000000  0.4168790000000  0.4452880000000 1.0
C      1  0.5646700000000  0.4285700000000  0.4950080000000 1.0
C      1  0.4283710000000  0.4872490000000  0.5019910000000 1.0
C      1  0.5019920000000  0.4882120000000  0.4953550000000 1.0
C      1  0.4626150000000  0.5003260000000  0.5687030000000 1.0
C      1  0.5164290000000  0.5544800000000  0.4225630000000 1.0
C      1  0.5132770000000  0.4036220000000  0.4766320000000 1.0
C      1  0.5357000000000  0.4442910000000  0.5301450000000 1.0
C      1  0.4417080000000  0.5800790000000  0.4946770000000 1.0
C      1  0.5952130000000  0.5025740000000  0.4592250000000 1.0
C      1  0.4121300000000  0.5496630000000  0.4619010000000 1.0
C      1  0.4009050000000  0.5133800000000  0.5147130000000 1.0
C      1  0.4960590000000  0.4637510000000  0.5746960000000 1.0
C      1  0.4452640000000  0.4433050000000  0.4758900000000 1.0
C      1  0.5647260000000  0.4716630000000  0.4464430000000 1.0
C      1  0.4470330000000  0.4431300000000  0.5535650000000 1.0
C      1  0.4135560000000  0.5664550000000  0.5189180000000 1.0
C      1  0.4163730000000  0.4466180000000  0.4935860000000 1.0
C      1  0.5444670000000  0.5144390000000  0.5704960000000 1.0
C      1  0.5453380000000  0.5792710000000  0.5152940000000 1.0
C      1  0.5730250000000  0.5601640000000  0.4473430000000 1.0
C      1  0.4921820000000  0.5456120000000  0.5907600000000 1.0
C      1  0.4123790000000  0.5665280000000  0.4847730000000 1.0
C      1  0.4940000000000  0.5133450000000  0.5453520000000 1.0
C      1  0.5162290000000  0.5916890000000  0.4825000000000 1.0
C      1  0.5415730000000  0.5416100000000  0.5281450000000 1.0
C      1  0.4974360000000  0.5206250000000  0.6137370000000 1.0
C      1  0.4267210000000  0.5477640000000  0.5441810000000 1.0
C      1  0.5312280000000  0.4712580000000  0.5174550000000 1.0
C      1  0.5276990000000  0.4565910000000  0.4131080000000 1.0
C      1  0.5609480000000  0.5777850000000  0.5446200000000 1.0
C      1  0.4527040000000  0.5740600000000  0.4453930000000 1.0
C      1  0.5382040000000  0.5177990000000  0.5436130000000 1.0
C      1  0.4318630000000  0.5545290000000  0.4408480000000 1.0
C      1  0.5338630000000  0.5121960000000  0.3973230000000 1.0
C      1  0.4800370000000  0.4890270000000  0.5287360000000 1.0
C      1  0.4504740000000  0.5664920000000  0.5600920000000 1.0
C      1  0.5593720000000  0.5237170000000  0.4159750000000 1.0
C      1  0.5494900000000  0.5542730000000  0.4268320000000 1.0
C      1  0.4938060000000  0.6043800000000  0.5025140000000 1.0
C      1  0.5440350000000  0.4505060000000  0.4386210000000 1.0
C      1  0.4604530000000  0.4724430000000  0.4666230000000 1.0
C      1  0.5850350000000  0.4778360000000  0.4802730000000 1.0
C      1  0.4589130000000  0.5435040000000  0.5829120000000 1.0
C      1  0.4817480000000  0.4027030000000  0.4626040000000 1.0
C      1  0.5837110000000  0.5474930000000  0.4961500000000 1.0
C      1  0.4255450000000  0.4893690000000  0.5346580000000 1.0
C      1  0.5880300000000  0.5122850000000  0.4273900000000 1.0
C      1  0.4092650000000  0.4568060000000  0.4653270000000 1.0
C      1  0.5753630000000  0.4835910000000  0.5715060000000 1.0
C      1  0.5018440000000  0.5649440000000  0.4978170000000 1.0
C      1  0.4428040000000  0.4189910000000  0.5073500000000 1.0
C      1  0.4638960000000  0.5038720000000  0.5090970000000 1.0
C      1  0.5468360000000  0.5273360000000  0.4478980000000 1.0
C      1  0.4866100000000  0.4175550000000  0.5174230000000 1.0
C      1  0.4960520000000  0.5055840000000  0.4309530000000 1.0
C      1  0.5699990000000  0.5695450000000  0.4740190000000 1.0
C      1  0.4317850000000  0.4683750000000  0.5803550000000 1.0
C      1  0.5743820000000  0.4853440000000  0.4184440000000 1.0
C      1  0.4692040000000  0.5443120000000  0.4111080000000 1.0
C      1  0.4770950000000  0.4431330000000  0.4355970000000 1.0
C      1  0.4586410000000  0.5128160000000  0.4030360000000 1.0
END
