TITL C-2778425-5191-1299 0.00103869593237215 125000 -758.971153254379 0 0 130 (C1) n - 1
REM
REM in /home/nfs/bkarasulu/CARBON/AIRSS/Generating-Clusters/REBO/Only-C1/SD-CG/HFTN-CG
REM
REM
REM
REM
REM
REM ./C.cell (11c1c37f851c82e70ff6c80c92926a4b)
REM
REM compiler GCC version 9.2.1 20190827 (Red Hat 9.2.1-1)
REM options -cpp -mtune=generic -march=x86-64 -g -O0 -fpre-include=/usr/include/finclude/math-vector-fortran.h
REM seed 1468108688 1535281441 -575314573 -221753984 542008180 751935309 -1144605568 -150859497 511205006 191067341 -1302843135 178247442 1120232958 873450755 -91273358 607373564 -355239210 422504448 -224551976 -32995895 2024354336 1752968348 -913250693 -2022762346 -919451823 529168137 1433755962 781871401 219226644 431665258 1191449395 740967903 -331396344
REM
CELL 1.54180   50.00000   50.00000   50.00000   90.00000   90.00000   90.00000
LATT -1
SFAC C  
C      1  0.5412180000000  0.4075940000000  0.4943580000000 1.0
C      1  0.5488680000000  0.5205940000000  0.4200190000000 1.0
C      1  0.4058590000000  0.4935420000000  0.5046550000000 1.0
C      1  0.3949480000000  0.4907490000000  0.4660070000000 1.0
C      1  0.4673990000000  0.4161030000000  0.4992150000000 1.0
C      1  0.5346030000000  0.4528040000000  0.5579170000000 1.0
C      1  0.5233790000000  0.5459310000000  0.5820770000000 1.0
C      1  0.4961790000000  0.4230770000000  0.5052520000000 1.0
C      1  0.5688200000000  0.4365400000000  0.5235090000000 1.0
C      1  0.5441500000000  0.5749780000000  0.4725550000000 1.0
C      1  0.4540400000000  0.4642160000000  0.4833550000000 1.0
C      1  0.5375770000000  0.4947700000000  0.5989460000000 1.0
C      1  0.4677840000000  0.5370560000000  0.5436310000000 1.0
C      1  0.5382510000000  0.4618630000000  0.5265270000000 1.0
C      1  0.4405710000000  0.5129090000000  0.5075090000000 1.0
C      1  0.4592240000000  0.5634710000000  0.4468110000000 1.0
C      1  0.4402100000000  0.5200570000000  0.4322710000000 1.0
C      1  0.5793260000000  0.5370160000000  0.5287230000000 1.0
C      1  0.5827280000000  0.5316050000000  0.4579110000000 1.0
C      1  0.4367750000000  0.4648360000000  0.5595810000000 1.0
C      1  0.4632070000000  0.5442930000000  0.4950740000000 1.0
C      1  0.5011670000000  0.5059230000000  0.5868310000000 1.0
C      1  0.4835290000000  0.4238420000000  0.4425550000000 1.0
C      1  0.4400670000000  0.5517770000000  0.4712960000000 1.0
C      1  0.4291240000000  0.4940010000000  0.5671670000000 1.0
C      1  0.5613410000000  0.5408600000000  0.4386810000000 1.0
C      1  0.4853740000000  0.5465160000000  0.4715950000000 1.0
C      1  0.5069280000000  0.4669070000000  0.4315950000000 1.0
C      1  0.4464600000000  0.4281650000000  0.5204510000000 1.0
C      1  0.5613730000000  0.4596000000000  0.5013780000000 1.0
C      1  0.5628760000000  0.5340450000000  0.4994940000000 1.0
C      1  0.5473800000000  0.4505720000000  0.4261540000000 1.0
C      1  0.5222010000000  0.5164280000000  0.4863650000000 1.0
C      1  0.4567510000000  0.5830420000000  0.5226910000000 1.0
C      1  0.4932530000000  0.5282540000000  0.5627890000000 1.0
C      1  0.5360700000000  0.4740770000000  0.5756570000000 1.0
C      1  0.5134870000000  0.4890490000000  0.4154530000000 1.0
C      1  0.5104640000000  0.5160620000000  0.4482590000000 1.0
C      1  0.4773650000000  0.5051070000000  0.5345920000000 1.0
C      1  0.5520600000000  0.5183910000000  0.4733590000000 1.0
C      1  0.5625130000000  0.5179510000000  0.5449630000000 1.0
C      1  0.4478380000000  0.4909210000000  0.4366650000000 1.0
C      1  0.5924030000000  0.5509360000000  0.4791240000000 1.0
C      1  0.5616700000000  0.4517260000000  0.4745940000000 1.0
C      1  0.4136570000000  0.4899440000000  0.5372910000000 1.0
C      1  0.5574980000000  0.5016880000000  0.4453250000000 1.0
C      1  0.4860010000000  0.5215270000000  0.5064210000000 1.0
C      1  0.4919020000000  0.5000860000000  0.4822820000000 1.0
C      1  0.6022850000000  0.5386620000000  0.5036860000000 1.0
C      1  0.4678290000000  0.5387380000000  0.4250800000000 1.0
C      1  0.4670540000000  0.5819480000000  0.4744230000000 1.0
C      1  0.4185240000000  0.5225870000000  0.5287920000000 1.0
C      1  0.5589660000000  0.4883550000000  0.5322550000000 1.0
C      1  0.5038020000000  0.5935570000000  0.4581550000000 1.0
C      1  0.4964430000000  0.4682950000000  0.4583790000000 1.0
C      1  0.5290150000000  0.4903550000000  0.4571830000000 1.0
C      1  0.5215290000000  0.5163320000000  0.4099530000000 1.0
C      1  0.5604380000000  0.3847920000000  0.4796840000000 1.0
C      1  0.5219330000000  0.5912770000000  0.4791120000000 1.0
C      1  0.5745260000000  0.5041220000000  0.5066630000000 1.0
C      1  0.4683150000000  0.4972400000000  0.5663350000000 1.0
C      1  0.4224530000000  0.4430470000000  0.5008610000000 1.0
C      1  0.5254010000000  0.4276720000000  0.5428250000000 1.0
C      1  0.5322090000000  0.5283370000000  0.5542040000000 1.0
C      1  0.4232900000000  0.5312900000000  0.4530000000000 1.0
C      1  0.5212990000000  0.4997710000000  0.5629380000000 1.0
C      1  0.4810150000000  0.4736310000000  0.4980350000000 1.0
C      1  0.5612200000000  0.4236900000000  0.4719850000000 1.0
C      1  0.5447670000000  0.5218370000000  0.5915790000000 1.0
C      1  0.5177910000000  0.4700330000000  0.4822760000000 1.0
C      1  0.5540750000000  0.4683610000000  0.4503300000000 1.0
C      1  0.4484400000000  0.4333670000000  0.4809500000000 1.0
C      1  0.5659390000000  0.5669280000000  0.4909190000000 1.0
C      1  0.4591230000000  0.4358010000000  0.4512990000000 1.0
C      1  0.5129770000000  0.5729600000000  0.5638500000000 1.0
C      1  0.4787630000000  0.4608140000000  0.4040500000000 1.0
C      1  0.5055140000000  0.5585380000000  0.5139140000000 1.0
C      1  0.4970930000000  0.4381660000000  0.4186960000000 1.0
C      1  0.4588700000000  0.4475610000000  0.5669420000000 1.0
C      1  0.5672990000000  0.5223610000000  0.5759170000000 1.0
C      1  0.5008640000000  0.4095220000000  0.4600510000000 1.0
C      1  0.4481910000000  0.5212110000000  0.5745920000000 1.0
C      1  0.4303070000000  0.4834250000000  0.4829940000000 1.0
C      1  0.4985100000000  0.5358290000000  0.4101480000000 1.0
C      1  0.4535650000000  0.4600170000000  0.5236130000000 1.0
C      1  0.4044380000000  0.5164370000000  0.4685030000000 1.0
C      1  0.4359940000000  0.5391690000000  0.5492730000000 1.0
C      1  0.4689160000000  0.4305270000000  0.5459220000000 1.0
C      1  0.4923090000000  0.5668220000000  0.4474900000000 1.0
C      1  0.4494510000000  0.4577170000000  0.4382080000000 1.0
C      1  0.4826920000000  0.5099840000000  0.4357690000000 1.0
C      1  0.5290970000000  0.4379510000000  0.4152920000000 1.0
C      1  0.5801210000000  0.4617420000000  0.5363880000000 1.0
C      1  0.4471250000000  0.5118010000000  0.4782790000000 1.0
C      1  0.4242670000000  0.5515510000000  0.4998490000000 1.0
C      1  0.4902270000000  0.4735930000000  0.5552760000000 1.0
C      1  0.5114700000000  0.5448200000000  0.4868800000000 1.0
C      1  0.4809560000000  0.4816050000000  0.5924780000000 1.0
C      1  0.5122810000000  0.4527730000000  0.5104400000000 1.0
C      1  0.5958050000000  0.4808500000000  0.5195080000000 1.0
C      1  0.5151280000000  0.5866870000000  0.5404750000000 1.0
C      1  0.4744930000000  0.5562510000000  0.5222720000000 1.0
C      1  0.5090420000000  0.4924100000000  0.5346980000000 1.0
C      1  0.4041510000000  0.5267260000000  0.4984620000000 1.0
C      1  0.5158780000000  0.5449030000000  0.4461230000000 1.0
C      1  0.4214070000000  0.4573450000000  0.5314210000000 1.0
C      1  0.4737030000000  0.4551910000000  0.5904310000000 1.0
C      1  0.5413100000000  0.5567680000000  0.4505380000000 1.0
C      1  0.5911590000000  0.4910200000000  0.4822180000000 1.0
C      1  0.5205330000000  0.4917650000000  0.5077730000000 1.0
C      1  0.4738430000000  0.4842340000000  0.4173580000000 1.0
C      1  0.4535960000000  0.4908310000000  0.5211320000000 1.0
C      1  0.4026000000000  0.4648000000000  0.4866480000000 1.0
C      1  0.4349160000000  0.5616030000000  0.5243860000000 1.0
C      1  0.4667680000000  0.5228590000000  0.4616740000000 1.0
C      1  0.4755290000000  0.5891850000000  0.4996040000000 1.0
C      1  0.5761090000000  0.3996850000000  0.4585030000000 1.0
C      1  0.4871420000000  0.5594590000000  0.5723850000000 1.0
C      1  0.4851140000000  0.4615890000000  0.5268270000000 1.0
C      1  0.5708470000000  0.5823880000000  0.5173660000000 1.0
C      1  0.4694220000000  0.4830920000000  0.4618010000000 1.0
C      1  0.5944450000000  0.5037150000000  0.4604870000000 1.0
C      1  0.4967280000000  0.4248740000000  0.5371280000000 1.0
C      1  0.5127130000000  0.4093750000000  0.4845930000000 1.0
C      1  0.5771940000000  0.5672900000000  0.5369770000000 1.0
C      1  0.5067060000000  0.5320610000000  0.5318810000000 1.0
C      1  0.5456540000000  0.4187780000000  0.5233830000000 1.0
C      1  0.5081390000000  0.5897460000000  0.5073040000000 1.0
C      1  0.4975850000000  0.5351750000000  0.6015100000000 1.0
C      1  0.4674880000000  0.5410240000000  0.5904890000000 1.0
END
