TITL C-2778423-5760-580 0.00276765328948917 125000 -1128.28806722434 0 0 193 (C1) n - 1
REM
REM in /home/nfs/bkarasulu/CARBON/AIRSS/Generating-Clusters/REBO/Only-C1/SD-CG/HFTN-CG
REM
REM
REM
REM
REM
REM ./C.cell (11c1c37f851c82e70ff6c80c92926a4b)
REM
REM compiler GCC version 9.2.1 20190827 (Red Hat 9.2.1-1)
REM options -cpp -mtune=generic -march=x86-64 -g -O0 -fpre-include=/usr/include/finclude/math-vector-fortran.h
REM seed -1204563497 656021588 -1404039611 966102 -409562662 337110296 -107512140 2018204509 -921473863 -237892473 350991998 -451124997 943962645 -225388381 -1538463056 -902963869 -1265309248 1405007683 -367893239 554683968 -114959125 -553567880 -1547441321 1616382078 1864264495 876692520 1180008305 -248503042 -2036202608 -562122276 -1534040167 611285639 1576719426
REM
CELL 1.54180   50.00000   50.00000   50.00000   90.00000   90.00000   90.00000
LATT -1
SFAC C  
C      1  0.5892170000000  0.5557660000000  0.5250100000000 1.0
C      1  0.5118900000000  0.4631900000000  0.4855560000000 1.0
C      1  0.5339180000000  0.4358910000000  0.4163320000000 1.0
C      1  0.4944750000000  0.5043710000000  0.4868840000000 1.0
C      1  0.4031000000000  0.5126310000000  0.5278590000000 1.0
C      1  0.5390410000000  0.5544000000000  0.4039710000000 1.0
C      1  0.4770680000000  0.6008010000000  0.4937060000000 1.0
C      1  0.4727770000000  0.4976630000000  0.3921580000000 1.0
C      1  0.4638370000000  0.5799090000000  0.5172200000000 1.0
C      1  0.5614610000000  0.4318740000000  0.5101100000000 1.0
C      1  0.5301750000000  0.5063920000000  0.5211790000000 1.0
C      1  0.5900850000000  0.4756650000000  0.4469960000000 1.0
C      1  0.4934360000000  0.4717040000000  0.5395480000000 1.0
C      1  0.5659040000000  0.4169840000000  0.4671570000000 1.0
C      1  0.4051370000000  0.4644050000000  0.5363320000000 1.0
C      1  0.5939300000000  0.4982880000000  0.5493540000000 1.0
C      1  0.4982880000000  0.4729720000000  0.5738350000000 1.0
C      1  0.4209310000000  0.5595360000000  0.4609010000000 1.0
C      1  0.5967070000000  0.5740810000000  0.4794630000000 1.0
C      1  0.4541410000000  0.4133130000000  0.4750470000000 1.0
C      1  0.4053160000000  0.4859010000000  0.4901910000000 1.0
C      1  0.4654860000000  0.4232710000000  0.5229470000000 1.0
C      1  0.4676390000000  0.4338380000000  0.5862780000000 1.0
C      1  0.4428740000000  0.5166270000000  0.5614910000000 1.0
C      1  0.4467070000000  0.6054720000000  0.4859670000000 1.0
C      1  0.4929560000000  0.4783210000000  0.5088040000000 1.0
C      1  0.5608850000000  0.5594110000000  0.4298560000000 1.0
C      1  0.5422180000000  0.4002650000000  0.5252110000000 1.0
C      1  0.4373690000000  0.4461140000000  0.5766660000000 1.0
C      1  0.6158440000000  0.4851730000000  0.4963370000000 1.0
C      1  0.4810560000000  0.4252370000000  0.5594610000000 1.0
C      1  0.5155560000000  0.5794690000000  0.4056630000000 1.0
C      1  0.4287770000000  0.4286680000000  0.5021050000000 1.0
C      1  0.4167090000000  0.4996890000000  0.5863040000000 1.0
C      1  0.5116600000000  0.4003570000000  0.5553660000000 1.0
C      1  0.4870810000000  0.5300400000000  0.5070090000000 1.0
C      1  0.4515350000000  0.5350230000000  0.5362170000000 1.0
C      1  0.4296640000000  0.5577270000000  0.5798060000000 1.0
C      1  0.4608260000000  0.4076190000000  0.4117840000000 1.0
C      1  0.5646350000000  0.4794420000000  0.5861390000000 1.0
C      1  0.5443390000000  0.5574630000000  0.4564860000000 1.0
C      1  0.4589540000000  0.4722860000000  0.5798610000000 1.0
C      1  0.3969340000000  0.5344070000000  0.4682190000000 1.0
C      1  0.4270280000000  0.5308810000000  0.4433180000000 1.0
C      1  0.5253440000000  0.4808220000000  0.4636500000000 1.0
C      1  0.4021210000000  0.5479760000000  0.4938890000000 1.0
C      1  0.5614850000000  0.5147480000000  0.5329360000000 1.0
C      1  0.5180320000000  0.5096460000000  0.4208040000000 1.0
C      1  0.5230590000000  0.4521900000000  0.3967100000000 1.0
C      1  0.5750270000000  0.4460130000000  0.4519060000000 1.0
C      1  0.5403980000000  0.5144830000000  0.5860710000000 1.0
C      1  0.4754540000000  0.3949610000000  0.4595260000000 1.0
C      1  0.5548920000000  0.4992810000000  0.3996940000000 1.0
C      1  0.4165910000000  0.5701310000000  0.5542600000000 1.0
C      1  0.4992650000000  0.4457070000000  0.4336370000000 1.0
C      1  0.4696210000000  0.4580630000000  0.4975290000000 1.0
C      1  0.5066010000000  0.5480820000000  0.6031750000000 1.0
C      1  0.5613350000000  0.4368610000000  0.5582960000000 1.0
C      1  0.5153910000000  0.5363170000000  0.5591760000000 1.0
C      1  0.4313270000000  0.5130540000000  0.4769290000000 1.0
C      1  0.5700610000000  0.4800810000000  0.4937950000000 1.0
C      1  0.4491990000000  0.4013540000000  0.5045970000000 1.0
C      1  0.5017240000000  0.5851850000000  0.5060110000000 1.0
C      1  0.5908900000000  0.4452250000000  0.5159800000000 1.0
C      1  0.3990410000000  0.5427540000000  0.5440950000000 1.0
C      1  0.6086690000000  0.5071320000000  0.5198770000000 1.0
C      1  0.5709910000000  0.5864360000000  0.4801230000000 1.0
C      1  0.5097580000000  0.4931650000000  0.6000300000000 1.0
C      1  0.5453710000000  0.5251800000000  0.4167740000000 1.0
C      1  0.4858650000000  0.5459030000000  0.5691460000000 1.0
C      1  0.5543590000000  0.4874140000000  0.5464870000000 1.0
C      1  0.4106520000000  0.5155650000000  0.5589460000000 1.0
C      1  0.4687390000000  0.5025110000000  0.5762410000000 1.0
C      1  0.5381780000000  0.4340780000000  0.4781190000000 1.0
C      1  0.5836370000000  0.4841010000000  0.5200500000000 1.0
C      1  0.5092110000000  0.3974580000000  0.4549150000000 1.0
C      1  0.5453090000000  0.5813450000000  0.5289270000000 1.0
C      1  0.5518910000000  0.5616270000000  0.4885140000000 1.0
C      1  0.4306850000000  0.4347000000000  0.4685010000000 1.0
C      1  0.4388270000000  0.5186750000000  0.4166770000000 1.0
C      1  0.5553290000000  0.4030710000000  0.4964580000000 1.0
C      1  0.4962310000000  0.3893220000000  0.4858720000000 1.0
C      1  0.4339260000000  0.4889670000000  0.4155410000000 1.0
C      1  0.5429560000000  0.5996600000000  0.4814110000000 1.0
C      1  0.5799760000000  0.5001070000000  0.5743280000000 1.0
C      1  0.5310690000000  0.5957150000000  0.5068530000000 1.0
C      1  0.4819260000000  0.4768380000000  0.6038660000000 1.0
C      1  0.5161700000000  0.5681100000000  0.5828530000000 1.0
C      1  0.4678390000000  0.5871200000000  0.5560550000000 1.0
C      1  0.4970750000000  0.5090690000000  0.5585340000000 1.0
C      1  0.5113310000000  0.4158700000000  0.4287560000000 1.0
C      1  0.5386160000000  0.5853720000000  0.4288160000000 1.0
C      1  0.6140170000000  0.5267570000000  0.4929550000000 1.0
C      1  0.4925740000000  0.4486470000000  0.4661690000000 1.0
C      1  0.4994850000000  0.5572150000000  0.4907280000000 1.0
C      1  0.5149750000000  0.5450730000000  0.3858600000000 1.0
C      1  0.3926630000000  0.5056720000000  0.4721720000000 1.0
C      1  0.5195890000000  0.4694250000000  0.4326010000000 1.0
C      1  0.5735240000000  0.5378610000000  0.5490320000000 1.0
C      1  0.5610540000000  0.5185540000000  0.4994360000000 1.0
C      1  0.5731170000000  0.4594790000000  0.5412960000000 1.0
C      1  0.4722170000000  0.5567160000000  0.5407310000000 1.0
C      1  0.5858800000000  0.5399410000000  0.4363330000000 1.0
C      1  0.5202260000000  0.5231240000000  0.6057420000000 1.0
C      1  0.4893050000000  0.4459040000000  0.6018530000000 1.0
C      1  0.4792250000000  0.3944000000000  0.5465330000000 1.0
C      1  0.5845970000000  0.4947830000000  0.4734170000000 1.0
C      1  0.4523120000000  0.5494100000000  0.4383770000000 1.0
C      1  0.5265960000000  0.4037570000000  0.4806730000000 1.0
C      1  0.4421260000000  0.4572000000000  0.5121490000000 1.0
C      1  0.5212190000000  0.4294200000000  0.5636190000000 1.0
C      1  0.4875280000000  0.5806540000000  0.4689820000000 1.0
C      1  0.5596680000000  0.5682270000000  0.5486460000000 1.0
C      1  0.5140800000000  0.5696640000000  0.5318070000000 1.0
C      1  0.4577550000000  0.5636580000000  0.5773530000000 1.0
C      1  0.4490940000000  0.4321670000000  0.4186030000000 1.0
C      1  0.5458110000000  0.5181860000000  0.4501110000000 1.0
C      1  0.4963020000000  0.4231880000000  0.5126810000000 1.0
C      1  0.4277690000000  0.4256960000000  0.5538250000000 1.0
C      1  0.4772260000000  0.5160650000000  0.4418460000000 1.0
C      1  0.4135950000000  0.4372110000000  0.5314290000000 1.0
C      1  0.4271310000000  0.4964990000000  0.4477530000000 1.0
C      1  0.4560530000000  0.5670790000000  0.4894530000000 1.0
C      1  0.5195910000000  0.4426140000000  0.5936830000000 1.0
C      1  0.5248300000000  0.5464890000000  0.4813500000000 1.0
C      1  0.5712150000000  0.5226080000000  0.4692050000000 1.0
C      1  0.4282730000000  0.5937360000000  0.5053820000000 1.0
C      1  0.5014070000000  0.4402280000000  0.5384900000000 1.0
C      1  0.5333860000000  0.4728740000000  0.5978270000000 1.0
C      1  0.5534950000000  0.4143270000000  0.5455170000000 1.0
C      1  0.4565450000000  0.5362680000000  0.4966540000000 1.0
C      1  0.4389350000000  0.5896220000000  0.5375170000000 1.0
C      1  0.5203340000000  0.5193980000000  0.4709260000000 1.0
C      1  0.4643390000000  0.5164940000000  0.6034750000000 1.0
C      1  0.4567420000000  0.4772730000000  0.4034220000000 1.0
C      1  0.4357680000000  0.4769710000000  0.4881070000000 1.0
C      1  0.4461380000000  0.5829270000000  0.4603990000000 1.0
C      1  0.4814280000000  0.5089430000000  0.5317400000000 1.0
C      1  0.4199740000000  0.5342980000000  0.5925590000000 1.0
C      1  0.5146180000000  0.5359240000000  0.5265750000000 1.0
C      1  0.4245380000000  0.5282010000000  0.5066630000000 1.0
C      1  0.5404310000000  0.4922980000000  0.4918890000000 1.0
C      1  0.4711050000000  0.5521930000000  0.4631010000000 1.0
C      1  0.5283870000000  0.4968520000000  0.5644050000000 1.0
C      1  0.4442850000000  0.4712270000000  0.5392300000000 1.0
C      1  0.5674550000000  0.5292850000000  0.5794070000000 1.0
C      1  0.4682050000000  0.4845860000000  0.4781050000000 1.0
C      1  0.6076890000000  0.5571970000000  0.5034060000000 1.0
C      1  0.4480930000000  0.4085510000000  0.5452640000000 1.0
C      1  0.5109100000000  0.3961980000000  0.5224090000000 1.0
C      1  0.5967310000000  0.5428820000000  0.4680160000000 1.0
C      1  0.4388760000000  0.4661630000000  0.4581850000000 1.0
C      1  0.4693640000000  0.4550340000000  0.4200260000000 1.0
C      1  0.3985590000000  0.4851620000000  0.5181740000000 1.0
C      1  0.4519010000000  0.5005780000000  0.5347960000000 1.0
C      1  0.5594440000000  0.4752760000000  0.4160880000000 1.0
C      1  0.5006630000000  0.5379590000000  0.4302340000000 1.0
C      1  0.4368370000000  0.5141670000000  0.6093390000000 1.0
C      1  0.5668830000000  0.4523450000000  0.4843050000000 1.0
C      1  0.4790670000000  0.3872290000000  0.5131970000000 1.0
C      1  0.4547170000000  0.5620320000000  0.4143010000000 1.0
C      1  0.5565280000000  0.4493580000000  0.4267380000000 1.0
C      1  0.4775210000000  0.5415360000000  0.6017330000000 1.0
C      1  0.4272220000000  0.5526230000000  0.5286070000000 1.0
C      1  0.4682540000000  0.4563120000000  0.5534270000000 1.0
C      1  0.5050650000000  0.5027520000000  0.4483540000000 1.0
C      1  0.6165280000000  0.5036160000000  0.4680820000000 1.0
C      1  0.4131610000000  0.5748970000000  0.4909860000000 1.0
C      1  0.5428140000000  0.5512660000000  0.5707810000000 1.0
C      1  0.5181160000000  0.4838680000000  0.4022710000000 1.0
C      1  0.5123910000000  0.5618250000000  0.4470330000000 1.0
C      1  0.4725600000000  0.5876970000000  0.4391870000000 1.0
C      1  0.5249490000000  0.5920420000000  0.4588770000000 1.0
C      1  0.4697460000000  0.5236770000000  0.4094870000000 1.0
C      1  0.4695420000000  0.4662590000000  0.4499570000000 1.0
C      1  0.5526750000000  0.4475320000000  0.5852200000000 1.0
C      1  0.4605470000000  0.5217290000000  0.4660490000000 1.0
C      1  0.4898320000000  0.5472500000000  0.4010480000000 1.0
C      1  0.6093690000000  0.4593430000000  0.5021070000000 1.0
C      1  0.4214260000000  0.4738300000000  0.5646810000000 1.0
C      1  0.5050460000000  0.5967300000000  0.4332340000000 1.0
C      1  0.5628780000000  0.5483150000000  0.5122230000000 1.0
C      1  0.4815470000000  0.5781500000000  0.4074900000000 1.0
C      1  0.4815700000000  0.3993420000000  0.4270930000000 1.0
C      1  0.4970500000000  0.4922860000000  0.3816410000000 1.0
C      1  0.5315030000000  0.4727810000000  0.5280020000000 1.0
C      1  0.4281820000000  0.4341230000000  0.4362380000000 1.0
C      1  0.5262240000000  0.4628010000000  0.5598170000000 1.0
C      1  0.5991760000000  0.5086300000000  0.4392180000000 1.0
C      1  0.5340170000000  0.4521100000000  0.5068180000000 1.0
C      1  0.5012710000000  0.5808110000000  0.5589420000000 1.0
C      1  0.5673940000000  0.4985860000000  0.4375140000000 1.0
C      1  0.4790130000000  0.4298990000000  0.4861690000000 1.0
END
