TITL C-2778431-5191-828 -0.000125186147804142 125000 -759.909287904036 0 0 131 (C1) n - 1
REM
REM in /home/nfs/bkarasulu/CARBON/AIRSS/Generating-Clusters/REBO/Only-C1/SD-CG/HFTN-CG
REM
REM
REM
REM
REM
REM ./C.cell (11c1c37f851c82e70ff6c80c92926a4b)
REM
REM compiler GCC version 9.2.1 20190827 (Red Hat 9.2.1-1)
REM options -cpp -mtune=generic -march=x86-64 -g -O0 -fpre-include=/usr/include/finclude/math-vector-fortran.h
REM seed -1078743863 -1578748283 296369811 1396066054 -1222981673 -32232557 -2243005 457644823 -826958844 2088508337 588958164 1764352674 328734032 -801093148 -1674517395 1484180628 -271811241 378220011 274589946 -1630387484 -148162856 -194977477 701661643 -84728128 -1171900909 -2031643053 -425785672 1129706093 23680406 521808050 82550587 827399540 -266373268
REM
CELL 1.54180   50.00000   50.00000   50.00000   90.00000   90.00000   90.00000
LATT -1
SFAC C  
C      1  0.4790760000000  0.4131710000000  0.5531150000000 1.0
C      1  0.4298920000000  0.5254050000000  0.4463240000000 1.0
C      1  0.4162470000000  0.4692120000000  0.5282060000000 1.0
C      1  0.5084130000000  0.4618440000000  0.5143000000000 1.0
C      1  0.5534950000000  0.4769180000000  0.5251460000000 1.0
C      1  0.4455700000000  0.4803770000000  0.5400190000000 1.0
C      1  0.5222120000000  0.5794800000000  0.4426660000000 1.0
C      1  0.5496040000000  0.5175380000000  0.4820370000000 1.0
C      1  0.4881830000000  0.4736050000000  0.4695170000000 1.0
C      1  0.5140560000000  0.5712960000000  0.5150140000000 1.0
C      1  0.5774320000000  0.4490380000000  0.4871600000000 1.0
C      1  0.5073720000000  0.4033440000000  0.5143560000000 1.0
C      1  0.5947140000000  0.4966680000000  0.5348590000000 1.0
C      1  0.5106960000000  0.5214570000000  0.4898510000000 1.0
C      1  0.4413710000000  0.4729940000000  0.5793940000000 1.0
C      1  0.4828150000000  0.5363430000000  0.4814150000000 1.0
C      1  0.4994420000000  0.4628550000000  0.5906110000000 1.0
C      1  0.5468800000000  0.5363190000000  0.4166350000000 1.0
C      1  0.5558680000000  0.4497790000000  0.5311430000000 1.0
C      1  0.4809530000000  0.5159080000000  0.5277440000000 1.0
C      1  0.5104840000000  0.4896870000000  0.4858050000000 1.0
C      1  0.4780620000000  0.5618330000000  0.4945400000000 1.0
C      1  0.5439590000000  0.5643540000000  0.4589760000000 1.0
C      1  0.4626340000000  0.5490190000000  0.5687730000000 1.0
C      1  0.5289510000000  0.4864820000000  0.4223070000000 1.0
C      1  0.5467600000000  0.4727570000000  0.5670690000000 1.0
C      1  0.5033900000000  0.5946580000000  0.4642010000000 1.0
C      1  0.4319350000000  0.4501890000000  0.5619350000000 1.0
C      1  0.5202340000000  0.5495910000000  0.4304170000000 1.0
C      1  0.4124530000000  0.5098910000000  0.4309610000000 1.0
C      1  0.4431100000000  0.4407080000000  0.5362340000000 1.0
C      1  0.4750490000000  0.5667840000000  0.5225980000000 1.0
C      1  0.4236220000000  0.5324840000000  0.4725330000000 1.0
C      1  0.5353100000000  0.4724330000000  0.4495470000000 1.0
C      1  0.5760960000000  0.4695790000000  0.4157360000000 1.0
C      1  0.4341510000000  0.5871910000000  0.4788560000000 1.0
C      1  0.5477210000000  0.5603530000000  0.5514690000000 1.0
C      1  0.4659090000000  0.4920590000000  0.4653310000000 1.0
C      1  0.5647160000000  0.4860280000000  0.5006660000000 1.0
C      1  0.5228270000000  0.5167870000000  0.4079780000000 1.0
C      1  0.5197770000000  0.3967160000000  0.5416960000000 1.0
C      1  0.4706720000000  0.5081010000000  0.4215690000000 1.0
C      1  0.4327020000000  0.5173370000000  0.5016440000000 1.0
C      1  0.5029700000000  0.5389840000000  0.5158640000000 1.0
C      1  0.4599530000000  0.4484130000000  0.4417450000000 1.0
C      1  0.5896920000000  0.4989230000000  0.5066840000000 1.0
C      1  0.5434730000000  0.5239640000000  0.5123700000000 1.0
C      1  0.4577310000000  0.5018020000000  0.5714970000000 1.0
C      1  0.4781360000000  0.4473870000000  0.4640210000000 1.0
C      1  0.5228160000000  0.3909220000000  0.4885530000000 1.0
C      1  0.4472180000000  0.5752210000000  0.5253280000000 1.0
C      1  0.5254060000000  0.5394640000000  0.6000840000000 1.0
C      1  0.4173610000000  0.4186910000000  0.4518160000000 1.0
C      1  0.5519700000000  0.5129640000000  0.5643240000000 1.0
C      1  0.5181550000000  0.4736090000000  0.6086480000000 1.0
C      1  0.5336140000000  0.4112030000000  0.5565910000000 1.0
C      1  0.5751830000000  0.5251550000000  0.4658270000000 1.0
C      1  0.5392390000000  0.4412690000000  0.5562490000000 1.0
C      1  0.4132930000000  0.4725550000000  0.4530300000000 1.0
C      1  0.5137630000000  0.4363920000000  0.5093140000000 1.0
C      1  0.5671560000000  0.5762020000000  0.4805070000000 1.0
C      1  0.3960980000000  0.4953400000000  0.4165520000000 1.0
C      1  0.4395360000000  0.4294830000000  0.4401220000000 1.0
C      1  0.4669890000000  0.4551430000000  0.5167530000000 1.0
C      1  0.5410390000000  0.4863660000000  0.4762790000000 1.0
C      1  0.4425730000000  0.5739240000000  0.4563420000000 1.0
C      1  0.4138700000000  0.4693630000000  0.5001030000000 1.0
C      1  0.5528370000000  0.4769610000000  0.4015340000000 1.0
C      1  0.4733030000000  0.6095270000000  0.5017400000000 1.0
C      1  0.5352750000000  0.5388600000000  0.5713650000000 1.0
C      1  0.5033960000000  0.5937920000000  0.4983120000000 1.0
C      1  0.5701090000000  0.5671460000000  0.5081760000000 1.0
C      1  0.4454830000000  0.5954910000000  0.5040100000000 1.0
C      1  0.5824580000000  0.4642530000000  0.4651440000000 1.0
C      1  0.5109330000000  0.4566610000000  0.5607970000000 1.0
C      1  0.4701330000000  0.5097690000000  0.4897440000000 1.0
C      1  0.5260780000000  0.5803260000000  0.5425280000000 1.0
C      1  0.5163630000000  0.5229050000000  0.6192480000000 1.0
C      1  0.4886830000000  0.5720720000000  0.4431080000000 1.0
C      1  0.5998030000000  0.5238990000000  0.4971960000000 1.0
C      1  0.5383340000000  0.4975800000000  0.3853740000000 1.0
C      1  0.5431410000000  0.4081410000000  0.4671310000000 1.0
C      1  0.4959860000000  0.4563880000000  0.4270040000000 1.0
C      1  0.5772170000000  0.5490490000000  0.5387340000000 1.0
C      1  0.4780900000000  0.5747510000000  0.5781050000000 1.0
C      1  0.4643150000000  0.4789640000000  0.5030330000000 1.0
C      1  0.4668000000000  0.4742720000000  0.4240690000000 1.0
C      1  0.4968620000000  0.4873740000000  0.4148060000000 1.0
C      1  0.5435400000000  0.5543170000000  0.5181660000000 1.0
C      1  0.5948990000000  0.5470650000000  0.5107170000000 1.0
C      1  0.5301420000000  0.5152040000000  0.5396100000000 1.0
C      1  0.4740660000000  0.5868210000000  0.4772110000000 1.0
C      1  0.5237850000000  0.4220170000000  0.4479740000000 1.0
C      1  0.5001350000000  0.5355880000000  0.4542550000000 1.0
C      1  0.4556220000000  0.5324570000000  0.4357690000000 1.0
C      1  0.4711390000000  0.4694940000000  0.5533390000000 1.0
C      1  0.4824820000000  0.4220330000000  0.4773540000000 1.0
C      1  0.4174070000000  0.4905530000000  0.5526620000000 1.0
C      1  0.5403830000000  0.4189640000000  0.4984060000000 1.0
C      1  0.5630970000000  0.4354770000000  0.5078320000000 1.0
C      1  0.4368950000000  0.4869560000000  0.4596700000000 1.0
C      1  0.4039280000000  0.5349730000000  0.4968600000000 1.0
C      1  0.5752580000000  0.5530070000000  0.4603160000000 1.0
C      1  0.4785730000000  0.4145070000000  0.5049770000000 1.0
C      1  0.4871530000000  0.5594570000000  0.5489620000000 1.0
C      1  0.4031640000000  0.4575170000000  0.4760210000000 1.0
C      1  0.5730040000000  0.4879950000000  0.5584150000000 1.0
C      1  0.4001430000000  0.4298040000000  0.4703350000000 1.0
C      1  0.4617360000000  0.4171840000000  0.5278890000000 1.0
C      1  0.4492760000000  0.5266240000000  0.5599210000000 1.0
C      1  0.4481960000000  0.5251380000000  0.5267190000000 1.0
C      1  0.5122650000000  0.4964570000000  0.6243040000000 1.0
C      1  0.5193890000000  0.4889870000000  0.5546120000000 1.0
C      1  0.4636650000000  0.5593790000000  0.4427570000000 1.0
C      1  0.5709810000000  0.5242840000000  0.4199180000000 1.0
C      1  0.4867600000000  0.4443800000000  0.5428140000000 1.0
C      1  0.4875420000000  0.4968200000000  0.5546770000000 1.0
C      1  0.4325410000000  0.5529340000000  0.5349250000000 1.0
C      1  0.5189120000000  0.4488750000000  0.4411960000000 1.0
C      1  0.4076510000000  0.5522080000000  0.5466450000000 1.0
C      1  0.5036140000000  0.4066470000000  0.4656520000000 1.0
C      1  0.4962460000000  0.5264880000000  0.4229710000000 1.0
C      1  0.4999630000000  0.4896990000000  0.5172360000000 1.0
C      1  0.5301020000000  0.5382860000000  0.4675360000000 1.0
C      1  0.4362790000000  0.4889310000000  0.4919180000000 1.0
C      1  0.5121020000000  0.5418820000000  0.5481160000000 1.0
C      1  0.5822170000000  0.4805500000000  0.4417050000000 1.0
C      1  0.4722660000000  0.4678390000000  0.5859600000000 1.0
C      1  0.5800540000000  0.5092800000000  0.4427760000000 1.0
C      1  0.5445980000000  0.4717480000000  0.5983070000000 1.0
C      1  0.5811850000000  0.5216840000000  0.5524780000000 1.0
END
