TITL C-2778425-5191-319 0.00190092821537164 125000 -826.222119073396 0 0 141 (C1) n - 1
REM
REM in /home/nfs/bkarasulu/CARBON/AIRSS/Generating-Clusters/REBO/Only-C1/SD-CG/HFTN-CG
REM
REM
REM
REM
REM
REM ./C.cell (11c1c37f851c82e70ff6c80c92926a4b)
REM
REM compiler GCC version 9.2.1 20190827 (Red Hat 9.2.1-1)
REM options -cpp -mtune=generic -march=x86-64 -g -O0 -fpre-include=/usr/include/finclude/math-vector-fortran.h
REM seed -303304590 -586472939 -813223869 -1305062474 -87335844 109720053 821525839 36210064 -116206524 1500525547 189090958 734582518 1818593626 -1469547736 311750944 -1916594358 -1264116361 1724237777 181419494 -1856132950 1408265530 -303813921 346331763 385445823 -748872572 1373931828 -1487305676 -109669324 -814680109 1715576270 1512038905 -134399205 1831759790
REM
CELL 1.54180   50.00000   50.00000   50.00000   90.00000   90.00000   90.00000
LATT -1
SFAC C  
C      1  0.4401540000000  0.4845300000000  0.5260460000000 1.0
C      1  0.5587690000000  0.5027340000000  0.4874490000000 1.0
C      1  0.5093440000000  0.4724100000000  0.5930660000000 1.0
C      1  0.4643190000000  0.4922440000000  0.5922490000000 1.0
C      1  0.5270010000000  0.5481350000000  0.5703980000000 1.0
C      1  0.4361710000000  0.5824210000000  0.4898780000000 1.0
C      1  0.3664720000000  0.5359290000000  0.5480520000000 1.0
C      1  0.5622930000000  0.4861970000000  0.5137130000000 1.0
C      1  0.4714420000000  0.4832740000000  0.5160900000000 1.0
C      1  0.5011490000000  0.4057430000000  0.4882650000000 1.0
C      1  0.4045890000000  0.5521200000000  0.5228570000000 1.0
C      1  0.4901230000000  0.5635010000000  0.4566680000000 1.0
C      1  0.5575640000000  0.5334340000000  0.4327770000000 1.0
C      1  0.4569250000000  0.4142600000000  0.4980850000000 1.0
C      1  0.5008060000000  0.4378730000000  0.4997380000000 1.0
C      1  0.5401750000000  0.5189230000000  0.5089110000000 1.0
C      1  0.5618560000000  0.4911660000000  0.5669180000000 1.0
C      1  0.5172000000000  0.5198510000000  0.4632750000000 1.0
C      1  0.4986260000000  0.4668230000000  0.5146620000000 1.0
C      1  0.4794270000000  0.4610230000000  0.4079620000000 1.0
C      1  0.5345080000000  0.4144430000000  0.4888570000000 1.0
C      1  0.4671930000000  0.4854120000000  0.4558260000000 1.0
C      1  0.5316190000000  0.4997930000000  0.5750120000000 1.0
C      1  0.4399450000000  0.4367870000000  0.4902150000000 1.0
C      1  0.5061430000000  0.5597360000000  0.4865670000000 1.0
C      1  0.4298350000000  0.5248600000000  0.5590690000000 1.0
C      1  0.5893050000000  0.5311800000000  0.4326640000000 1.0
C      1  0.4726200000000  0.4965690000000  0.4870710000000 1.0
C      1  0.4542680000000  0.5661450000000  0.5528580000000 1.0
C      1  0.4978480000000  0.5838540000000  0.5093730000000 1.0
C      1  0.5529550000000  0.5579710000000  0.5520880000000 1.0
C      1  0.4724090000000  0.4110570000000  0.5538580000000 1.0
C      1  0.4867640000000  0.5274440000000  0.5185620000000 1.0
C      1  0.5471080000000  0.5362740000000  0.4651930000000 1.0
C      1  0.4281040000000  0.4560090000000  0.5232120000000 1.0
C      1  0.4524140000000  0.5302280000000  0.4285900000000 1.0
C      1  0.4935280000000  0.4637300000000  0.5649030000000 1.0
C      1  0.4552590000000  0.4606490000000  0.4877580000000 1.0
C      1  0.4400120000000  0.4720570000000  0.4401850000000 1.0
C      1  0.4521870000000  0.5136770000000  0.4575510000000 1.0
C      1  0.5694320000000  0.4553270000000  0.5509660000000 1.0
C      1  0.3782840000000  0.5549410000000  0.5318670000000 1.0
C      1  0.4453160000000  0.5470550000000  0.5698790000000 1.0
C      1  0.5019250000000  0.4971720000000  0.6043450000000 1.0
C      1  0.4595030000000  0.4241780000000  0.4407280000000 1.0
C      1  0.4985150000000  0.5978340000000  0.4782840000000 1.0
C      1  0.5936530000000  0.4860460000000  0.4493250000000 1.0
C      1  0.4276430000000  0.5559490000000  0.4724400000000 1.0
C      1  0.4323030000000  0.5263390000000  0.4803580000000 1.0
C      1  0.5182320000000  0.5192620000000  0.5575270000000 1.0
C      1  0.4482920000000  0.4768070000000  0.5768850000000 1.0
C      1  0.5316750000000  0.5881330000000  0.4407780000000 1.0
C      1  0.5163180000000  0.4459040000000  0.4088190000000 1.0
C      1  0.4339800000000  0.4920400000000  0.5554730000000 1.0
C      1  0.5711310000000  0.4817620000000  0.4326790000000 1.0
C      1  0.4493920000000  0.4489890000000  0.5727570000000 1.0
C      1  0.4898430000000  0.5130380000000  0.3994880000000 1.0
C      1  0.5981310000000  0.4621400000000  0.4654630000000 1.0
C      1  0.5642800000000  0.5016150000000  0.5357150000000 1.0
C      1  0.4598810000000  0.5466310000000  0.5184720000000 1.0
C      1  0.5665520000000  0.5319760000000  0.5250300000000 1.0
C      1  0.5228110000000  0.4636270000000  0.4297930000000 1.0
C      1  0.5136300000000  0.4695960000000  0.5414910000000 1.0
C      1  0.4841810000000  0.4576440000000  0.4786820000000 1.0
C      1  0.5244160000000  0.5759720000000  0.5508280000000 1.0
C      1  0.4729970000000  0.4088510000000  0.4686750000000 1.0
C      1  0.5567560000000  0.4558240000000  0.5132780000000 1.0
C      1  0.5392450000000  0.4481380000000  0.4896990000000 1.0
C      1  0.5909420000000  0.5301200000000  0.5056760000000 1.0
C      1  0.5880650000000  0.4592050000000  0.5275140000000 1.0
C      1  0.5280750000000  0.4378870000000  0.5865810000000 1.0
C      1  0.5369180000000  0.4406970000000  0.4590640000000 1.0
C      1  0.4511050000000  0.4970040000000  0.4212540000000 1.0
C      1  0.5543640000000  0.5023180000000  0.4251860000000 1.0
C      1  0.5204650000000  0.5927740000000  0.5255190000000 1.0
C      1  0.4960370000000  0.4413650000000  0.5903560000000 1.0
C      1  0.5090020000000  0.5140300000000  0.4343850000000 1.0
C      1  0.6069070000000  0.5042180000000  0.5143770000000 1.0
C      1  0.4518950000000  0.5855000000000  0.4374320000000 1.0
C      1  0.5304000000000  0.4227620000000  0.5426230000000 1.0
C      1  0.4417270000000  0.5587080000000  0.4435250000000 1.0
C      1  0.5764800000000  0.4425700000000  0.4623530000000 1.0
C      1  0.4659640000000  0.5903840000000  0.4863690000000 1.0
C      1  0.5438670000000  0.5569050000000  0.5190920000000 1.0
C      1  0.4971020000000  0.5572510000000  0.4280090000000 1.0
C      1  0.4921750000000  0.4329130000000  0.4607520000000 1.0
C      1  0.4173220000000  0.5266380000000  0.5299850000000 1.0
C      1  0.3984630000000  0.4966740000000  0.4581680000000 1.0
C      1  0.5803650000000  0.5179220000000  0.5684590000000 1.0
C      1  0.5339720000000  0.4943560000000  0.4718980000000 1.0
C      1  0.5271830000000  0.5891170000000  0.4678010000000 1.0
C      1  0.4806120000000  0.5374000000000  0.4160120000000 1.0
C      1  0.4612560000000  0.4144800000000  0.5257840000000 1.0
C      1  0.5775220000000  0.5243590000000  0.4760210000000 1.0
C      1  0.5196430000000  0.4722800000000  0.4902810000000 1.0
C      1  0.6144930000000  0.4642340000000  0.4882950000000 1.0
C      1  0.5419110000000  0.4688230000000  0.5836650000000 1.0
C      1  0.5387510000000  0.4519220000000  0.5400420000000 1.0
C      1  0.5145870000000  0.5021900000000  0.5057600000000 1.0
C      1  0.5725370000000  0.5724570000000  0.4838420000000 1.0
C      1  0.4940840000000  0.5636450000000  0.5551490000000 1.0
C      1  0.4576350000000  0.5426040000000  0.5938570000000 1.0
C      1  0.5018310000000  0.5010090000000  0.5351100000000 1.0
C      1  0.4945140000000  0.5187730000000  0.4865040000000 1.0
C      1  0.4362360000000  0.4408160000000  0.4442310000000 1.0
C      1  0.5386760000000  0.5466020000000  0.4123270000000 1.0
C      1  0.5178500000000  0.5274040000000  0.4055780000000 1.0
C      1  0.5335010000000  0.4169780000000  0.5692580000000 1.0
C      1  0.4030620000000  0.5046830000000  0.5619000000000 1.0
C      1  0.4811980000000  0.5205630000000  0.5956060000000 1.0
C      1  0.4744530000000  0.5928570000000  0.4545400000000 1.0
C      1  0.3782660000000  0.5139460000000  0.5594370000000 1.0
C      1  0.4972210000000  0.4708660000000  0.4500200000000 1.0
C      1  0.5278820000000  0.4935320000000  0.4237580000000 1.0
C      1  0.5155030000000  0.4286580000000  0.4490860000000 1.0
C      1  0.4313680000000  0.5575080000000  0.5089590000000 1.0
C      1  0.5181570000000  0.5364280000000  0.5280590000000 1.0
C      1  0.5769960000000  0.5418350000000  0.5622780000000 1.0
C      1  0.4741280000000  0.4891280000000  0.4057360000000 1.0
C      1  0.4645530000000  0.5434280000000  0.4641940000000 1.0
C      1  0.5550980000000  0.4571100000000  0.4400390000000 1.0
C      1  0.6065030000000  0.4754670000000  0.5131580000000 1.0
C      1  0.4773360000000  0.5725860000000  0.5297020000000 1.0
C      1  0.4070300000000  0.4475990000000  0.5103330000000 1.0
C      1  0.5402110000000  0.5628750000000  0.4855900000000 1.0
C      1  0.4939280000000  0.5437940000000  0.5774230000000 1.0
C      1  0.5230620000000  0.5683530000000  0.4223390000000 1.0
C      1  0.5923330000000  0.5585250000000  0.4906070000000 1.0
C      1  0.5780660000000  0.4532160000000  0.5770120000000 1.0
C      1  0.4766670000000  0.4366060000000  0.4208070000000 1.0
C      1  0.4725570000000  0.5584050000000  0.4918420000000 1.0
C      1  0.4279770000000  0.5090000000000  0.5081490000000 1.0
C      1  0.4710300000000  0.4644670000000  0.5432190000000 1.0
C      1  0.4398420000000  0.4877840000000  0.4862230000000 1.0
C      1  0.5965040000000  0.5144370000000  0.4542430000000 1.0
C      1  0.4711010000000  0.4293140000000  0.5759590000000 1.0
C      1  0.4223200000000  0.4339460000000  0.4680730000000 1.0
C      1  0.5169240000000  0.4137880000000  0.5178000000000 1.0
C      1  0.4226010000000  0.4870760000000  0.4615560000000 1.0
C      1  0.5660290000000  0.4211570000000  0.4775890000000 1.0
C      1  0.4489110000000  0.4405150000000  0.5404730000000 1.0
END
