TITL C-2778432-5617-382 0.00565543445963099 125000 -754.299151169356 0 0 130 (C1) n - 1
REM
REM in /home/nfs/bkarasulu/CARBON/AIRSS/Generating-Clusters/REBO/Only-C1/SD-CG/HFTN-CG
REM
REM
REM
REM
REM
REM ./C.cell (11c1c37f851c82e70ff6c80c92926a4b)
REM
REM compiler GCC version 9.2.1 20190827 (Red Hat 9.2.1-1)
REM options -cpp -mtune=generic -march=x86-64 -g -O0 -fpre-include=/usr/include/finclude/math-vector-fortran.h
REM seed -169774435 130622529 -286505527 12312734 -804748612 1971011620 666489098 -1303285102 1440140613 -1847308995 -1299183561 218401718 -937048873 6591361 790304594 -2111415724 1603000129 875522404 1723651292 -281499235 -1104314206 788910074 529584824 -138485783 1952211945 -777264938 -1487065221 248371295 -892248103 1112265820 501378000 270398350 -2029141705
REM
CELL 1.54180   50.00000   50.00000   50.00000   90.00000   90.00000   90.00000
LATT -1
SFAC C  
C      1  0.5888610000000  0.4670900000000  0.5417150000000 1.0
C      1  0.5161480000000  0.4843200000000  0.5361470000000 1.0
C      1  0.5854740000000  0.4687090000000  0.4947330000000 1.0
C      1  0.5484210000000  0.4734490000000  0.4354510000000 1.0
C      1  0.4708990000000  0.5668140000000  0.5522330000000 1.0
C      1  0.4960890000000  0.4454830000000  0.5597630000000 1.0
C      1  0.4819060000000  0.4458850000000  0.4423800000000 1.0
C      1  0.5757960000000  0.5162190000000  0.4944460000000 1.0
C      1  0.5238080000000  0.4607710000000  0.4209270000000 1.0
C      1  0.4876510000000  0.5289200000000  0.5846360000000 1.0
C      1  0.4812890000000  0.5182050000000  0.5448490000000 1.0
C      1  0.5648280000000  0.4759650000000  0.4717780000000 1.0
C      1  0.5788010000000  0.5353560000000  0.4698250000000 1.0
C      1  0.5342680000000  0.4911820000000  0.4725380000000 1.0
C      1  0.5344040000000  0.4607750000000  0.5309460000000 1.0
C      1  0.4528860000000  0.5653850000000  0.4700620000000 1.0
C      1  0.5697750000000  0.5046680000000  0.4566730000000 1.0
C      1  0.5460180000000  0.5745000000000  0.5121130000000 1.0
C      1  0.5366540000000  0.4193690000000  0.5132840000000 1.0
C      1  0.4208220000000  0.4442130000000  0.4635270000000 1.0
C      1  0.5441250000000  0.5168650000000  0.4896160000000 1.0
C      1  0.5295290000000  0.4397630000000  0.4453100000000 1.0
C      1  0.5350200000000  0.5742990000000  0.4389510000000 1.0
C      1  0.4768190000000  0.4851650000000  0.4624440000000 1.0
C      1  0.5102950000000  0.4967260000000  0.4964880000000 1.0
C      1  0.4333110000000  0.4968700000000  0.4349010000000 1.0
C      1  0.5242880000000  0.4529280000000  0.4766170000000 1.0
C      1  0.4880990000000  0.4333420000000  0.4718520000000 1.0
C      1  0.4672300000000  0.5487460000000  0.4285620000000 1.0
C      1  0.5958210000000  0.4941740000000  0.5046580000000 1.0
C      1  0.4913360000000  0.5262400000000  0.5156010000000 1.0
C      1  0.5357060000000  0.4733460000000  0.5827440000000 1.0
C      1  0.5078790000000  0.4219240000000  0.5433540000000 1.0
C      1  0.5035110000000  0.4671910000000  0.4577780000000 1.0
C      1  0.4951790000000  0.5081310000000  0.4266910000000 1.0
C      1  0.4220750000000  0.4712070000000  0.4444510000000 1.0
C      1  0.4907260000000  0.4027900000000  0.4967160000000 1.0
C      1  0.4874540000000  0.4745720000000  0.5439770000000 1.0
C      1  0.5216020000000  0.5533670000000  0.5228300000000 1.0
C      1  0.4869240000000  0.4772720000000  0.5101200000000 1.0
C      1  0.4312360000000  0.5623690000000  0.5158010000000 1.0
C      1  0.4564930000000  0.5180670000000  0.5759060000000 1.0
C      1  0.4924750000000  0.5659850000000  0.5154340000000 1.0
C      1  0.5130260000000  0.4353750000000  0.5023750000000 1.0
C      1  0.5813570000000  0.4438930000000  0.5178820000000 1.0
C      1  0.4598640000000  0.5717600000000  0.5204040000000 1.0
C      1  0.5141990000000  0.5172260000000  0.5919320000000 1.0
C      1  0.4125160000000  0.4448040000000  0.4948150000000 1.0
C      1  0.5601160000000  0.5426440000000  0.5570800000000 1.0
C      1  0.4444220000000  0.4409770000000  0.5522240000000 1.0
C      1  0.5437200000000  0.5686140000000  0.5439200000000 1.0
C      1  0.4274210000000  0.4359980000000  0.5167070000000 1.0
C      1  0.4388880000000  0.4899720000000  0.5674540000000 1.0
C      1  0.4092730000000  0.4735170000000  0.4763990000000 1.0
C      1  0.4894830000000  0.4797400000000  0.5939000000000 1.0
C      1  0.5392400000000  0.4224190000000  0.5419640000000 1.0
C      1  0.4948600000000  0.5115650000000  0.4705510000000 1.0
C      1  0.5472890000000  0.4214280000000  0.4682480000000 1.0
C      1  0.5226200000000  0.5549400000000  0.5631170000000 1.0
C      1  0.4775960000000  0.4563640000000  0.5814920000000 1.0
C      1  0.5009560000000  0.5460940000000  0.4895360000000 1.0
C      1  0.4165750000000  0.4483300000000  0.5424260000000 1.0
C      1  0.5105980000000  0.5598760000000  0.4286970000000 1.0
C      1  0.5996780000000  0.4954850000000  0.5336440000000 1.0
C      1  0.5605950000000  0.4499420000000  0.4550170000000 1.0
C      1  0.5626680000000  0.5062310000000  0.5232660000000 1.0
C      1  0.4519110000000  0.4597010000000  0.5719060000000 1.0
C      1  0.4802640000000  0.5948910000000  0.4756060000000 1.0
C      1  0.4676240000000  0.5705000000000  0.4466390000000 1.0
C      1  0.4545600000000  0.4272820000000  0.4516810000000 1.0
C      1  0.4650380000000  0.4935140000000  0.4341060000000 1.0
C      1  0.5470690000000  0.4561280000000  0.5014780000000 1.0
C      1  0.4886660000000  0.4126550000000  0.5244310000000 1.0
C      1  0.5552790000000  0.5015250000000  0.5622640000000 1.0
C      1  0.5129750000000  0.4804420000000  0.4040260000000 1.0
C      1  0.4127590000000  0.4976750000000  0.4954050000000 1.0
C      1  0.4211700000000  0.5248280000000  0.4786790000000 1.0
C      1  0.5496650000000  0.5067770000000  0.4293110000000 1.0
C      1  0.4829150000000  0.4460190000000  0.5033570000000 1.0
C      1  0.5259400000000  0.4546970000000  0.5609220000000 1.0
C      1  0.4845500000000  0.5958070000000  0.5404770000000 1.0
C      1  0.5609170000000  0.4772390000000  0.5247950000000 1.0
C      1  0.4366060000000  0.4853280000000  0.5144230000000 1.0
C      1  0.4919770000000  0.5550690000000  0.5718550000000 1.0
C      1  0.5411470000000  0.5355100000000  0.4454000000000 1.0
C      1  0.4655260000000  0.5234670000000  0.4604180000000 1.0
C      1  0.4931490000000  0.5387680000000  0.4233900000000 1.0
C      1  0.5608930000000  0.5393160000000  0.5231530000000 1.0
C      1  0.5481460000000  0.5607810000000  0.4666740000000 1.0
C      1  0.5215510000000  0.5312140000000  0.4707340000000 1.0
C      1  0.5387040000000  0.5296250000000  0.5791580000000 1.0
C      1  0.5631920000000  0.5541190000000  0.4935290000000 1.0
C      1  0.4151330000000  0.5176300000000  0.5229720000000 1.0
C      1  0.4507630000000  0.5042700000000  0.5389270000000 1.0
C      1  0.4297560000000  0.5380010000000  0.5339080000000 1.0
C      1  0.4818120000000  0.4845900000000  0.4057610000000 1.0
C      1  0.5237050000000  0.5233220000000  0.5132370000000 1.0
C      1  0.5268130000000  0.5872380000000  0.4694010000000 1.0
C      1  0.5278680000000  0.5058470000000  0.5489300000000 1.0
C      1  0.4461060000000  0.5284220000000  0.4348740000000 1.0
C      1  0.4436460000000  0.4492630000000  0.4313710000000 1.0
C      1  0.5814910000000  0.5177000000000  0.5493710000000 1.0
C      1  0.5630640000000  0.4265190000000  0.4965940000000 1.0
C      1  0.4782390000000  0.4937800000000  0.5675230000000 1.0
C      1  0.4683790000000  0.5916970000000  0.4966790000000 1.0
C      1  0.4494830000000  0.5083420000000  0.4844840000000 1.0
C      1  0.4629340000000  0.4124560000000  0.4812170000000 1.0
C      1  0.4169380000000  0.5228020000000  0.4485790000000 1.0
C      1  0.5267000000000  0.5951080000000  0.4989320000000 1.0
C      1  0.5298550000000  0.5025440000000  0.4033730000000 1.0
C      1  0.4684590000000  0.4583960000000  0.4157420000000 1.0
C      1  0.4589490000000  0.5214530000000  0.5121410000000 1.0
C      1  0.5161510000000  0.4889820000000  0.5963670000000 1.0
C      1  0.5029170000000  0.5967130000000  0.5161680000000 1.0
C      1  0.4983010000000  0.5826370000000  0.4513480000000 1.0
C      1  0.4217760000000  0.4773560000000  0.5422310000000 1.0
C      1  0.4487470000000  0.5411340000000  0.5553150000000 1.0
C      1  0.5107510000000  0.5271110000000  0.5508510000000 1.0
C      1  0.4499610000000  0.4441500000000  0.4811180000000 1.0
C      1  0.5608670000000  0.5435490000000  0.4186880000000 1.0
C      1  0.5632070000000  0.4684030000000  0.5637100000000 1.0
C      1  0.4591370000000  0.4755560000000  0.4902200000000 1.0
C      1  0.4118680000000  0.5819560000000  0.5220510000000 1.0
C      1  0.5158380000000  0.4138690000000  0.4762230000000 1.0
C      1  0.5633360000000  0.4386540000000  0.5468010000000 1.0
C      1  0.5801240000000  0.5312090000000  0.4375860000000 1.0
C      1  0.4685390000000  0.5430930000000  0.4876850000000 1.0
C      1  0.4604160000000  0.4309420000000  0.5239340000000 1.0
C      1  0.5169070000000  0.4930840000000  0.4433510000000 1.0
C      1  0.4299760000000  0.5535340000000  0.4866420000000 1.0
END
