TITL C-2778427-5640-124 -0.000278478716749578 125000 -227.760450975473 0 0 42 (C1) n - 1
REM
REM in /home/nfs/bkarasulu/CARBON/AIRSS/Generating-Clusters/REBO/Only-C1/SD-CG/HFTN-CG
REM
REM
REM
REM
REM
REM ./C.cell (11c1c37f851c82e70ff6c80c92926a4b)
REM
REM compiler GCC version 9.2.1 20190827 (Red Hat 9.2.1-1)
REM options -cpp -mtune=generic -march=x86-64 -g -O0 -fpre-include=/usr/include/finclude/math-vector-fortran.h
REM seed 1108796965 -393365309 756307655 -1050908702 1821494868 1380285209 -1151449804 1625600887 240400588 1257626791 285512922 -1170475692 -1850718027 -1320035681 -584268899 1649415160 -1966598371 -104317052 1142978011 -81018572 -788142451 1069023005 628260350 -1288431753 2145310764 -386881511 -1997730909 -309855811 1096082010 -1757864516 977138781 755307797 39745796
REM
CELL 1.54180   50.00000   50.00000   50.00000   90.00000   90.00000   90.00000
LATT -1
SFAC C  
C      1  0.5103920000000  0.4660430000000  0.4709400000000 1.0
C      1  0.5273900000000  0.5175310000000  0.5419630000000 1.0
C      1  0.4634820000000  0.5348130000000  0.5111400000000 1.0
C      1  0.4817250000000  0.5118890000000  0.4464720000000 1.0
C      1  0.5131100000000  0.4878570000000  0.5386920000000 1.0
C      1  0.5498130000000  0.4462930000000  0.5412400000000 1.0
C      1  0.5552060000000  0.5205780000000  0.4272660000000 1.0
C      1  0.4490810000000  0.5844240000000  0.4570720000000 1.0
C      1  0.5321960000000  0.5680350000000  0.5052310000000 1.0
C      1  0.5652130000000  0.5075100000000  0.4984950000000 1.0
C      1  0.5086600000000  0.4242310000000  0.5653410000000 1.0
C      1  0.5098950000000  0.4209930000000  0.4934180000000 1.0
C      1  0.4950780000000  0.5372850000000  0.5002260000000 1.0
C      1  0.4268450000000  0.5388090000000  0.5424690000000 1.0
C      1  0.4221410000000  0.5576600000000  0.5211490000000 1.0
C      1  0.4644900000000  0.4915950000000  0.5368070000000 1.0
C      1  0.5108090000000  0.4321330000000  0.5404450000000 1.0
C      1  0.5130790000000  0.4404890000000  0.5140940000000 1.0
C      1  0.5333850000000  0.5351540000000  0.4685210000000 1.0
C      1  0.4801880000000  0.4550470000000  0.4625600000000 1.0
C      1  0.4434600000000  0.5558110000000  0.5022630000000 1.0
C      1  0.5129540000000  0.4699910000000  0.5029330000000 1.0
C      1  0.5267480000000  0.4859900000000  0.4549720000000 1.0
C      1  0.4683030000000  0.5009750000000  0.4688770000000 1.0
C      1  0.5396020000000  0.5169030000000  0.4497800000000 1.0
C      1  0.5052340000000  0.5023150000000  0.4362430000000 1.0
C      1  0.5246120000000  0.5418400000000  0.4976060000000 1.0
C      1  0.5026330000000  0.5102560000000  0.5613270000000 1.0
C      1  0.5388600000000  0.5202200000000  0.5141420000000 1.0
C      1  0.5539530000000  0.4874570000000  0.4724610000000 1.0
C      1  0.4008850000000  0.5743340000000  0.5194860000000 1.0
C      1  0.4748370000000  0.5112390000000  0.5603820000000 1.0
C      1  0.4600490000000  0.4740250000000  0.4654300000000 1.0
C      1  0.4783140000000  0.5089590000000  0.4960590000000 1.0
C      1  0.4883890000000  0.4864360000000  0.5158250000000 1.0
C      1  0.4529790000000  0.5229840000000  0.5380580000000 1.0
C      1  0.5840760000000  0.4998300000000  0.4733180000000 1.0
C      1  0.4463420000000  0.5704810000000  0.4790930000000 1.0
C      1  0.5373090000000  0.4883240000000  0.5020160000000 1.0
C      1  0.5125250000000  0.3942680000000  0.4969790000000 1.0
C      1  0.5329360000000  0.4654000000000  0.5400690000000 1.0
C      1  0.5028210000000  0.4335940000000  0.4691410000000 1.0
END
