TITL C-2778429-3646-1311 -0.00475480745291788 125000 -986.640427266596 0 0 167 (C1) n - 1
REM
REM in /home/nfs/bkarasulu/CARBON/AIRSS/Generating-Clusters/REBO/Only-C1/SD-CG/HFTN-CG
REM
REM
REM
REM
REM
REM ./C.cell (11c1c37f851c82e70ff6c80c92926a4b)
REM
REM compiler GCC version 9.2.1 20190827 (Red Hat 9.2.1-1)
REM options -cpp -mtune=generic -march=x86-64 -g -O0 -fpre-include=/usr/include/finclude/math-vector-fortran.h
REM seed 2071472419 -756539170 -870481889 1685521007 -1180844079 549918578 -244217728 1349952648 481754000 1896240050 106594593 39981724 -512388134 1566803527 -867325003 -1137269472 1101784862 -928135310 184965856 1079754609 -1367233014 1041898380 2030956475 -119632571 -1136514828 1493759215 397307423 2023662268 1074212204 2128693798 -942589830 -1846242803 -19622110
REM
CELL 1.54180   50.00000   50.00000   50.00000   90.00000   90.00000   90.00000
LATT -1
SFAC C  
C      1  0.5154900000000  0.5604580000000  0.4146660000000 1.0
C      1  0.4261500000000  0.5070600000000  0.5664440000000 1.0
C      1  0.4405740000000  0.4783930000000  0.5160440000000 1.0
C      1  0.5106090000000  0.4490560000000  0.4176080000000 1.0
C      1  0.4551190000000  0.4623620000000  0.4596890000000 1.0
C      1  0.5597830000000  0.4582420000000  0.4396430000000 1.0
C      1  0.4581310000000  0.4357900000000  0.4223090000000 1.0
C      1  0.4626810000000  0.5962810000000  0.5212060000000 1.0
C      1  0.5690650000000  0.4531880000000  0.4996910000000 1.0
C      1  0.5623980000000  0.4298200000000  0.5178760000000 1.0
C      1  0.4854590000000  0.4777430000000  0.5365800000000 1.0
C      1  0.5077690000000  0.4577700000000  0.5202160000000 1.0
C      1  0.4766370000000  0.5605620000000  0.5107240000000 1.0
C      1  0.5031250000000  0.5465550000000  0.5664600000000 1.0
C      1  0.5365010000000  0.5057410000000  0.5217830000000 1.0
C      1  0.5667060000000  0.5593930000000  0.4525290000000 1.0
C      1  0.4291310000000  0.5611720000000  0.4287320000000 1.0
C      1  0.5451520000000  0.5355610000000  0.4225690000000 1.0
C      1  0.3982270000000  0.5363960000000  0.4564890000000 1.0
C      1  0.4651230000000  0.5042410000000  0.5436980000000 1.0
C      1  0.4198580000000  0.5120930000000  0.4465530000000 1.0
C      1  0.5469290000000  0.5387340000000  0.5417060000000 1.0
C      1  0.5304010000000  0.5890970000000  0.4570280000000 1.0
C      1  0.5355730000000  0.4596470000000  0.6007120000000 1.0
C      1  0.4653890000000  0.5203050000000  0.4733810000000 1.0
C      1  0.4482560000000  0.5773980000000  0.4697000000000 1.0
C      1  0.4755650000000  0.5373610000000  0.3897180000000 1.0
C      1  0.5088930000000  0.4486230000000  0.5504630000000 1.0
C      1  0.4191080000000  0.5296390000000  0.4820410000000 1.0
C      1  0.4446710000000  0.5929390000000  0.5691860000000 1.0
C      1  0.4625250000000  0.5344840000000  0.5882350000000 1.0
C      1  0.4958930000000  0.3850650000000  0.4857150000000 1.0
C      1  0.5155740000000  0.5206260000000  0.4146370000000 1.0
C      1  0.4883430000000  0.5166490000000  0.5136140000000 1.0
C      1  0.4251330000000  0.5571980000000  0.4949220000000 1.0
C      1  0.5380960000000  0.5187930000000  0.5779190000000 1.0
C      1  0.6097090000000  0.4781360000000  0.5235160000000 1.0
C      1  0.5632260000000  0.5841860000000  0.5288950000000 1.0
C      1  0.5097870000000  0.4977530000000  0.3929880000000 1.0
C      1  0.5179020000000  0.5407260000000  0.5948390000000 1.0
C      1  0.4461450000000  0.5508110000000  0.4009850000000 1.0
C      1  0.4108900000000  0.4653370000000  0.4929440000000 1.0
C      1  0.4691560000000  0.5683840000000  0.4175760000000 1.0
C      1  0.4856580000000  0.4482070000000  0.5827430000000 1.0
C      1  0.4866060000000  0.5053100000000  0.4244810000000 1.0
C      1  0.4784560000000  0.5275320000000  0.6108230000000 1.0
C      1  0.4324130000000  0.4869670000000  0.4074070000000 1.0
C      1  0.4563610000000  0.3877790000000  0.4586160000000 1.0
C      1  0.5432330000000  0.4575110000000  0.4810150000000 1.0
C      1  0.4673080000000  0.4748340000000  0.5721020000000 1.0
C      1  0.5020940000000  0.4335620000000  0.4534360000000 1.0
C      1  0.4397290000000  0.4790040000000  0.4828040000000 1.0
C      1  0.5246080000000  0.4754540000000  0.4041180000000 1.0
C      1  0.4209900000000  0.5365340000000  0.5210680000000 1.0
C      1  0.5653910000000  0.5163560000000  0.5488240000000 1.0
C      1  0.5271260000000  0.4064830000000  0.5433900000000 1.0
C      1  0.5179330000000  0.4369140000000  0.5821660000000 1.0
C      1  0.4215690000000  0.4597280000000  0.5617580000000 1.0
C      1  0.4988900000000  0.4012760000000  0.5424750000000 1.0
C      1  0.5316210000000  0.4838060000000  0.4720440000000 1.0
C      1  0.5423630000000  0.5418420000000  0.4619380000000 1.0
C      1  0.4797980000000  0.3726190000000  0.4653270000000 1.0
C      1  0.5040230000000  0.4661910000000  0.6050440000000 1.0
C      1  0.5259480000000  0.5615040000000  0.5037480000000 1.0
C      1  0.6134790000000  0.5222230000000  0.5616880000000 1.0
C      1  0.5431560000000  0.5369600000000  0.5100150000000 1.0
C      1  0.5373830000000  0.4173010000000  0.5674170000000 1.0
C      1  0.4501850000000  0.5745130000000  0.5011220000000 1.0
C      1  0.5624250000000  0.4822380000000  0.5491050000000 1.0
C      1  0.5777390000000  0.4327410000000  0.5422510000000 1.0
C      1  0.6178470000000  0.4976930000000  0.5501320000000 1.0
C      1  0.4254570000000  0.4153930000000  0.4831440000000 1.0
C      1  0.4461220000000  0.5785270000000  0.5450720000000 1.0
C      1  0.5003790000000  0.5916930000000  0.4674890000000 1.0
C      1  0.4060350000000  0.5064490000000  0.5426050000000 1.0
C      1  0.3968690000000  0.5143320000000  0.5108620000000 1.0
C      1  0.5486110000000  0.5209730000000  0.6102520000000 1.0
C      1  0.5354360000000  0.4202190000000  0.5191510000000 1.0
C      1  0.4426490000000  0.5360410000000  0.4446350000000 1.0
C      1  0.4503150000000  0.4262200000000  0.5163880000000 1.0
C      1  0.5420400000000  0.5684080000000  0.4323360000000 1.0
C      1  0.4776360000000  0.6017040000000  0.4910090000000 1.0
C      1  0.4846610000000  0.4580970000000  0.4664160000000 1.0
C      1  0.4905360000000  0.3919630000000  0.5168670000000 1.0
C      1  0.4360880000000  0.4810840000000  0.5723340000000 1.0
C      1  0.4755740000000  0.4157150000000  0.5009620000000 1.0
C      1  0.5750320000000  0.4927530000000  0.5793520000000 1.0
C      1  0.4324800000000  0.4313560000000  0.4365290000000 1.0
C      1  0.5641760000000  0.5074750000000  0.4184510000000 1.0
C      1  0.5055210000000  0.4963620000000  0.4447210000000 1.0
C      1  0.5013960000000  0.5140570000000  0.6196080000000 1.0
C      1  0.5893730000000  0.5248620000000  0.5006710000000 1.0
C      1  0.4761640000000  0.5381000000000  0.5260200000000 1.0
C      1  0.5002970000000  0.5154530000000  0.5797840000000 1.0
C      1  0.5195800000000  0.4683270000000  0.4441840000000 1.0
C      1  0.5601350000000  0.5670000000000  0.5519580000000 1.0
C      1  0.5194120000000  0.4942570000000  0.6121030000000 1.0
C      1  0.4685070000000  0.5935520000000  0.4275930000000 1.0
C      1  0.4290080000000  0.4072490000000  0.4515400000000 1.0
C      1  0.4929630000000  0.5598260000000  0.4651630000000 1.0
C      1  0.5819210000000  0.5066250000000  0.5246610000000 1.0
C      1  0.5497580000000  0.4816360000000  0.4170280000000 1.0
C      1  0.6012230000000  0.4949450000000  0.4951620000000 1.0
C      1  0.4686370000000  0.5984270000000  0.4581730000000 1.0
C      1  0.5086580000000  0.4122070000000  0.4762120000000 1.0
C      1  0.5507540000000  0.5097330000000  0.4698030000000 1.0
C      1  0.4585600000000  0.4355400000000  0.5418080000000 1.0
C      1  0.5285440000000  0.5023900000000  0.5548410000000 1.0
C      1  0.5747780000000  0.5814210000000  0.4686660000000 1.0
C      1  0.4986270000000  0.5541230000000  0.3945970000000 1.0
C      1  0.4532830000000  0.4053070000000  0.4826390000000 1.0
C      1  0.5870290000000  0.5049200000000  0.4359940000000 1.0
C      1  0.5526420000000  0.4606320000000  0.5722300000000 1.0
C      1  0.4665430000000  0.4872720000000  0.4053050000000 1.0
C      1  0.5981510000000  0.4525400000000  0.5434100000000 1.0
C      1  0.4841640000000  0.4266430000000  0.5562870000000 1.0
C      1  0.4852420000000  0.5073870000000  0.4883550000000 1.0
C      1  0.5423300000000  0.5855790000000  0.5051550000000 1.0
C      1  0.5868880000000  0.4752260000000  0.4502540000000 1.0
C      1  0.4186420000000  0.5633670000000  0.4612500000000 1.0
C      1  0.4985860000000  0.4849150000000  0.4738200000000 1.0
C      1  0.4187050000000  0.4570990000000  0.5310980000000 1.0
C      1  0.5504510000000  0.5939160000000  0.4782220000000 1.0
C      1  0.5796080000000  0.5713290000000  0.5069670000000 1.0
C      1  0.5387870000000  0.4070050000000  0.4707870000000 1.0
C      1  0.4814610000000  0.5090020000000  0.3852420000000 1.0
C      1  0.4941330000000  0.5973830000000  0.5275900000000 1.0
C      1  0.5813870000000  0.5015450000000  0.4692710000000 1.0
C      1  0.4521470000000  0.4664260000000  0.4260070000000 1.0
C      1  0.5215240000000  0.5582540000000  0.5471020000000 1.0
C      1  0.3932040000000  0.5095520000000  0.4773220000000 1.0
C      1  0.4143010000000  0.4848370000000  0.4332900000000 1.0
C      1  0.5840740000000  0.5251850000000  0.5730760000000 1.0
C      1  0.5516910000000  0.4895380000000  0.6013710000000 1.0
C      1  0.4376370000000  0.5331120000000  0.5697660000000 1.0
C      1  0.4009120000000  0.4822540000000  0.5191940000000 1.0
C      1  0.4824770000000  0.5446710000000  0.4298410000000 1.0
C      1  0.5793660000000  0.4493990000000  0.4671980000000 1.0
C      1  0.4219690000000  0.4368810000000  0.5043180000000 1.0
C      1  0.5761250000000  0.4748380000000  0.5188170000000 1.0
C      1  0.5548600000000  0.4280070000000  0.4722850000000 1.0
C      1  0.4609230000000  0.5219800000000  0.4242150000000 1.0
C      1  0.5226570000000  0.4727010000000  0.5652790000000 1.0
C      1  0.5713470000000  0.5452760000000  0.4988440000000 1.0
C      1  0.5610570000000  0.4326500000000  0.5649750000000 1.0
C      1  0.4373360000000  0.5073680000000  0.5280800000000 1.0
C      1  0.5140240000000  0.5815940000000  0.5361800000000 1.0
C      1  0.5687040000000  0.5528630000000  0.5775080000000 1.0
C      1  0.4564320000000  0.4653010000000  0.5418680000000 1.0
C      1  0.5500820000000  0.5504560000000  0.5988800000000 1.0
C      1  0.4996040000000  0.5629760000000  0.4951550000000 1.0
C      1  0.4640830000000  0.5500320000000  0.4647140000000 1.0
C      1  0.5066510000000  0.4299020000000  0.5037360000000 1.0
C      1  0.4350870000000  0.5514570000000  0.5465140000000 1.0
C      1  0.5052820000000  0.5014000000000  0.5318300000000 1.0
C      1  0.4413150000000  0.5172060000000  0.3990700000000 1.0
C      1  0.5126400000000  0.5456360000000  0.4457020000000 1.0
C      1  0.4223190000000  0.4581330000000  0.4510490000000 1.0
C      1  0.5334500000000  0.4388270000000  0.4403930000000 1.0
C      1  0.4960460000000  0.4866660000000  0.5797070000000 1.0
C      1  0.5996160000000  0.4765700000000  0.5620880000000 1.0
C      1  0.4392800000000  0.5073060000000  0.4731640000000 1.0
C      1  0.4753500000000  0.5333210000000  0.5570180000000 1.0
C      1  0.5291270000000  0.4767990000000  0.5113060000000 1.0
C      1  0.4854540000000  0.4299800000000  0.4240600000000 1.0
C      1  0.4021460000000  0.4816870000000  0.4654230000000 1.0
C      1  0.5325730000000  0.5105420000000  0.4423410000000 1.0
END
