TITL C-2778429-3646-846 0.00118262989421283 125000 -571.791258100082 0 0 98 (C1) n - 1
REM
REM in /home/nfs/bkarasulu/CARBON/AIRSS/Generating-Clusters/REBO/Only-C1/SD-CG/HFTN-CG
REM
REM
REM
REM
REM
REM ./C.cell (11c1c37f851c82e70ff6c80c92926a4b)
REM
REM compiler GCC version 9.2.1 20190827 (Red Hat 9.2.1-1)
REM options -cpp -mtune=generic -march=x86-64 -g -O0 -fpre-include=/usr/include/finclude/math-vector-fortran.h
REM seed 1040289168 -8481287 1571015890 2081744382 -121678271 -487176433 -813016060 1832275885 1244921569 -1479174016 9671872 -1518327002 1556667929 2097298298 1889706167 -474118299 1749023708 -132352020 1214149628 1850935096 1342153237 915046537 773932057 1136638351 -294250538 -679800681 1278451356 -445725749 523859544 -1740499802 131257084 1254178535 -597270163
REM
CELL 1.54180   50.00000   50.00000   50.00000   90.00000   90.00000   90.00000
LATT -1
SFAC C  
C      1  0.4213080000000  0.4848100000000  0.4703090000000 1.0
C      1  0.5691400000000  0.4709370000000  0.5194510000000 1.0
C      1  0.5779410000000  0.5298560000000  0.5149050000000 1.0
C      1  0.4303380000000  0.4654210000000  0.4967910000000 1.0
C      1  0.5361930000000  0.4310500000000  0.5087320000000 1.0
C      1  0.5871760000000  0.4919140000000  0.4573970000000 1.0
C      1  0.4893710000000  0.5056140000000  0.5321970000000 1.0
C      1  0.4775850000000  0.4963580000000  0.5802390000000 1.0
C      1  0.4614330000000  0.5055350000000  0.4812750000000 1.0
C      1  0.4530080000000  0.4862160000000  0.5039040000000 1.0
C      1  0.4983640000000  0.4308020000000  0.5526300000000 1.0
C      1  0.5115420000000  0.4314200000000  0.4620830000000 1.0
C      1  0.4751100000000  0.5690000000000  0.4865150000000 1.0
C      1  0.5402970000000  0.4820080000000  0.5161270000000 1.0
C      1  0.5344500000000  0.4403210000000  0.4760120000000 1.0
C      1  0.4658220000000  0.4896260000000  0.4573670000000 1.0
C      1  0.5276420000000  0.4429770000000  0.5761750000000 1.0
C      1  0.4824690000000  0.5132310000000  0.5033560000000 1.0
C      1  0.5079420000000  0.5783540000000  0.4851300000000 1.0
C      1  0.4496590000000  0.5695830000000  0.5055690000000 1.0
C      1  0.4205500000000  0.4543210000000  0.5255620000000 1.0
C      1  0.5020710000000  0.4431070000000  0.4379920000000 1.0
C      1  0.5053630000000  0.4822340000000  0.4810350000000 1.0
C      1  0.4444840000000  0.4358990000000  0.4950530000000 1.0
C      1  0.4426480000000  0.5302350000000  0.4759640000000 1.0
C      1  0.4171870000000  0.5202750000000  0.5172770000000 1.0
C      1  0.4495240000000  0.5399030000000  0.4453520000000 1.0
C      1  0.4886500000000  0.4168270000000  0.5306920000000 1.0
C      1  0.4985730000000  0.5705180000000  0.4542400000000 1.0
C      1  0.4630300000000  0.5705340000000  0.5523680000000 1.0
C      1  0.4105160000000  0.4997710000000  0.4990420000000 1.0
C      1  0.4409320000000  0.4432960000000  0.5409190000000 1.0
C      1  0.5135290000000  0.4984990000000  0.4211300000000 1.0
C      1  0.4727730000000  0.5435060000000  0.5642450000000 1.0
C      1  0.5424170000000  0.4936970000000  0.5661150000000 1.0
C      1  0.5466080000000  0.5108020000000  0.5913590000000 1.0
C      1  0.4744820000000  0.4637690000000  0.5816780000000 1.0
C      1  0.5673990000000  0.4426900000000  0.5152740000000 1.0
C      1  0.4537750000000  0.4584050000000  0.5600780000000 1.0
C      1  0.5888800000000  0.4843950000000  0.4301800000000 1.0
C      1  0.4898740000000  0.4682050000000  0.4320010000000 1.0
C      1  0.5094310000000  0.5011830000000  0.5802790000000 1.0
C      1  0.5423130000000  0.5044140000000  0.5386970000000 1.0
C      1  0.4320820000000  0.5104310000000  0.4523410000000 1.0
C      1  0.4535460000000  0.5037750000000  0.4289660000000 1.0
C      1  0.4824830000000  0.4734460000000  0.4968710000000 1.0
C      1  0.5452310000000  0.4589380000000  0.4330630000000 1.0
C      1  0.4465820000000  0.5793810000000  0.5309910000000 1.0
C      1  0.5067340000000  0.4154170000000  0.5081720000000 1.0
C      1  0.4909200000000  0.4229190000000  0.4812130000000 1.0
C      1  0.5852390000000  0.5324390000000  0.4849100000000 1.0
C      1  0.5231660000000  0.5177490000000  0.6039120000000 1.0
C      1  0.5366460000000  0.4427430000000  0.5406840000000 1.0
C      1  0.5094410000000  0.4604980000000  0.5454180000000 1.0
C      1  0.4288030000000  0.5173070000000  0.5491630000000 1.0
C      1  0.5551910000000  0.5729640000000  0.5065700000000 1.0
C      1  0.5463330000000  0.4646770000000  0.5649540000000 1.0
C      1  0.4925410000000  0.5433290000000  0.4966450000000 1.0
C      1  0.5348230000000  0.4824530000000  0.4129410000000 1.0
C      1  0.5477370000000  0.4597370000000  0.4613760000000 1.0
C      1  0.5280980000000  0.5608120000000  0.4413390000000 1.0
C      1  0.5541750000000  0.5179460000000  0.4818190000000 1.0
C      1  0.4626510000000  0.4732940000000  0.4215920000000 1.0
C      1  0.5060410000000  0.4869110000000  0.5516640000000 1.0
C      1  0.5433630000000  0.5338640000000  0.4536520000000 1.0
C      1  0.6020160000000  0.5115650000000  0.4695110000000 1.0
C      1  0.4340770000000  0.5427530000000  0.5009390000000 1.0
C      1  0.5318900000000  0.4829520000000  0.4898180000000 1.0
C      1  0.4970940000000  0.4462540000000  0.5806270000000 1.0
C      1  0.5592830000000  0.4871770000000  0.4710470000000 1.0
C      1  0.5002080000000  0.5219910000000  0.4123920000000 1.0
C      1  0.4818820000000  0.4460410000000  0.5045440000000 1.0
C      1  0.4664310000000  0.4870400000000  0.5504110000000 1.0
C      1  0.5010550000000  0.5331020000000  0.5482300000000 1.0
C      1  0.4534170000000  0.5333710000000  0.5249260000000 1.0
C      1  0.5121680000000  0.5231270000000  0.4552960000000 1.0
C      1  0.4499450000000  0.5008300000000  0.5289940000000 1.0
C      1  0.4614200000000  0.4568220000000  0.4575590000000 1.0
C      1  0.5612260000000  0.5508220000000  0.5242020000000 1.0
C      1  0.4796940000000  0.5463570000000  0.5252580000000 1.0
C      1  0.4559530000000  0.5204150000000  0.5694600000000 1.0
C      1  0.5383990000000  0.5635570000000  0.4798000000000 1.0
C      1  0.5666500000000  0.4752830000000  0.4155220000000 1.0
C      1  0.4931590000000  0.5423430000000  0.4385030000000 1.0
C      1  0.5365790000000  0.5227370000000  0.5102280000000 1.0
C      1  0.5035060000000  0.4921570000000  0.4517440000000 1.0
C      1  0.5316950000000  0.5423900000000  0.5379380000000 1.0
C      1  0.4617980000000  0.4335600000000  0.4725630000000 1.0
C      1  0.4595870000000  0.4275880000000  0.5226100000000 1.0
C      1  0.4924610000000  0.5716750000000  0.5433680000000 1.0
C      1  0.4652330000000  0.5651440000000  0.4555870000000 1.0
C      1  0.5271420000000  0.5841210000000  0.5118050000000 1.0
C      1  0.5189630000000  0.5721370000000  0.5362780000000 1.0
C      1  0.4684380000000  0.5291660000000  0.4200740000000 1.0
C      1  0.4358170000000  0.4708820000000  0.4427150000000 1.0
C      1  0.5195320000000  0.5375170000000  0.4852610000000 1.0
C      1  0.5674120000000  0.5525120000000  0.4676680000000 1.0
C      1  0.5722430000000  0.5040640000000  0.5241680000000 1.0
END
