TITL C-2778436-5916-1102 0.00112507732025966 125000 -449.925213625997 0 0 77 (C1) n - 1
REM
REM in /home/nfs/bkarasulu/CARBON/AIRSS/Generating-Clusters/REBO/Only-C1/SD-CG/HFTN-CG
REM
REM
REM
REM
REM
REM ./C.cell (11c1c37f851c82e70ff6c80c92926a4b)
REM
REM compiler GCC version 9.2.1 20190827 (Red Hat 9.2.1-1)
REM options -cpp -mtune=generic -march=x86-64 -g -O0 -fpre-include=/usr/include/finclude/math-vector-fortran.h
REM seed -799327534 2096555430 1161615619 121106129 -866944098 -1745771153 2109970042 1948252134 1121469319 -2063017647 2088541797 -1830280595 -568471354 585668389 2021926132 61108238 469525189 184574234 -1941790174 -133152292 1475042918 1752320002 -483787509 -939885716 -917350084 -936525680 1466888879 -127243290 -1395575297 1688700009 -679840181 244056220 -2057700108
REM
CELL 1.54180   50.00000   50.00000   50.00000   90.00000   90.00000   90.00000
LATT -1
SFAC C  
C      1  0.4527090000000  0.4418980000000  0.5056730000000 1.0
C      1  0.4644250000000  0.5082880000000  0.5780530000000 1.0
C      1  0.5044750000000  0.5785670000000  0.5578940000000 1.0
C      1  0.5478080000000  0.5591580000000  0.5566390000000 1.0
C      1  0.4701510000000  0.4243240000000  0.4657700000000 1.0
C      1  0.4372790000000  0.5451900000000  0.5162390000000 1.0
C      1  0.5217400000000  0.5575310000000  0.5679980000000 1.0
C      1  0.4357100000000  0.4522150000000  0.4823240000000 1.0
C      1  0.4587660000000  0.5024240000000  0.4317380000000 1.0
C      1  0.5052520000000  0.5631050000000  0.4717940000000 1.0
C      1  0.5417340000000  0.4178360000000  0.5166810000000 1.0
C      1  0.5081760000000  0.4813940000000  0.4833520000000 1.0
C      1  0.4944950000000  0.4128420000000  0.4555650000000 1.0
C      1  0.5176870000000  0.4797640000000  0.5611590000000 1.0
C      1  0.5246580000000  0.5383390000000  0.4698260000000 1.0
C      1  0.4490410000000  0.5554490000000  0.4724980000000 1.0
C      1  0.5464650000000  0.5184750000000  0.4877550000000 1.0
C      1  0.5086580000000  0.5324430000000  0.5746120000000 1.0
C      1  0.5014090000000  0.5744260000000  0.4979140000000 1.0
C      1  0.5193200000000  0.5064750000000  0.5688150000000 1.0
C      1  0.6008230000000  0.5270340000000  0.4873190000000 1.0
C      1  0.4675620000000  0.4648950000000  0.5248490000000 1.0
C      1  0.4766860000000  0.5747590000000  0.5135770000000 1.0
C      1  0.4758340000000  0.5055290000000  0.4732270000000 1.0
C      1  0.4806980000000  0.4613920000000  0.5912800000000 1.0
C      1  0.5038490000000  0.3947640000000  0.4764040000000 1.0
C      1  0.5078360000000  0.5133210000000  0.4793300000000 1.0
C      1  0.5479640000000  0.4850310000000  0.4822070000000 1.0
C      1  0.4930170000000  0.4574400000000  0.4266180000000 1.0
C      1  0.5673030000000  0.4801340000000  0.5274250000000 1.0
C      1  0.5421320000000  0.5415330000000  0.4446740000000 1.0
C      1  0.4789330000000  0.4719880000000  0.4945270000000 1.0
C      1  0.5106370000000  0.5385920000000  0.5127810000000 1.0
C      1  0.5002530000000  0.4554090000000  0.5724490000000 1.0
C      1  0.4902710000000  0.4901270000000  0.5281880000000 1.0
C      1  0.4511100000000  0.4886440000000  0.4861680000000 1.0
C      1  0.4770090000000  0.4742780000000  0.4595980000000 1.0
C      1  0.4680750000000  0.4191190000000  0.4956000000000 1.0
C      1  0.5362890000000  0.4390020000000  0.4643590000000 1.0
C      1  0.4393090000000  0.5058120000000  0.4521110000000 1.0
C      1  0.5322800000000  0.4589210000000  0.4883650000000 1.0
C      1  0.5557060000000  0.4981330000000  0.4335940000000 1.0
C      1  0.6185170000000  0.4917620000000  0.5332380000000 1.0
C      1  0.5126080000000  0.5170680000000  0.4147320000000 1.0
C      1  0.4836140000000  0.5281060000000  0.4975590000000 1.0
C      1  0.4682850000000  0.4855430000000  0.5940330000000 1.0
C      1  0.4888070000000  0.3989840000000  0.5002150000000 1.0
C      1  0.4523850000000  0.5331490000000  0.5388500000000 1.0
C      1  0.4795200000000  0.5338090000000  0.5765870000000 1.0
C      1  0.4352180000000  0.4981260000000  0.5093220000000 1.0
C      1  0.5404800000000  0.4740450000000  0.5243810000000 1.0
C      1  0.4763200000000  0.4776960000000  0.4175780000000 1.0
C      1  0.4529180000000  0.5640580000000  0.5005280000000 1.0
C      1  0.4272770000000  0.5240580000000  0.4992790000000 1.0
C      1  0.5931150000000  0.4859950000000  0.5303550000000 1.0
C      1  0.5286210000000  0.5174200000000  0.5132400000000 1.0
C      1  0.4356610000000  0.5288470000000  0.4702580000000 1.0
C      1  0.4668110000000  0.5517600000000  0.5569540000000 1.0
C      1  0.5242780000000  0.5653740000000  0.5153430000000 1.0
C      1  0.5087650000000  0.4659570000000  0.4544410000000 1.0
C      1  0.4301080000000  0.4785050000000  0.4640760000000 1.0
C      1  0.5684760000000  0.5459010000000  0.4523090000000 1.0
C      1  0.5770280000000  0.5244430000000  0.4737920000000 1.0
C      1  0.5162930000000  0.4504110000000  0.5451580000000 1.0
C      1  0.5657130000000  0.4968050000000  0.4604990000000 1.0
C      1  0.4497440000000  0.5053400000000  0.5533700000000 1.0
C      1  0.5380590000000  0.5197790000000  0.4263800000000 1.0
C      1  0.5117440000000  0.4342530000000  0.4433340000000 1.0
C      1  0.4864810000000  0.5082280000000  0.4154190000000 1.0
C      1  0.4756710000000  0.5153970000000  0.5247260000000 1.0
C      1  0.5193000000000  0.4925320000000  0.5233140000000 1.0
C      1  0.4573960000000  0.4495920000000  0.4600480000000 1.0
C      1  0.4451120000000  0.4865030000000  0.5332390000000 1.0
C      1  0.4806080000000  0.5726040000000  0.5433550000000 1.0
C      1  0.5482050000000  0.5670020000000  0.5300720000000 1.0
C      1  0.4913140000000  0.5711240000000  0.4493020000000 1.0
C      1  0.5320160000000  0.4438230000000  0.5177620000000 1.0
END
