TITL C-2778430-5657-1442 0.00074745976239134 125000 -278.552264284812 0 0 50 (C1) n - 1
REM
REM in /home/nfs/bkarasulu/CARBON/AIRSS/Generating-Clusters/REBO/Only-C1/SD-CG/HFTN-CG
REM
REM
REM
REM
REM
REM ./C.cell (11c1c37f851c82e70ff6c80c92926a4b)
REM
REM compiler GCC version 9.2.1 20190827 (Red Hat 9.2.1-1)
REM options -cpp -mtune=generic -march=x86-64 -g -O0 -fpre-include=/usr/include/finclude/math-vector-fortran.h
REM seed 1073652433 -1441641049 -104231712 -72066649 -107387448 1208294083 1165320453 -555807885 -1102705624 437812858 -924150896 -1813274851 1865471582 -1094113909 -2034595571 971853590 -113953990 -1939759056 -54433218 -1571098613 -303092469 -1321601078 1676424247 873231680 -296702408 431059718 -898924723 358647311 -1927959004 225858729 -912282990 -685733442 -1872259090
REM
CELL 1.54180   50.00000   50.00000   50.00000   90.00000   90.00000   90.00000
LATT -1
SFAC C  
C      1  0.4046730000000  0.5029260000000  0.4599180000000 1.0
C      1  0.5447000000000  0.4870970000000  0.4519890000000 1.0
C      1  0.5147730000000  0.4209170000000  0.5480110000000 1.0
C      1  0.5318080000000  0.5387520000000  0.5653720000000 1.0
C      1  0.4474630000000  0.4811360000000  0.4642250000000 1.0
C      1  0.4997600000000  0.5293110000000  0.5686920000000 1.0
C      1  0.4726480000000  0.5432560000000  0.5173850000000 1.0
C      1  0.4711370000000  0.5198520000000  0.5597510000000 1.0
C      1  0.4826140000000  0.5379100000000  0.4671040000000 1.0
C      1  0.5194510000000  0.5011590000000  0.5653900000000 1.0
C      1  0.4398070000000  0.4512980000000  0.5468690000000 1.0
C      1  0.5636030000000  0.4372650000000  0.5253310000000 1.0
C      1  0.4633710000000  0.4731330000000  0.5000260000000 1.0
C      1  0.5575750000000  0.4747210000000  0.4752980000000 1.0
C      1  0.4257390000000  0.5372670000000  0.5074760000000 1.0
C      1  0.4391810000000  0.5210060000000  0.4883090000000 1.0
C      1  0.5456650000000  0.5445280000000  0.4417700000000 1.0
C      1  0.5462300000000  0.5143440000000  0.5538690000000 1.0
C      1  0.5252040000000  0.5311120000000  0.5119030000000 1.0
C      1  0.4659200000000  0.4499640000000  0.5251100000000 1.0
C      1  0.4299650000000  0.5022220000000  0.4699080000000 1.0
C      1  0.4573180000000  0.5041200000000  0.5468560000000 1.0
C      1  0.4933070000000  0.5681830000000  0.5164590000000 1.0
C      1  0.4497700000000  0.4795720000000  0.5305930000000 1.0
C      1  0.5144670000000  0.4351600000000  0.5243080000000 1.0
C      1  0.5455440000000  0.5689940000000  0.3949380000000 1.0
C      1  0.4913030000000  0.4414740000000  0.5103460000000 1.0
C      1  0.5138210000000  0.4574140000000  0.4708680000000 1.0
C      1  0.5456610000000  0.5109400000000  0.5235800000000 1.0
C      1  0.4902750000000  0.4487690000000  0.4833210000000 1.0
C      1  0.5457290000000  0.5316570000000  0.4664070000000 1.0
C      1  0.5372980000000  0.4794800000000  0.5134600000000 1.0
C      1  0.5157070000000  0.4839500000000  0.4569760000000 1.0
C      1  0.5024130000000  0.5019000000000  0.5400420000000 1.0
C      1  0.5631420000000  0.4962970000000  0.4986370000000 1.0
C      1  0.5456040000000  0.5568590000000  0.4181660000000 1.0
C      1  0.4928520000000  0.5494160000000  0.4467560000000 1.0
C      1  0.5689600000000  0.5201650000000  0.4785170000000 1.0
C      1  0.5044870000000  0.5049650000000  0.4730980000000 1.0
C      1  0.4432830000000  0.5495770000000  0.5251140000000 1.0
C      1  0.5180210000000  0.5623190000000  0.5165910000000 1.0
C      1  0.4976240000000  0.5317550000000  0.5322830000000 1.0
C      1  0.5399540000000  0.4533200000000  0.4834620000000 1.0
C      1  0.5401110000000  0.4477600000000  0.5144540000000 1.0
C      1  0.5069940000000  0.4878450000000  0.5163800000000 1.0
C      1  0.4606520000000  0.4536050000000  0.4727400000000 1.0
C      1  0.4844270000000  0.4947000000000  0.4954650000000 1.0
C      1  0.5219650000000  0.5255910000000  0.4814960000000 1.0
C      1  0.4702340000000  0.5239980000000  0.4917080000000 1.0
C      1  0.4477930000000  0.4310390000000  0.4632710000000 1.0
END
