TITL C-2778424-3986-892 0.00214951034861569 125000 -675.088471489489 0 0 115 (C1) n - 1
REM
REM in /home/nfs/bkarasulu/CARBON/AIRSS/Generating-Clusters/REBO/Only-C1/SD-CG/HFTN-CG
REM
REM
REM
REM
REM
REM ./C.cell (11c1c37f851c82e70ff6c80c92926a4b)
REM
REM compiler GCC version 9.2.1 20190827 (Red Hat 9.2.1-1)
REM options -cpp -mtune=generic -march=x86-64 -g -O0 -fpre-include=/usr/include/finclude/math-vector-fortran.h
REM seed 1748628883 -1431039498 582345092 1298535228 1413795664 -273214931 -1019524047 446215740 1867014792 -80276257 775738761 -1995026389 -1590363798 947039254 -1531526305 1936558437 -1840834865 -1471794426 507490017 254225827 1174706162 -733174678 460843835 -1104078510 -1008006951 -1187144123 -1405665158 -65548617 -445306149 873524007 -906032378 -1623426189 1826932198
REM
CELL 1.54180   50.00000   50.00000   50.00000   90.00000   90.00000   90.00000
LATT -1
SFAC C  
C      1  0.5474080000000  0.4586170000000  0.4485510000000 1.0
C      1  0.5303370000000  0.4740900000000  0.4277150000000 1.0
C      1  0.4996420000000  0.5661350000000  0.4811710000000 1.0
C      1  0.5779440000000  0.4506380000000  0.4730230000000 1.0
C      1  0.5560210000000  0.5418010000000  0.4407010000000 1.0
C      1  0.5547530000000  0.4917500000000  0.5526250000000 1.0
C      1  0.5871380000000  0.5134990000000  0.4727350000000 1.0
C      1  0.4923980000000  0.4710770000000  0.4998390000000 1.0
C      1  0.5083950000000  0.4630640000000  0.4756340000000 1.0
C      1  0.5194980000000  0.4140600000000  0.4606950000000 1.0
C      1  0.4745530000000  0.4652150000000  0.4101890000000 1.0
C      1  0.5603010000000  0.5143790000000  0.4327250000000 1.0
C      1  0.4886650000000  0.4486300000000  0.4554310000000 1.0
C      1  0.4509100000000  0.4828620000000  0.5692920000000 1.0
C      1  0.5230670000000  0.5140940000000  0.4817150000000 1.0
C      1  0.4746910000000  0.4950340000000  0.4884520000000 1.0
C      1  0.4741130000000  0.5176130000000  0.4325860000000 1.0
C      1  0.5809110000000  0.5438300000000  0.5518640000000 1.0
C      1  0.4800250000000  0.4569960000000  0.5436330000000 1.0
C      1  0.4976690000000  0.5154700000000  0.4988770000000 1.0
C      1  0.4736680000000  0.5226990000000  0.5849220000000 1.0
C      1  0.5770890000000  0.4708600000000  0.4506540000000 1.0
C      1  0.5152260000000  0.5715450000000  0.4324420000000 1.0
C      1  0.4417280000000  0.4595240000000  0.4989270000000 1.0
C      1  0.5010120000000  0.4980910000000  0.4400340000000 1.0
C      1  0.4422270000000  0.5066350000000  0.4373080000000 1.0
C      1  0.5308250000000  0.5468690000000  0.5566020000000 1.0
C      1  0.4338180000000  0.4676270000000  0.5518240000000 1.0
C      1  0.4855770000000  0.5034900000000  0.5258770000000 1.0
C      1  0.4523800000000  0.4591350000000  0.4211500000000 1.0
C      1  0.5116680000000  0.5224590000000  0.4201380000000 1.0
C      1  0.5225920000000  0.4345140000000  0.5291060000000 1.0
C      1  0.4934410000000  0.5839040000000  0.5381590000000 1.0
C      1  0.4690590000000  0.5501080000000  0.4363300000000 1.0
C      1  0.5337230000000  0.5154180000000  0.5650200000000 1.0
C      1  0.4290870000000  0.5567040000000  0.5375830000000 1.0
C      1  0.4532760000000  0.4319180000000  0.5276990000000 1.0
C      1  0.4505380000000  0.4972060000000  0.5079360000000 1.0
C      1  0.4977230000000  0.5477250000000  0.4211110000000 1.0
C      1  0.5820140000000  0.5415650000000  0.4802450000000 1.0
C      1  0.4476340000000  0.5608420000000  0.5598480000000 1.0
C      1  0.4142810000000  0.5073870000000  0.5222840000000 1.0
C      1  0.4748000000000  0.5526980000000  0.5584890000000 1.0
C      1  0.5862160000000  0.4862700000000  0.5470010000000 1.0
C      1  0.5220820000000  0.4887290000000  0.4637900000000 1.0
C      1  0.5820140000000  0.4939360000000  0.4953390000000 1.0
C      1  0.4637400000000  0.4178540000000  0.4515340000000 1.0
C      1  0.4902910000000  0.4498150000000  0.5815010000000 1.0
C      1  0.4099850000000  0.4677510000000  0.4626910000000 1.0
C      1  0.4347630000000  0.4586920000000  0.4714170000000 1.0
C      1  0.4756110000000  0.5305270000000  0.4702580000000 1.0
C      1  0.5263290000000  0.5332730000000  0.5199170000000 1.0
C      1  0.4841960000000  0.4971740000000  0.6003790000000 1.0
C      1  0.4724430000000  0.4729360000000  0.5883470000000 1.0
C      1  0.4816460000000  0.6000690000000  0.4688650000000 1.0
C      1  0.5694910000000  0.4212380000000  0.5160330000000 1.0
C      1  0.5514500000000  0.5193340000000  0.4924120000000 1.0
C      1  0.4561510000000  0.5116200000000  0.5652270000000 1.0
C      1  0.4276820000000  0.4785670000000  0.5233950000000 1.0
C      1  0.5136730000000  0.4868470000000  0.5214360000000 1.0
C      1  0.5017000000000  0.5381420000000  0.5725530000000 1.0
C      1  0.4736540000000  0.5821970000000  0.5134940000000 1.0
C      1  0.4779800000000  0.4015040000000  0.5201040000000 1.0
C      1  0.4898510000000  0.4176680000000  0.4701890000000 1.0
C      1  0.5663850000000  0.4245890000000  0.4840830000000 1.0
C      1  0.5748740000000  0.5569630000000  0.4567440000000 1.0
C      1  0.5810140000000  0.5830620000000  0.4528660000000 1.0
C      1  0.4881460000000  0.4080000000000  0.5463620000000 1.0
C      1  0.4719270000000  0.5689200000000  0.4612640000000 1.0
C      1  0.4143800000000  0.5744170000000  0.4923040000000 1.0
C      1  0.5289140000000  0.5479430000000  0.4457000000000 1.0
C      1  0.5689940000000  0.5098250000000  0.5200600000000 1.0
C      1  0.5536800000000  0.4895610000000  0.4766360000000 1.0
C      1  0.5798040000000  0.4997790000000  0.4482040000000 1.0
C      1  0.4148240000000  0.5738660000000  0.5200380000000 1.0
C      1  0.5088260000000  0.5373340000000  0.4673190000000 1.0
C      1  0.4714630000000  0.4488560000000  0.5055360000000 1.0
C      1  0.3882730000000  0.5108500000000  0.5198840000000 1.0
C      1  0.3866160000000  0.4762950000000  0.4544610000000 1.0
C      1  0.5388380000000  0.4295530000000  0.5044780000000 1.0
C      1  0.5065770000000  0.5874160000000  0.4550640000000 1.0
C      1  0.5363690000000  0.5020810000000  0.4220410000000 1.0
C      1  0.5392310000000  0.4546930000000  0.4817630000000 1.0
C      1  0.5011990000000  0.5464080000000  0.5068030000000 1.0
C      1  0.4345170000000  0.5296990000000  0.5242670000000 1.0
C      1  0.4616810000000  0.5605720000000  0.4923610000000 1.0
C      1  0.4805280000000  0.4189990000000  0.4991000000000 1.0
C      1  0.5367370000000  0.5054690000000  0.5267160000000 1.0
C      1  0.4390560000000  0.4398190000000  0.5495750000000 1.0
C      1  0.4622170000000  0.5212020000000  0.5375650000000 1.0
C      1  0.5103800000000  0.4607500000000  0.5382390000000 1.0
C      1  0.4246900000000  0.5275990000000  0.4416870000000 1.0
C      1  0.5166510000000  0.4855980000000  0.5612810000000 1.0
C      1  0.4376820000000  0.5523490000000  0.4491670000000 1.0
C      1  0.4782320000000  0.5487530000000  0.5271580000000 1.0
C      1  0.5653700000000  0.4590240000000  0.5036930000000 1.0
C      1  0.4661800000000  0.4996980000000  0.4596050000000 1.0
C      1  0.5098070000000  0.5708220000000  0.5509940000000 1.0
C      1  0.5874520000000  0.5172870000000  0.5451790000000 1.0
C      1  0.4347000000000  0.5648260000000  0.4748260000000 1.0
C      1  0.5100240000000  0.5074690000000  0.5854720000000 1.0
C      1  0.5575080000000  0.5518530000000  0.5365840000000 1.0
C      1  0.5889630000000  0.4742440000000  0.5210540000000 1.0
C      1  0.5627670000000  0.5472480000000  0.5077580000000 1.0
C      1  0.4766470000000  0.4311580000000  0.5601240000000 1.0
C      1  0.4571450000000  0.5294270000000  0.4988560000000 1.0
C      1  0.5162650000000  0.4124830000000  0.5442460000000 1.0
C      1  0.4985540000000  0.4671750000000  0.4297970000000 1.0
C      1  0.5381010000000  0.4278520000000  0.4522090000000 1.0
C      1  0.4664190000000  0.4785350000000  0.5317830000000 1.0
C      1  0.4766620000000  0.6063980000000  0.4949590000000 1.0
C      1  0.5468090000000  0.4604360000000  0.5554050000000 1.0
C      1  0.5202810000000  0.4558960000000  0.5762210000000 1.0
C      1  0.5602270000000  0.4460870000000  0.5348850000000 1.0
C      1  0.4546380000000  0.4489410000000  0.4506040000000 1.0
END
