TITL C-2778437-8639-274 -0.00233229557448148 125000 -233.93523065882 0 0 43 (C1) n - 1
REM
REM in /home/nfs/bkarasulu/CARBON/AIRSS/Generating-Clusters/REBO/Only-C1/SD-CG/HFTN-CG
REM
REM
REM
REM
REM
REM ./C.cell (11c1c37f851c82e70ff6c80c92926a4b)
REM
REM compiler GCC version 9.2.1 20190827 (Red Hat 9.2.1-1)
REM options -cpp -mtune=generic -march=x86-64 -g -O0 -fpre-include=/usr/include/finclude/math-vector-fortran.h
REM seed 1370302108 1517949538 605432041 1316196901 -998447273 -11891973 -2055258345 1157603779 -1756916390 460090758 308849781 -1871968580 -281839346 334646160 1556810289 -710553653 376430242 -1200573806 1411886853 804133928 1217075324 204464776 396756520 1233457019 390720297 1084030282 1044744724 63116165 -1499436060 2118634011 335291583 1897254507 -1389590430
REM
CELL 1.54180   50.00000   50.00000   50.00000   90.00000   90.00000   90.00000
LATT -1
SFAC C  
C      1  0.5497810000000  0.4657700000000  0.5361370000000 1.0
C      1  0.4910700000000  0.4445680000000  0.4956790000000 1.0
C      1  0.5267020000000  0.5224660000000  0.4502230000000 1.0
C      1  0.4720340000000  0.4834030000000  0.5508950000000 1.0
C      1  0.4761170000000  0.5412880000000  0.4809390000000 1.0
C      1  0.5055110000000  0.4500400000000  0.4699430000000 1.0
C      1  0.4989920000000  0.5110630000000  0.4432870000000 1.0
C      1  0.4534440000000  0.5499760000000  0.4571390000000 1.0
C      1  0.5026700000000  0.5331480000000  0.5502960000000 1.0
C      1  0.5169160000000  0.5562300000000  0.5295480000000 1.0
C      1  0.5512040000000  0.4561480000000  0.5008580000000 1.0
C      1  0.4843530000000  0.5586510000000  0.5374000000000 1.0
C      1  0.4916420000000  0.4946870000000  0.5161440000000 1.0
C      1  0.5623240000000  0.4936480000000  0.5349860000000 1.0
C      1  0.5227000000000  0.5156410000000  0.5290480000000 1.0
C      1  0.5360020000000  0.5230020000000  0.4774460000000 1.0
C      1  0.4631100000000  0.4861670000000  0.4847100000000 1.0
C      1  0.4176100000000  0.5058460000000  0.4903030000000 1.0
C      1  0.5139400000000  0.5105740000000  0.4964730000000 1.0
C      1  0.5042180000000  0.4934680000000  0.5467720000000 1.0
C      1  0.5680370000000  0.4822220000000  0.5057000000000 1.0
C      1  0.4504510000000  0.4760000000000  0.4610020000000 1.0
C      1  0.4594130000000  0.5539750000000  0.5270530000000 1.0
C      1  0.5074400000000  0.4335600000000  0.5161620000000 1.0
C      1  0.5524930000000  0.5180130000000  0.5133670000000 1.0
C      1  0.4767350000000  0.5294860000000  0.4500350000000 1.0
C      1  0.5375170000000  0.4585380000000  0.4745900000000 1.0
C      1  0.4499420000000  0.5235280000000  0.5245270000000 1.0
C      1  0.4638420000000  0.4636770000000  0.5296130000000 1.0
C      1  0.5138970000000  0.4826870000000  0.4671970000000 1.0
C      1  0.4525150000000  0.5102090000000  0.5516040000000 1.0
C      1  0.4775100000000  0.5224870000000  0.5078900000000 1.0
C      1  0.4706180000000  0.4621980000000  0.5033170000000 1.0
C      1  0.4426090000000  0.5050890000000  0.4993580000000 1.0
C      1  0.5327530000000  0.4424840000000  0.5238830000000 1.0
C      1  0.5626870000000  0.5047890000000  0.4835650000000 1.0
C      1  0.4944250000000  0.4595860000000  0.4410670000000 1.0
C      1  0.4995920000000  0.5474030000000  0.5021820000000 1.0
C      1  0.4892190000000  0.5001810000000  0.4768880000000 1.0
C      1  0.5334590000000  0.5445110000000  0.5036870000000 1.0
C      1  0.5464850000000  0.4879800000000  0.4614560000000 1.0
C      1  0.4946300000000  0.4829920000000  0.4321490000000 1.0
C      1  0.4833920000000  0.5126210000000  0.5654820000000 1.0
END
