TITL C-2778427-5640-1136 4.27563844917197e-05 125000 -106.782040194963 0 0 20 (C1) n - 1
REM
REM in /home/nfs/bkarasulu/CARBON/AIRSS/Generating-Clusters/REBO/Only-C1/SD-CG/HFTN-CG
REM
REM
REM
REM
REM
REM ./C.cell (11c1c37f851c82e70ff6c80c92926a4b)
REM
REM compiler GCC version 9.2.1 20190827 (Red Hat 9.2.1-1)
REM options -cpp -mtune=generic -march=x86-64 -g -O0 -fpre-include=/usr/include/finclude/math-vector-fortran.h
REM seed -662240858 -2107729032 671061878 -2062591786 2111796376 -782052834 684055686 396738028 -265633256 -1302285303 1054580072 125482673 962225494 19511513 2067563048 -462240244 1183484020 998643958 -14309835 -483036106 1380726111 132956351 -929376129 -653896328 -488881461 1679241780 469568319 -806991932 1209377205 -528426580 1459515257 -1001973559 1608180998
REM
CELL 1.54180   50.00000   50.00000   50.00000   90.00000   90.00000   90.00000
LATT -1
SFAC C  
C      1  0.4706180000000  0.5150810000000  0.4953000000000 1.0
C      1  0.4806570000000  0.4787800000000  0.5271980000000 1.0
C      1  0.5416770000000  0.5093230000000  0.5079170000000 1.0
C      1  0.5409780000000  0.4570770000000  0.5548230000000 1.0
C      1  0.4941280000000  0.5087030000000  0.4768580000000 1.0
C      1  0.5565760000000  0.4765160000000  0.5444760000000 1.0
C      1  0.5176720000000  0.5379870000000  0.4437030000000 1.0
C      1  0.5149610000000  0.4463030000000  0.5545120000000 1.0
C      1  0.5562760000000  0.4966960000000  0.5265960000000 1.0
C      1  0.4957660000000  0.4609090000000  0.5401000000000 1.0
C      1  0.5088170000000  0.4231490000000  0.5673980000000 1.0
C      1  0.4935570000000  0.5283050000000  0.4534080000000 1.0
C      1  0.4548500000000  0.5369880000000  0.4887710000000 1.0
C      1  0.5404550000000  0.5471340000000  0.4345340000000 1.0
C      1  0.5205980000000  0.5130830000000  0.4922860000000 1.0
C      1  0.4924830000000  0.4818110000000  0.4675100000000 1.0
C      1  0.4689490000000  0.5355550000000  0.4428570000000 1.0
C      1  0.4457000000000  0.5424050000000  0.4328880000000 1.0
C      1  0.4410710000000  0.5048390000000  0.5311950000000 1.0
C      1  0.4642120000000  0.4993570000000  0.5176690000000 1.0
END
