TITL C-2778428-5639-927 0.00125756135320293 125000 -226.929698599172 0 0 41 (C1) n - 1
REM
REM in /home/nfs/bkarasulu/CARBON/AIRSS/Generating-Clusters/REBO/Only-C1/SD-CG/HFTN-CG
REM
REM
REM
REM
REM
REM ./C.cell (11c1c37f851c82e70ff6c80c92926a4b)
REM
REM compiler GCC version 9.2.1 20190827 (Red Hat 9.2.1-1)
REM options -cpp -mtune=generic -march=x86-64 -g -O0 -fpre-include=/usr/include/finclude/math-vector-fortran.h
REM seed -1235615957 -11767652 785365003 -1458084192 539405844 -1612422946 -1834301742 -672214064 -1523326987 1072466008 -1392943905 -949102364 1624879656 -1644326142 -110158243 -831572806 -2051975542 -174164477 798281135 -2033886128 850737399 1133737734 312476663 930259845 -407556738 530886056 -1603648870 -751501809 -1545219870 -1944307253 1897016793 1308534464 1783836346
REM
CELL 1.54180   50.00000   50.00000   50.00000   90.00000   90.00000   90.00000
LATT -1
SFAC C  
C      1  0.4655780000000  0.4763960000000  0.5631350000000 1.0
C      1  0.4945520000000  0.4406940000000  0.4562200000000 1.0
C      1  0.4868440000000  0.4700200000000  0.5806540000000 1.0
C      1  0.5487870000000  0.5112060000000  0.4710900000000 1.0
C      1  0.4337340000000  0.4806150000000  0.5062410000000 1.0
C      1  0.5531910000000  0.4983410000000  0.5200320000000 1.0
C      1  0.5012150000000  0.4088270000000  0.4546920000000 1.0
C      1  0.4606580000000  0.5032800000000  0.4768340000000 1.0
C      1  0.4866200000000  0.4674010000000  0.4591400000000 1.0
C      1  0.4491380000000  0.5517400000000  0.5347730000000 1.0
C      1  0.5345930000000  0.4470140000000  0.4884950000000 1.0
C      1  0.4729500000000  0.5601970000000  0.4905380000000 1.0
C      1  0.5286090000000  0.4903080000000  0.4529700000000 1.0
C      1  0.5111090000000  0.4688510000000  0.5673090000000 1.0
C      1  0.5005300000000  0.4912980000000  0.4505480000000 1.0
C      1  0.5536430000000  0.4660710000000  0.5096520000000 1.0
C      1  0.5029520000000  0.5199000000000  0.5091960000000 1.0
C      1  0.4796830000000  0.5372630000000  0.5136230000000 1.0
C      1  0.5221890000000  0.5559200000000  0.5103830000000 1.0
C      1  0.5498860000000  0.5381530000000  0.4885260000000 1.0
C      1  0.5007490000000  0.4931440000000  0.4904430000000 1.0
C      1  0.5169010000000  0.5184390000000  0.4785910000000 1.0
C      1  0.4823740000000  0.5181100000000  0.4585930000000 1.0
C      1  0.5020610000000  0.5691900000000  0.5223790000000 1.0
C      1  0.5212900000000  0.5027010000000  0.5296480000000 1.0
C      1  0.5451900000000  0.4717030000000  0.4711760000000 1.0
C      1  0.4760850000000  0.5511160000000  0.4648140000000 1.0
C      1  0.5271250000000  0.5570500000000  0.4795090000000 1.0
C      1  0.4765050000000  0.4736160000000  0.5308830000000 1.0
C      1  0.5241280000000  0.4548510000000  0.5194360000000 1.0
C      1  0.4535130000000  0.5216800000000  0.5234670000000 1.0
C      1  0.5188230000000  0.4284410000000  0.4732470000000 1.0
C      1  0.4698360000000  0.5714560000000  0.5216800000000 1.0
C      1  0.4416840000000  0.5081360000000  0.4987070000000 1.0
C      1  0.5402770000000  0.5295000000000  0.5197290000000 1.0
C      1  0.5065890000000  0.5423810000000  0.4597130000000 1.0
C      1  0.5653290000000  0.4905740000000  0.4897470000000 1.0
C      1  0.5087310000000  0.4749800000000  0.5359510000000 1.0
C      1  0.4595640000000  0.5002100000000  0.5430260000000 1.0
C      1  0.4594370000000  0.4646120000000  0.5063170000000 1.0
C      1  0.4673480000000  0.4746180000000  0.4788940000000 1.0
END
