TITL C-2778437-8639-99 0.000397838940946739 125000 -180.547321852632 0 0 31 (C1) n - 1
REM
REM in /home/nfs/bkarasulu/CARBON/AIRSS/Generating-Clusters/REBO/Only-C1/SD-CG/HFTN-CG
REM
REM
REM
REM
REM
REM ./C.cell (11c1c37f851c82e70ff6c80c92926a4b)
REM
REM compiler GCC version 9.2.1 20190827 (Red Hat 9.2.1-1)
REM options -cpp -mtune=generic -march=x86-64 -g -O0 -fpre-include=/usr/include/finclude/math-vector-fortran.h
REM seed -608908565 -1819032975 1908050276 125519751 -122457844 -97376000 -1107441090 -1462752860 -313491645 -1938525502 1894604950 -2141913206 -351771720 228278013 474691026 -255538893 -1300300439 -1753970588 1473580140 1664650125 -769966437 -1128451967 -837509318 1125420531 308963641 1551846402 -1594453808 1514706748 1825118996 -1050778664 -409784631 1894678442 -821188260
REM
CELL 1.54180   50.00000   50.00000   50.00000   90.00000   90.00000   90.00000
LATT -1
SFAC C  
C      1  0.4936330000000  0.4644680000000  0.5577190000000 1.0
C      1  0.4959710000000  0.4722090000000  0.4583320000000 1.0
C      1  0.5133220000000  0.5535430000000  0.4461890000000 1.0
C      1  0.5046650000000  0.4972970000000  0.4487770000000 1.0
C      1  0.5143770000000  0.4511810000000  0.4654690000000 1.0
C      1  0.5264020000000  0.5630080000000  0.4690710000000 1.0
C      1  0.5215280000000  0.5635290000000  0.4957220000000 1.0
C      1  0.4511570000000  0.4911910000000  0.4572520000000 1.0
C      1  0.4601190000000  0.4539510000000  0.4868610000000 1.0
C      1  0.5058370000000  0.5548700000000  0.5158830000000 1.0
C      1  0.5431020000000  0.5062190000000  0.5620290000000 1.0
C      1  0.5187080000000  0.5199130000000  0.5576010000000 1.0
C      1  0.5659940000000  0.5186780000000  0.5697490000000 1.0
C      1  0.4860620000000  0.5370230000000  0.5252540000000 1.0
C      1  0.4587110000000  0.4531270000000  0.5138100000000 1.0
C      1  0.4839550000000  0.5603350000000  0.4383120000000 1.0
C      1  0.4682750000000  0.4637060000000  0.5373310000000 1.0
C      1  0.5094750000000  0.4255790000000  0.4574800000000 1.0
C      1  0.4492760000000  0.5292220000000  0.4869880000000 1.0
C      1  0.4516500000000  0.5193050000000  0.4605650000000 1.0
C      1  0.5538400000000  0.4696420000000  0.5307950000000 1.0
C      1  0.5425870000000  0.4779110000000  0.5553100000000 1.0
C      1  0.4680600000000  0.4698180000000  0.4649870000000 1.0
C      1  0.4937950000000  0.5172980000000  0.5443140000000 1.0
C      1  0.5494190000000  0.4628710000000  0.5051380000000 1.0
C      1  0.4689350000000  0.5337690000000  0.4431170000000 1.0
C      1  0.4828380000000  0.4916820000000  0.5445850000000 1.0
C      1  0.5355000000000  0.4571610000000  0.4829650000000 1.0
C      1  0.5204430000000  0.4628500000000  0.5649800000000 1.0
C      1  0.4625510000000  0.5343840000000  0.5099320000000 1.0
C      1  0.4998100000000  0.5242610000000  0.4434810000000 1.0
END
