TITL C-2778431-5191-465 -0.000100096846060714 125000 -770.559755344409 0 0 132 (C1) n - 1
REM
REM in /home/nfs/bkarasulu/CARBON/AIRSS/Generating-Clusters/REBO/Only-C1/SD-CG/HFTN-CG
REM
REM
REM
REM
REM
REM ./C.cell (11c1c37f851c82e70ff6c80c92926a4b)
REM
REM compiler GCC version 9.2.1 20190827 (Red Hat 9.2.1-1)
REM options -cpp -mtune=generic -march=x86-64 -g -O0 -fpre-include=/usr/include/finclude/math-vector-fortran.h
REM seed -316787761 435557789 -786420900 818632909 -1072826405 560969065 -1198845039 -1818307265 -1044149217 1830838967 -1120114076 980040876 -195758504 491446547 -339549856 -1559294007 -296737857 1445115150 -47191342 -471800089 948466321 -1117590545 2019140821 -1682092101 1214581132 193852020 656042212 188529335 1983840932 1277141611 -1704697195 -1532445677 400485749
REM
CELL 1.54180   50.00000   50.00000   50.00000   90.00000   90.00000   90.00000
LATT -1
SFAC C  
C      1  0.4966270000000  0.4516730000000  0.5941120000000 1.0
C      1  0.4630950000000  0.4944520000000  0.5977420000000 1.0
C      1  0.5149290000000  0.4651320000000  0.5036680000000 1.0
C      1  0.5597010000000  0.5209880000000  0.4416810000000 1.0
C      1  0.5096120000000  0.4073930000000  0.5232070000000 1.0
C      1  0.4213890000000  0.4848450000000  0.4355800000000 1.0
C      1  0.4665530000000  0.4152940000000  0.4866740000000 1.0
C      1  0.5040620000000  0.4792370000000  0.3993080000000 1.0
C      1  0.4288260000000  0.4456560000000  0.5400550000000 1.0
C      1  0.4442890000000  0.4500560000000  0.4605960000000 1.0
C      1  0.5455680000000  0.5417430000000  0.4196470000000 1.0
C      1  0.5819190000000  0.5649510000000  0.5057140000000 1.0
C      1  0.5332710000000  0.4424690000000  0.5510580000000 1.0
C      1  0.4921790000000  0.5221680000000  0.4453950000000 1.0
C      1  0.5473450000000  0.4946920000000  0.4543770000000 1.0
C      1  0.5314320000000  0.5610510000000  0.5840090000000 1.0
C      1  0.4604400000000  0.4622620000000  0.4012040000000 1.0
C      1  0.5601810000000  0.4338260000000  0.4778150000000 1.0
C      1  0.4370290000000  0.5315300000000  0.4354000000000 1.0
C      1  0.5078890000000  0.5752830000000  0.5815770000000 1.0
C      1  0.4097820000000  0.5032190000000  0.5050240000000 1.0
C      1  0.4266440000000  0.4744130000000  0.5561220000000 1.0
C      1  0.5643900000000  0.4696740000000  0.4454370000000 1.0
C      1  0.5320540000000  0.4834180000000  0.4049830000000 1.0
C      1  0.5562740000000  0.5113090000000  0.5682990000000 1.0
C      1  0.5349110000000  0.5108500000000  0.4202300000000 1.0
C      1  0.4460970000000  0.5567600000000  0.4560890000000 1.0
C      1  0.5122250000000  0.4589080000000  0.4646040000000 1.0
C      1  0.5814860000000  0.5036800000000  0.5189640000000 1.0
C      1  0.5169980000000  0.4579450000000  0.4317140000000 1.0
C      1  0.5362830000000  0.4751400000000  0.4789000000000 1.0
C      1  0.4246700000000  0.5249890000000  0.5526410000000 1.0
C      1  0.4825130000000  0.4645710000000  0.4806970000000 1.0
C      1  0.5479220000000  0.4623330000000  0.4217980000000 1.0
C      1  0.5186770000000  0.5319180000000  0.4608800000000 1.0
C      1  0.5357720000000  0.4899350000000  0.5419220000000 1.0
C      1  0.5228370000000  0.4893770000000  0.5681910000000 1.0
C      1  0.5544850000000  0.4632060000000  0.5041590000000 1.0
C      1  0.5475600000000  0.4539780000000  0.5734230000000 1.0
C      1  0.4823510000000  0.5672290000000  0.5626380000000 1.0
C      1  0.4609160000000  0.5330960000000  0.5021850000000 1.0
C      1  0.4742890000000  0.5634100000000  0.5027010000000 1.0
C      1  0.4886650000000  0.4541130000000  0.4011550000000 1.0
C      1  0.5702630000000  0.5402760000000  0.5692500000000 1.0
C      1  0.5065890000000  0.4658960000000  0.5700820000000 1.0
C      1  0.5190520000000  0.5153050000000  0.5063240000000 1.0
C      1  0.4875910000000  0.4278950000000  0.4665240000000 1.0
C      1  0.5839550000000  0.5295020000000  0.5410390000000 1.0
C      1  0.5633180000000  0.6088200000000  0.5031410000000 1.0
C      1  0.4418930000000  0.5671920000000  0.5251200000000 1.0
C      1  0.4922880000000  0.4047430000000  0.3977270000000 1.0
C      1  0.5791080000000  0.4813220000000  0.4951110000000 1.0
C      1  0.4964800000000  0.4284740000000  0.4113080000000 1.0
C      1  0.5296180000000  0.5601990000000  0.4728330000000 1.0
C      1  0.5828000000000  0.5425910000000  0.4832290000000 1.0
C      1  0.4230800000000  0.4556580000000  0.4370990000000 1.0
C      1  0.4817370000000  0.5355790000000  0.4752160000000 1.0
C      1  0.5019500000000  0.5110920000000  0.5421140000000 1.0
C      1  0.5335830000000  0.4629940000000  0.5291970000000 1.0
C      1  0.5173770000000  0.5093710000000  0.5888140000000 1.0
C      1  0.4999020000000  0.5386100000000  0.5685810000000 1.0
C      1  0.4370680000000  0.5029700000000  0.4213330000000 1.0
C      1  0.4858660000000  0.4617680000000  0.5450920000000 1.0
C      1  0.4970980000000  0.5345820000000  0.5183960000000 1.0
C      1  0.5063440000000  0.5828610000000  0.5351040000000 1.0
C      1  0.5690700000000  0.5584150000000  0.5342690000000 1.0
C      1  0.5795160000000  0.4584200000000  0.5467610000000 1.0
C      1  0.5127240000000  0.4223090000000  0.5482240000000 1.0
C      1  0.4433850000000  0.4650650000000  0.5214090000000 1.0
C      1  0.4747900000000  0.4562090000000  0.4510570000000 1.0
C      1  0.5300430000000  0.4295370000000  0.4661320000000 1.0
C      1  0.5746580000000  0.4584960000000  0.4701990000000 1.0
C      1  0.5315950000000  0.5341010000000  0.5942920000000 1.0
C      1  0.4572950000000  0.5524870000000  0.5756750000000 1.0
C      1  0.4757300000000  0.5612550000000  0.4148770000000 1.0
C      1  0.4891320000000  0.4267030000000  0.5639480000000 1.0
C      1  0.5429600000000  0.5677540000000  0.4248320000000 1.0
C      1  0.5290970000000  0.5270680000000  0.5551060000000 1.0
C      1  0.5811710000000  0.5337010000000  0.4583430000000 1.0
C      1  0.5535660000000  0.5692570000000  0.5631210000000 1.0
C      1  0.4701410000000  0.5736490000000  0.4713890000000 1.0
C      1  0.5381960000000  0.5785470000000  0.4494510000000 1.0
C      1  0.4730340000000  0.5267480000000  0.5405600000000 1.0
C      1  0.5040860000000  0.4351360000000  0.4955550000000 1.0
C      1  0.4469260000000  0.5028880000000  0.4800410000000 1.0
C      1  0.4194170000000  0.5558930000000  0.5085480000000 1.0
C      1  0.4778790000000  0.5038050000000  0.4776750000000 1.0
C      1  0.4815940000000  0.4889100000000  0.5310280000000 1.0
C      1  0.4576850000000  0.4911310000000  0.4053420000000 1.0
C      1  0.3998950000000  0.4525060000000  0.4920100000000 1.0
C      1  0.4913170000000  0.4871450000000  0.5018450000000 1.0
C      1  0.5305310000000  0.4159140000000  0.4977330000000 1.0
C      1  0.5752440000000  0.4912940000000  0.5480560000000 1.0
C      1  0.4656440000000  0.4569790000000  0.5066360000000 1.0
C      1  0.5075470000000  0.4274270000000  0.4406830000000 1.0
C      1  0.4172000000000  0.4298230000000  0.4973290000000 1.0
C      1  0.4337210000000  0.5292100000000  0.4691840000000 1.0
C      1  0.5220750000000  0.5123280000000  0.4794810000000 1.0
C      1  0.5420490000000  0.5093520000000  0.5219120000000 1.0
C      1  0.4692610000000  0.4526460000000  0.5734470000000 1.0
C      1  0.4560370000000  0.5020100000000  0.5131510000000 1.0
C      1  0.5608520000000  0.4238340000000  0.5063820000000 1.0
C      1  0.4070220000000  0.4797380000000  0.4872230000000 1.0
C      1  0.4412900000000  0.4279910000000  0.4817290000000 1.0
C      1  0.4442450000000  0.5352830000000  0.5318970000000 1.0
C      1  0.5603050000000  0.4781710000000  0.5755460000000 1.0
C      1  0.4857840000000  0.4886610000000  0.4493990000000 1.0
C      1  0.4797930000000  0.4083040000000  0.5121610000000 1.0
C      1  0.4849200000000  0.5017690000000  0.4023290000000 1.0
C      1  0.4191690000000  0.4238380000000  0.5253450000000 1.0
C      1  0.5499780000000  0.5869680000000  0.5137970000000 1.0
C      1  0.5389900000000  0.5472490000000  0.5336040000000 1.0
C      1  0.4160980000000  0.5303830000000  0.4949950000000 1.0
C      1  0.4495510000000  0.4736170000000  0.5802070000000 1.0
C      1  0.4605240000000  0.5236110000000  0.5702840000000 1.0
C      1  0.5759250000000  0.6294710000000  0.4930700000000 1.0
C      1  0.5632090000000  0.5297850000000  0.5071070000000 1.0
C      1  0.5164610000000  0.4907140000000  0.4408310000000 1.0
C      1  0.5686270000000  0.4439350000000  0.5266940000000 1.0
C      1  0.5003440000000  0.5620810000000  0.4808600000000 1.0
C      1  0.4681680000000  0.5751840000000  0.4384610000000 1.0
C      1  0.5155860000000  0.5579900000000  0.5216140000000 1.0
C      1  0.5368580000000  0.5867590000000  0.5392230000000 1.0
C      1  0.4869110000000  0.5291440000000  0.4166160000000 1.0
C      1  0.4286090000000  0.4938110000000  0.5279800000000 1.0
C      1  0.4302650000000  0.4803090000000  0.4675910000000 1.0
C      1  0.4735750000000  0.5774770000000  0.5322680000000 1.0
C      1  0.4859820000000  0.5150820000000  0.5889950000000 1.0
C      1  0.4359480000000  0.5032790000000  0.5698670000000 1.0
C      1  0.4551430000000  0.5372900000000  0.4100970000000 1.0
C      1  0.4855700000000  0.4391920000000  0.5239130000000 1.0
C      1  0.5489920000000  0.5590900000000  0.4964080000000 1.0
END
