TITL C-2778435-5768-555 0.00056468500779777 125000 -272.54781211514 0 0 48 (C1) n - 1
REM
REM in /home/nfs/bkarasulu/CARBON/AIRSS/Generating-Clusters/REBO/Only-C1/SD-CG/HFTN-CG
REM
REM
REM
REM
REM
REM ./C.cell (11c1c37f851c82e70ff6c80c92926a4b)
REM
REM compiler GCC version 9.2.1 20190827 (Red Hat 9.2.1-1)
REM options -cpp -mtune=generic -march=x86-64 -g -O0 -fpre-include=/usr/include/finclude/math-vector-fortran.h
REM seed 1706508780 -1501675239 1282382467 -1404799444 -1344522611 -1471244953 -1518803870 -1342135578 1574548846 1463224645 -1485707897 1047607640 1074534545 -456315935 726163839 901532938 -1847016159 1060516902 371635959 1206564942 1546563512 -2128589067 385212098 -1957886158 2134091956 2042760506 487153706 809659535 -1616411547 1515038999 1790501509 480822762 53973678
REM
CELL 1.54180   50.00000   50.00000   50.00000   90.00000   90.00000   90.00000
LATT -1
SFAC C  
C      1  0.4192340000000  0.5126440000000  0.5162280000000 1.0
C      1  0.4854640000000  0.4793610000000  0.5110120000000 1.0
C      1  0.5266330000000  0.4566620000000  0.4498760000000 1.0
C      1  0.4691970000000  0.4690680000000  0.4285130000000 1.0
C      1  0.5755040000000  0.4547700000000  0.5576590000000 1.0
C      1  0.4759440000000  0.5749970000000  0.4873450000000 1.0
C      1  0.5598150000000  0.4689420000000  0.5414650000000 1.0
C      1  0.5293170000000  0.4738510000000  0.4276400000000 1.0
C      1  0.5489470000000  0.4714090000000  0.4090300000000 1.0
C      1  0.4548380000000  0.4483230000000  0.4199890000000 1.0
C      1  0.4407090000000  0.4279070000000  0.4116010000000 1.0
C      1  0.5194000000000  0.5675690000000  0.4543020000000 1.0
C      1  0.5914730000000  0.4403450000000  0.5741430000000 1.0
C      1  0.4115240000000  0.5599620000000  0.4966750000000 1.0
C      1  0.6432900000000  0.4213690000000  0.5994830000000 1.0
C      1  0.5945870000000  0.4179250000000  0.5971850000000 1.0
C      1  0.4278190000000  0.5786490000000  0.5094400000000 1.0
C      1  0.5161650000000  0.4543380000000  0.4745960000000 1.0
C      1  0.4924150000000  0.4918570000000  0.5356800000000 1.0
C      1  0.5109830000000  0.4961160000000  0.4279900000000 1.0
C      1  0.5263130000000  0.5932360000000  0.4559120000000 1.0
C      1  0.5331150000000  0.6184960000000  0.4574960000000 1.0
C      1  0.4783890000000  0.5469880000000  0.4908080000000 1.0
C      1  0.4640750000000  0.5516300000000  0.5378680000000 1.0
C      1  0.4607640000000  0.4885800000000  0.5001390000000 1.0
C      1  0.4413270000000  0.4840740000000  0.4791600000000 1.0
C      1  0.4760810000000  0.5079040000000  0.4585090000000 1.0
C      1  0.4427400000000  0.4653490000000  0.4597270000000 1.0
C      1  0.4200960000000  0.5028800000000  0.4835150000000 1.0
C      1  0.4506760000000  0.5114910000000  0.5143020000000 1.0
C      1  0.4842030000000  0.4907510000000  0.4374230000000 1.0
C      1  0.5122300000000  0.5409420000000  0.4526310000000 1.0
C      1  0.5019700000000  0.4626750000000  0.4957930000000 1.0
C      1  0.6056730000000  0.3996840000000  0.6169480000000 1.0
C      1  0.5195920000000  0.5229360000000  0.4320570000000 1.0
C      1  0.5284390000000  0.4972850000000  0.5090770000000 1.0
C      1  0.5441270000000  0.4831130000000  0.5252710000000 1.0
C      1  0.6339420000000  0.4019800000000  0.6179820000000 1.0
C      1  0.6210860000000  0.4332010000000  0.5848820000000 1.0
C      1  0.5128920000000  0.5113290000000  0.4930290000000 1.0
C      1  0.4059380000000  0.5074890000000  0.5394450000000 1.0
C      1  0.4946400000000  0.5278170000000  0.4741890000000 1.0
C      1  0.4770120000000  0.5367550000000  0.5585030000000 1.0
C      1  0.4884150000000  0.5120920000000  0.5535090000000 1.0
C      1  0.4647610000000  0.5359570000000  0.5133290000000 1.0
C      1  0.4577460000000  0.5897180000000  0.5035670000000 1.0
C      1  0.4092240000000  0.5326830000000  0.4921720000000 1.0
C      1  0.4512750000000  0.5769030000000  0.5329080000000 1.0
END
