TITL C-2778425-5191-562 -0.00487581385269632 125000 -1125.1111639096 0 0 193 (C1) n - 1
REM
REM in /home/nfs/bkarasulu/CARBON/AIRSS/Generating-Clusters/REBO/Only-C1/SD-CG/HFTN-CG
REM
REM
REM
REM
REM
REM ./C.cell (11c1c37f851c82e70ff6c80c92926a4b)
REM
REM compiler GCC version 9.2.1 20190827 (Red Hat 9.2.1-1)
REM options -cpp -mtune=generic -march=x86-64 -g -O0 -fpre-include=/usr/include/finclude/math-vector-fortran.h
REM seed -1710918574 56619889 1645062077 -2099969321 -107989089 665598446 -203987150 551900613 -952398799 -1777175758 2135689672 -1172044394 62501684 1533331509 -2004220214 -1522791086 -1978973944 -408763255 876980421 -457617831 517258612 -1113256081 1635201406 1618201812 347475267 980715905 1987878586 1532881657 -834399733 -1819466104 181001060 -368012743 -861881351
REM
CELL 1.54180   50.00000   50.00000   50.00000   90.00000   90.00000   90.00000
LATT -1
SFAC C  
C      1  0.4786160000000  0.5651520000000  0.5267630000000 1.0
C      1  0.5285730000000  0.4138430000000  0.4243190000000 1.0
C      1  0.5403470000000  0.4487090000000  0.4344370000000 1.0
C      1  0.4439040000000  0.4720780000000  0.5248910000000 1.0
C      1  0.5439120000000  0.4334060000000  0.4711170000000 1.0
C      1  0.5362660000000  0.5681380000000  0.4923180000000 1.0
C      1  0.4798490000000  0.5192830000000  0.4802400000000 1.0
C      1  0.4417600000000  0.5460920000000  0.5034640000000 1.0
C      1  0.5479950000000  0.4800070000000  0.4454740000000 1.0
C      1  0.4955230000000  0.4318340000000  0.5223400000000 1.0
C      1  0.5992740000000  0.5271200000000  0.4780610000000 1.0
C      1  0.5462000000000  0.4592070000000  0.4906670000000 1.0
C      1  0.5478300000000  0.5756360000000  0.4172210000000 1.0
C      1  0.4454800000000  0.5036240000000  0.4205260000000 1.0
C      1  0.4747330000000  0.6053790000000  0.4803190000000 1.0
C      1  0.4874230000000  0.5856160000000  0.5732220000000 1.0
C      1  0.5476640000000  0.4051270000000  0.5436460000000 1.0
C      1  0.4357780000000  0.5383140000000  0.5713830000000 1.0
C      1  0.4772080000000  0.4314510000000  0.5496720000000 1.0
C      1  0.5590700000000  0.5041360000000  0.5467550000000 1.0
C      1  0.4354720000000  0.4514720000000  0.4195540000000 1.0
C      1  0.4105080000000  0.4370080000000  0.5211030000000 1.0
C      1  0.4709660000000  0.6020660000000  0.5139640000000 1.0
C      1  0.5883100000000  0.4617000000000  0.5212770000000 1.0
C      1  0.6015410000000  0.4767690000000  0.4771690000000 1.0
C      1  0.4999570000000  0.4651040000000  0.4920510000000 1.0
C      1  0.5040880000000  0.5147990000000  0.5039680000000 1.0
C      1  0.4391870000000  0.5750650000000  0.5565960000000 1.0
C      1  0.4506540000000  0.4749260000000  0.4373090000000 1.0
C      1  0.5421030000000  0.4223510000000  0.5182720000000 1.0
C      1  0.4607660000000  0.4499820000000  0.5255700000000 1.0
C      1  0.5798050000000  0.5113690000000  0.4537840000000 1.0
C      1  0.4505120000000  0.4076000000000  0.5035940000000 1.0
C      1  0.6084640000000  0.4991310000000  0.4925420000000 1.0
C      1  0.4786720000000  0.5926520000000  0.4567240000000 1.0
C      1  0.5432340000000  0.5859470000000  0.5391250000000 1.0
C      1  0.4348470000000  0.5211960000000  0.5440870000000 1.0
C      1  0.4989830000000  0.5521680000000  0.3898180000000 1.0
C      1  0.4506760000000  0.4773310000000  0.4030810000000 1.0
C      1  0.4348650000000  0.4470060000000  0.5682460000000 1.0
C      1  0.4778420000000  0.5680790000000  0.4940460000000 1.0
C      1  0.5228320000000  0.4487950000000  0.5212760000000 1.0
C      1  0.5730120000000  0.5467000000000  0.5189510000000 1.0
C      1  0.5649340000000  0.5598440000000  0.5919920000000 1.0
C      1  0.5312510000000  0.5148120000000  0.4840650000000 1.0
C      1  0.3821730000000  0.4962470000000  0.5066060000000 1.0
C      1  0.4161410000000  0.4574700000000  0.4469200000000 1.0
C      1  0.4948040000000  0.5218410000000  0.4150890000000 1.0
C      1  0.3880610000000  0.5242510000000  0.5233830000000 1.0
C      1  0.5179070000000  0.5706410000000  0.5275380000000 1.0
C      1  0.5738760000000  0.5478830000000  0.4685020000000 1.0
C      1  0.4600580000000  0.5457140000000  0.4387130000000 1.0
C      1  0.5971640000000  0.4537950000000  0.4922760000000 1.0
C      1  0.5216580000000  0.4116770000000  0.4960360000000 1.0
C      1  0.5053260000000  0.4876000000000  0.4721070000000 1.0
C      1  0.5394160000000  0.5761080000000  0.5775120000000 1.0
C      1  0.4355950000000  0.5019490000000  0.4723370000000 1.0
C      1  0.5305970000000  0.4876880000000  0.4012660000000 1.0
C      1  0.5118070000000  0.4388160000000  0.4083480000000 1.0
C      1  0.5687800000000  0.4470040000000  0.4530680000000 1.0
C      1  0.5310510000000  0.5776910000000  0.4626190000000 1.0
C      1  0.5231730000000  0.6062450000000  0.4893580000000 1.0
C      1  0.5017830000000  0.5892800000000  0.5049250000000 1.0
C      1  0.5374390000000  0.4794090000000  0.5239820000000 1.0
C      1  0.5606830000000  0.5185570000000  0.4802880000000 1.0
C      1  0.4269830000000  0.5470320000000  0.4413050000000 1.0
C      1  0.4448570000000  0.5723660000000  0.4518820000000 1.0
C      1  0.5811860000000  0.4788100000000  0.4529960000000 1.0
C      1  0.4168490000000  0.5259760000000  0.5074660000000 1.0
C      1  0.5172470000000  0.5946960000000  0.5592470000000 1.0
C      1  0.5065870000000  0.4627980000000  0.5854530000000 1.0
C      1  0.6099770000000  0.4952260000000  0.5208900000000 1.0
C      1  0.4983690000000  0.4714270000000  0.5254960000000 1.0
C      1  0.4751450000000  0.3986110000000  0.4929330000000 1.0
C      1  0.4306600000000  0.4956320000000  0.5895870000000 1.0
C      1  0.4982340000000  0.4045520000000  0.4229420000000 1.0
C      1  0.5163300000000  0.5774180000000  0.4150190000000 1.0
C      1  0.4120680000000  0.5592220000000  0.5657990000000 1.0
C      1  0.5034560000000  0.5515030000000  0.4300190000000 1.0
C      1  0.5416080000000  0.5366060000000  0.5833480000000 1.0
C      1  0.5618000000000  0.4468090000000  0.5127260000000 1.0
C      1  0.5272990000000  0.5302140000000  0.4366510000000 1.0
C      1  0.4846230000000  0.5603440000000  0.4517590000000 1.0
C      1  0.4866750000000  0.5235760000000  0.5555630000000 1.0
C      1  0.4787040000000  0.4730300000000  0.3920250000000 1.0
C      1  0.5509870000000  0.6050630000000  0.4901200000000 1.0
C      1  0.5761530000000  0.4208920000000  0.5533260000000 1.0
C      1  0.6023160000000  0.5334400000000  0.5116870000000 1.0
C      1  0.4478440000000  0.5724180000000  0.4824190000000 1.0
C      1  0.4575760000000  0.4309660000000  0.4124530000000 1.0
C      1  0.4201830000000  0.5183450000000  0.4262050000000 1.0
C      1  0.4878780000000  0.5924910000000  0.5419930000000 1.0
C      1  0.5389580000000  0.4836330000000  0.4764190000000 1.0
C      1  0.5104560000000  0.5631190000000  0.5825610000000 1.0
C      1  0.4208820000000  0.5797690000000  0.5007930000000 1.0
C      1  0.5246660000000  0.5329860000000  0.4022590000000 1.0
C      1  0.4479490000000  0.4257920000000  0.5545820000000 1.0
C      1  0.4993970000000  0.4967660000000  0.3925640000000 1.0
C      1  0.4992730000000  0.3951420000000  0.5074410000000 1.0
C      1  0.5921360000000  0.4964170000000  0.5500680000000 1.0
C      1  0.4690270000000  0.5517810000000  0.5990720000000 1.0
C      1  0.5640820000000  0.5711550000000  0.5063040000000 1.0
C      1  0.4072510000000  0.4998900000000  0.5658620000000 1.0
C      1  0.4934300000000  0.4186920000000  0.5717000000000 1.0
C      1  0.4268520000000  0.4421890000000  0.4711230000000 1.0
C      1  0.5839000000000  0.5442260000000  0.5676620000000 1.0
C      1  0.4356410000000  0.4168490000000  0.5307570000000 1.0
C      1  0.5691460000000  0.5812090000000  0.4739690000000 1.0
C      1  0.4973550000000  0.4347880000000  0.5935680000000 1.0
C      1  0.4276420000000  0.4717480000000  0.4823960000000 1.0
C      1  0.4466830000000  0.5200580000000  0.5898750000000 1.0
C      1  0.4817270000000  0.5027890000000  0.4539570000000 1.0
C      1  0.5369960000000  0.4884040000000  0.5634610000000 1.0
C      1  0.4957650000000  0.5259990000000  0.3755860000000 1.0
C      1  0.5491190000000  0.5119930000000  0.4088330000000 1.0
C      1  0.4026870000000  0.5301990000000  0.5509670000000 1.0
C      1  0.4822620000000  0.4830240000000  0.5929110000000 1.0
C      1  0.5008160000000  0.5436020000000  0.5157880000000 1.0
C      1  0.5030930000000  0.5085480000000  0.6040850000000 1.0
C      1  0.4835860000000  0.5760780000000  0.4059550000000 1.0
C      1  0.4163390000000  0.5207900000000  0.4587440000000 1.0
C      1  0.5687870000000  0.5214850000000  0.5872270000000 1.0
C      1  0.3877030000000  0.4971490000000  0.4731350000000 1.0
C      1  0.5217000000000  0.5041870000000  0.5286040000000 1.0
C      1  0.4912240000000  0.4752930000000  0.4373050000000 1.0
C      1  0.4757600000000  0.5139020000000  0.5844500000000 1.0
C      1  0.5744210000000  0.5144760000000  0.5067170000000 1.0
C      1  0.4411910000000  0.5907350000000  0.5259730000000 1.0
C      1  0.4762630000000  0.4422040000000  0.4978340000000 1.0
C      1  0.5081600000000  0.4995670000000  0.5659260000000 1.0
C      1  0.5122240000000  0.4390290000000  0.4807800000000 1.0
C      1  0.4817810000000  0.4288890000000  0.4340400000000 1.0
C      1  0.5221010000000  0.5017360000000  0.4457040000000 1.0
C      1  0.5222740000000  0.5929320000000  0.4425930000000 1.0
C      1  0.4602470000000  0.4811000000000  0.4853830000000 1.0
C      1  0.4509790000000  0.4718850000000  0.5839260000000 1.0
C      1  0.4941010000000  0.4736110000000  0.5556290000000 1.0
C      1  0.5055000000000  0.5513330000000  0.5528870000000 1.0
C      1  0.4863400000000  0.4022580000000  0.4632340000000 1.0
C      1  0.4559710000000  0.4004820000000  0.4228700000000 1.0
C      1  0.4008120000000  0.5602630000000  0.4947410000000 1.0
C      1  0.3859220000000  0.4949930000000  0.5408890000000 1.0
C      1  0.5985590000000  0.5283350000000  0.5451360000000 1.0
C      1  0.4990150000000  0.4009370000000  0.5365490000000 1.0
C      1  0.4968340000000  0.5421120000000  0.6023290000000 1.0
C      1  0.5460590000000  0.4592600000000  0.4063560000000 1.0
C      1  0.5196560000000  0.4053390000000  0.4563920000000 1.0
C      1  0.5402220000000  0.4630110000000  0.5864480000000 1.0
C      1  0.4342980000000  0.4889100000000  0.5505640000000 1.0
C      1  0.4040390000000  0.4725420000000  0.4998120000000 1.0
C      1  0.3985890000000  0.4791770000000  0.4554870000000 1.0
C      1  0.5635170000000  0.4946920000000  0.5924160000000 1.0
C      1  0.5091970000000  0.4678910000000  0.4183200000000 1.0
C      1  0.4147210000000  0.4544480000000  0.5502200000000 1.0
C      1  0.5740270000000  0.4745560000000  0.5688290000000 1.0
C      1  0.4262730000000  0.4250940000000  0.4933900000000 1.0
C      1  0.4352930000000  0.4977160000000  0.5117350000000 1.0
C      1  0.4840660000000  0.4448390000000  0.3975340000000 1.0
C      1  0.4532720000000  0.5194670000000  0.4927280000000 1.0
C      1  0.4690670000000  0.5189360000000  0.4308420000000 1.0
C      1  0.5682500000000  0.5235860000000  0.4271470000000 1.0
C      1  0.5607430000000  0.5645330000000  0.5534690000000 1.0
C      1  0.4750100000000  0.4340870000000  0.4670510000000 1.0
C      1  0.6163150000000  0.4681620000000  0.5364180000000 1.0
C      1  0.5114740000000  0.4380620000000  0.4482960000000 1.0
C      1  0.5665260000000  0.4425710000000  0.5780030000000 1.0
C      1  0.5552770000000  0.5346750000000  0.5415370000000 1.0
C      1  0.5195000000000  0.4053450000000  0.5603770000000 1.0
C      1  0.5497730000000  0.4616060000000  0.5479000000000 1.0
C      1  0.5200310000000  0.5438980000000  0.4808620000000 1.0
C      1  0.4669170000000  0.3892350000000  0.4423610000000 1.0
C      1  0.5726020000000  0.4127770000000  0.4942810000000 1.0
C      1  0.4696070000000  0.4651900000000  0.4602200000000 1.0
C      1  0.3964400000000  0.5289990000000  0.4818640000000 1.0
C      1  0.5612140000000  0.6023750000000  0.5193690000000 1.0
C      1  0.5677470000000  0.5515310000000  0.4260960000000 1.0
C      1  0.4659350000000  0.4824930000000  0.5565320000000 1.0
C      1  0.5434420000000  0.5472680000000  0.4575160000000 1.0
C      1  0.5265500000000  0.5259850000000  0.5547450000000 1.0
C      1  0.5460500000000  0.4004440000000  0.4774820000000 1.0
C      1  0.4491370000000  0.5587840000000  0.5297630000000 1.0
C      1  0.4646990000000  0.5099350000000  0.5359250000000 1.0
C      1  0.5686790000000  0.4866870000000  0.5194370000000 1.0
C      1  0.3923400000000  0.4649860000000  0.5293300000000 1.0
C      1  0.5391630000000  0.4332160000000  0.5598920000000 1.0
C      1  0.4652680000000  0.5846320000000  0.4270220000000 1.0
C      1  0.5806440000000  0.4130970000000  0.5229220000000 1.0
C      1  0.5328040000000  0.4920860000000  0.6028490000000 1.0
C      1  0.5830560000000  0.4339750000000  0.4790390000000 1.0
C      1  0.4916420000000  0.5469830000000  0.4772090000000 1.0
C      1  0.4614330000000  0.5718310000000  0.5802770000000 1.0
C      1  0.5668700000000  0.5784060000000  0.4433070000000 1.0
C      1  0.4776070000000  0.4928020000000  0.5101260000000 1.0
END
