TITL C-2778436-5916-1354 0.00243061478803586 125000 -855.201059433491 0 0 146 (C1) n - 1
REM
REM in /home/nfs/bkarasulu/CARBON/AIRSS/Generating-Clusters/REBO/Only-C1/SD-CG/HFTN-CG
REM
REM
REM
REM
REM
REM ./C.cell (11c1c37f851c82e70ff6c80c92926a4b)
REM
REM compiler GCC version 9.2.1 20190827 (Red Hat 9.2.1-1)
REM options -cpp -mtune=generic -march=x86-64 -g -O0 -fpre-include=/usr/include/finclude/math-vector-fortran.h
REM seed -97110000 376454377 -41112224 -555662710 -1705413517 -109059802 -2066191056 -656680905 -38226809 2078639703 781814643 82258528 1652641721 -282350714 47745802 -184624505 1994852632 -1508445421 -1402664545 1158074987 467041997 -1070362215 1608717047 -1671853137 -1999861598 -422839551 -1310072301 -543883856 202844650 -1683212817 -353558355 -597483567 153114354
REM
CELL 1.54180   50.00000   50.00000   50.00000   90.00000   90.00000   90.00000
LATT -1
SFAC C  
C      1  0.4902700000000  0.5247960000000  0.5037980000000 1.0
C      1  0.4408400000000  0.4683360000000  0.4343200000000 1.0
C      1  0.5139620000000  0.4636440000000  0.4064600000000 1.0
C      1  0.4321400000000  0.5125770000000  0.5437320000000 1.0
C      1  0.4568760000000  0.5214640000000  0.5375760000000 1.0
C      1  0.4541810000000  0.5227700000000  0.4663740000000 1.0
C      1  0.5169660000000  0.4365090000000  0.5517150000000 1.0
C      1  0.4292550000000  0.4320450000000  0.5101340000000 1.0
C      1  0.4427320000000  0.5273700000000  0.4124050000000 1.0
C      1  0.4887490000000  0.4767410000000  0.5682590000000 1.0
C      1  0.5028030000000  0.5003220000000  0.5511900000000 1.0
C      1  0.5048090000000  0.4110360000000  0.4432450000000 1.0
C      1  0.5760020000000  0.5009450000000  0.4824800000000 1.0
C      1  0.5021050000000  0.5463170000000  0.5353010000000 1.0
C      1  0.5040850000000  0.5742880000000  0.4560400000000 1.0
C      1  0.4840620000000  0.4193950000000  0.5665270000000 1.0
C      1  0.5858720000000  0.4450140000000  0.4953860000000 1.0
C      1  0.4955000000000  0.4834480000000  0.4357700000000 1.0
C      1  0.4273160000000  0.4853840000000  0.5432160000000 1.0
C      1  0.4813080000000  0.5744390000000  0.4183990000000 1.0
C      1  0.5560600000000  0.5242850000000  0.5439220000000 1.0
C      1  0.4867730000000  0.5568920000000  0.5068370000000 1.0
C      1  0.5066890000000  0.4031170000000  0.4933990000000 1.0
C      1  0.5592490000000  0.4432920000000  0.4428390000000 1.0
C      1  0.4652020000000  0.4844400000000  0.4493400000000 1.0
C      1  0.6127210000000  0.5109720000000  0.4940030000000 1.0
C      1  0.5148380000000  0.4873360000000  0.5252070000000 1.0
C      1  0.5396280000000  0.4851040000000  0.4788660000000 1.0
C      1  0.4402430000000  0.4462450000000  0.4747630000000 1.0
C      1  0.4703730000000  0.5137640000000  0.4378100000000 1.0
C      1  0.4355210000000  0.5547190000000  0.5753010000000 1.0
C      1  0.4826140000000  0.4357160000000  0.4489630000000 1.0
C      1  0.4701850000000  0.5469790000000  0.5416530000000 1.0
C      1  0.4435150000000  0.5667660000000  0.4642240000000 1.0
C      1  0.4848660000000  0.5897630000000  0.5129470000000 1.0
C      1  0.4860990000000  0.5962570000000  0.4735940000000 1.0
C      1  0.4663480000000  0.4595900000000  0.4924450000000 1.0
C      1  0.4406810000000  0.4760920000000  0.5885960000000 1.0
C      1  0.4312880000000  0.5208170000000  0.4407320000000 1.0
C      1  0.5506900000000  0.5797410000000  0.4758390000000 1.0
C      1  0.4435210000000  0.4850340000000  0.4713930000000 1.0
C      1  0.4971010000000  0.5606900000000  0.4003470000000 1.0
C      1  0.4101850000000  0.5128900000000  0.5071130000000 1.0
C      1  0.5590860000000  0.5868550000000  0.5033980000000 1.0
C      1  0.5226430000000  0.5150230000000  0.5726020000000 1.0
C      1  0.5755020000000  0.4311440000000  0.4699790000000 1.0
C      1  0.4539990000000  0.5931780000000  0.5066640000000 1.0
C      1  0.5423070000000  0.5434750000000  0.5026930000000 1.0
C      1  0.5575690000000  0.4747350000000  0.4290790000000 1.0
C      1  0.6023170000000  0.4660020000000  0.5060560000000 1.0
C      1  0.5064950000000  0.4329430000000  0.4970410000000 1.0
C      1  0.4829200000000  0.4653450000000  0.4083800000000 1.0
C      1  0.5670650000000  0.4782040000000  0.4597960000000 1.0
C      1  0.4415520000000  0.5078640000000  0.4944470000000 1.0
C      1  0.5844930000000  0.5704140000000  0.5138440000000 1.0
C      1  0.4607560000000  0.4224490000000  0.4691850000000 1.0
C      1  0.5451250000000  0.4827780000000  0.5339120000000 1.0
C      1  0.3829660000000  0.4904700000000  0.5421800000000 1.0
C      1  0.4104500000000  0.5651470000000  0.5607280000000 1.0
C      1  0.5082840000000  0.4541970000000  0.4370970000000 1.0
C      1  0.4532860000000  0.4584970000000  0.5696370000000 1.0
C      1  0.4122940000000  0.5645410000000  0.4996840000000 1.0
C      1  0.4764600000000  0.5056620000000  0.5807960000000 1.0
C      1  0.5617820000000  0.4065290000000  0.4791030000000 1.0
C      1  0.4486110000000  0.5036760000000  0.5870180000000 1.0
C      1  0.5184990000000  0.3967980000000  0.4683290000000 1.0
C      1  0.4062820000000  0.5363770000000  0.4843760000000 1.0
C      1  0.5624500000000  0.4358960000000  0.5157150000000 1.0
C      1  0.4354290000000  0.5787130000000  0.4927000000000 1.0
C      1  0.5384250000000  0.5491480000000  0.4383120000000 1.0
C      1  0.4053680000000  0.4829760000000  0.4931070000000 1.0
C      1  0.5383160000000  0.4163350000000  0.4482690000000 1.0
C      1  0.5098490000000  0.5935580000000  0.5334520000000 1.0
C      1  0.5998870000000  0.4778280000000  0.4603350000000 1.0
C      1  0.5341200000000  0.5271090000000  0.4758020000000 1.0
C      1  0.4833370000000  0.5117200000000  0.5281980000000 1.0
C      1  0.4708990000000  0.5227020000000  0.4069980000000 1.0
C      1  0.4672470000000  0.5700360000000  0.4407140000000 1.0
C      1  0.5217880000000  0.5137920000000  0.4063910000000 1.0
C      1  0.5418860000000  0.5687160000000  0.5580020000000 1.0
C      1  0.4621380000000  0.5615320000000  0.5669530000000 1.0
C      1  0.5067000000000  0.4842480000000  0.4740940000000 1.0
C      1  0.5408740000000  0.4642580000000  0.5831150000000 1.0
C      1  0.5361260000000  0.5996630000000  0.5165460000000 1.0
C      1  0.5645950000000  0.4911070000000  0.5098880000000 1.0
C      1  0.5031120000000  0.5154830000000  0.4338650000000 1.0
C      1  0.5252480000000  0.4403300000000  0.5788520000000 1.0
C      1  0.5454830000000  0.5279690000000  0.4201540000000 1.0
C      1  0.5096930000000  0.6059730000000  0.4960150000000 1.0
C      1  0.4932230000000  0.5087840000000  0.4806550000000 1.0
C      1  0.4030470000000  0.4704650000000  0.5479840000000 1.0
C      1  0.5250360000000  0.4490000000000  0.4855250000000 1.0
C      1  0.5328810000000  0.4148840000000  0.5324520000000 1.0
C      1  0.5341270000000  0.4837220000000  0.4068630000000 1.0
C      1  0.5499720000000  0.4614080000000  0.5010530000000 1.0
C      1  0.5259970000000  0.5275360000000  0.5280850000000 1.0
C      1  0.3937600000000  0.5148010000000  0.5333680000000 1.0
C      1  0.5565080000000  0.4354280000000  0.5458120000000 1.0
C      1  0.4225800000000  0.5453060000000  0.4584280000000 1.0
C      1  0.5585870000000  0.5615970000000  0.4547980000000 1.0
C      1  0.6129430000000  0.4833200000000  0.4851500000000 1.0
C      1  0.5655620000000  0.5050620000000  0.5668920000000 1.0
C      1  0.5044820000000  0.4034930000000  0.5239990000000 1.0
C      1  0.5094650000000  0.5423180000000  0.4509370000000 1.0
C      1  0.4314340000000  0.5251730000000  0.5816120000000 1.0
C      1  0.4158750000000  0.4677550000000  0.4645720000000 1.0
C      1  0.5511500000000  0.5574760000000  0.5810000000000 1.0
C      1  0.5513120000000  0.4086710000000  0.5044870000000 1.0
C      1  0.4728920000000  0.5690860000000  0.4810200000000 1.0
C      1  0.5718830000000  0.5505350000000  0.4932430000000 1.0
C      1  0.4635900000000  0.4505860000000  0.4250270000000 1.0
C      1  0.5908050000000  0.5118690000000  0.5179650000000 1.0
C      1  0.4053140000000  0.5061180000000  0.4685720000000 1.0
C      1  0.4083160000000  0.4425800000000  0.5526470000000 1.0
C      1  0.4269710000000  0.4254770000000  0.5394110000000 1.0
C      1  0.5592440000000  0.5083620000000  0.4349430000000 1.0
C      1  0.4894980000000  0.4608430000000  0.4716260000000 1.0
C      1  0.4090500000000  0.5317420000000  0.5562070000000 1.0
C      1  0.5121820000000  0.5709880000000  0.5542800000000 1.0
C      1  0.4913290000000  0.5550510000000  0.5743730000000 1.0
C      1  0.4183110000000  0.4920470000000  0.4411490000000 1.0
C      1  0.4816210000000  0.4076720000000  0.5405810000000 1.0
C      1  0.4770690000000  0.5453230000000  0.4608350000000 1.0
C      1  0.5573860000000  0.5166890000000  0.4620030000000 1.0
C      1  0.4984490000000  0.4557580000000  0.5433270000000 1.0
C      1  0.4553430000000  0.4094110000000  0.5292370000000 1.0
C      1  0.5842710000000  0.5494200000000  0.4553240000000 1.0
C      1  0.5500310000000  0.5306170000000  0.5829250000000 1.0
C      1  0.4518060000000  0.4151590000000  0.4970730000000 1.0
C      1  0.5822020000000  0.4808750000000  0.5552600000000 1.0
C      1  0.4913700000000  0.4652830000000  0.5148290000000 1.0
C      1  0.5295070000000  0.4469310000000  0.4559530000000 1.0
C      1  0.5829650000000  0.5400500000000  0.5298650000000 1.0
C      1  0.5247050000000  0.5894540000000  0.4717890000000 1.0
C      1  0.4949410000000  0.5272440000000  0.5795780000000 1.0
C      1  0.5530350000000  0.5562070000000  0.5327820000000 1.0
C      1  0.5562050000000  0.4626200000000  0.5564900000000 1.0
C      1  0.5908900000000  0.5298920000000  0.4793680000000 1.0
C      1  0.4276640000000  0.4623070000000  0.5020710000000 1.0
C      1  0.5420870000000  0.4926860000000  0.5869590000000 1.0
C      1  0.4958140000000  0.5322510000000  0.3983660000000 1.0
C      1  0.5970170000000  0.4821070000000  0.5309900000000 1.0
C      1  0.4791450000000  0.4450820000000  0.5765890000000 1.0
C      1  0.4520580000000  0.4690780000000  0.5434520000000 1.0
C      1  0.4522860000000  0.4809380000000  0.5123950000000 1.0
C      1  0.5268670000000  0.5067320000000  0.5018650000000 1.0
END
