TITL C-2778434-4341-644 0.00201965663606737 125000 -229.075720143198 0 0 40 (C1) n - 1
REM
REM in /home/nfs/bkarasulu/CARBON/AIRSS/Generating-Clusters/REBO/Only-C1/SD-CG/HFTN-CG
REM
REM
REM
REM
REM
REM ./C.cell (11c1c37f851c82e70ff6c80c92926a4b)
REM
REM compiler GCC version 9.2.1 20190827 (Red Hat 9.2.1-1)
REM options -cpp -mtune=generic -march=x86-64 -g -O0 -fpre-include=/usr/include/finclude/math-vector-fortran.h
REM seed -412202401 -1054132939 711610077 539916300 -1884829677 -1275056465 -361562873 -1048924382 22098562 1171660865 -1553906259 627050549 994563435 1438583907 2119735729 -369958366 170088582 -1396885224 1503039216 1778578592 1053128985 -2108726181 -502324931 -905516212 598804019 -179937549 934639691 -6634267 729503425 -980490177 736536653 1515267415 66488655
REM
CELL 1.54180   50.00000   50.00000   50.00000   90.00000   90.00000   90.00000
LATT -1
SFAC C  
C      1  0.5063570000000  0.5655270000000  0.4932300000000 1.0
C      1  0.5028770000000  0.5204280000000  0.5660710000000 1.0
C      1  0.5172270000000  0.4384360000000  0.4688970000000 1.0
C      1  0.5558460000000  0.4468430000000  0.4949550000000 1.0
C      1  0.4738640000000  0.4919930000000  0.5164060000000 1.0
C      1  0.5411860000000  0.4841860000000  0.4648580000000 1.0
C      1  0.5060300000000  0.5189160000000  0.4517620000000 1.0
C      1  0.5118280000000  0.4341800000000  0.4975260000000 1.0
C      1  0.4820410000000  0.5588320000000  0.5369510000000 1.0
C      1  0.4520530000000  0.5482960000000  0.5369910000000 1.0
C      1  0.5354330000000  0.4886110000000  0.5452930000000 1.0
C      1  0.4845290000000  0.5002980000000  0.5727490000000 1.0
C      1  0.5412960000000  0.4958730000000  0.4946140000000 1.0
C      1  0.4701820000000  0.4795180000000  0.5621050000000 1.0
C      1  0.4470230000000  0.4786760000000  0.4792290000000 1.0
C      1  0.4309240000000  0.5372230000000  0.4683490000000 1.0
C      1  0.4574070000000  0.5528260000000  0.5063240000000 1.0
C      1  0.5045130000000  0.5446660000000  0.5464000000000 1.0
C      1  0.4527300000000  0.5319030000000  0.4851550000000 1.0
C      1  0.4634330000000  0.4728360000000  0.5353990000000 1.0
C      1  0.4547080000000  0.5018070000000  0.4970630000000 1.0
C      1  0.5657380000000  0.4945330000000  0.4493870000000 1.0
C      1  0.5319970000000  0.4490300000000  0.5129770000000 1.0
C      1  0.5174270000000  0.5402740000000  0.4990320000000 1.0
C      1  0.5150920000000  0.4926050000000  0.4502570000000 1.0
C      1  0.4920010000000  0.4753020000000  0.4509660000000 1.0
C      1  0.5006890000000  0.4955490000000  0.5089830000000 1.0
C      1  0.4465100000000  0.4538520000000  0.5220310000000 1.0
C      1  0.5032330000000  0.5176160000000  0.4914640000000 1.0
C      1  0.4399880000000  0.4557140000000  0.4948290000000 1.0
C      1  0.5431530000000  0.4531220000000  0.4687640000000 1.0
C      1  0.4826710000000  0.5710230000000  0.5075080000000 1.0
C      1  0.5510010000000  0.5199550000000  0.5052990000000 1.0
C      1  0.4697300000000  0.4893380000000  0.4621610000000 1.0
C      1  0.5860750000000  0.5031040000000  0.4365730000000 1.0
C      1  0.5320170000000  0.5367990000000  0.5277500000000 1.0
C      1  0.5293130000000  0.5143320000000  0.5519260000000 1.0
C      1  0.5264770000000  0.4785930000000  0.5174190000000 1.0
C      1  0.4785490000000  0.5197780000000  0.4706340000000 1.0
C      1  0.4968500000000  0.4476090000000  0.4517140000000 1.0
END
