TITL C-2778429-3646-1195 0.0018571034719917 125000 -1062.26922668517 0 0 182 (C1) n - 1
REM
REM in /home/nfs/bkarasulu/CARBON/AIRSS/Generating-Clusters/REBO/Only-C1/SD-CG/HFTN-CG
REM
REM
REM
REM
REM
REM ./C.cell (11c1c37f851c82e70ff6c80c92926a4b)
REM
REM compiler GCC version 9.2.1 20190827 (Red Hat 9.2.1-1)
REM options -cpp -mtune=generic -march=x86-64 -g -O0 -fpre-include=/usr/include/finclude/math-vector-fortran.h
REM seed 1288655844 567727186 -1532606977 1138401050 -698470173 -827931016 1211098074 1766584611 -554925948 -271399805 -429421265 1168952248 -39124987 407340266 -1684534961 1396814050 -1471103249 -1793762659 474937667 -1466780245 -1792466038 987312801 1119327240 1857300966 -1012328394 -295390161 -232184796 -564800515 175567643 -838554298 -28733659 1157217314 -1788679675
REM
CELL 1.54180   50.00000   50.00000   50.00000   90.00000   90.00000   90.00000
LATT -1
SFAC C  
C      1  0.4502350000000  0.5212970000000  0.5562120000000 1.0
C      1  0.5913700000000  0.4825920000000  0.5512070000000 1.0
C      1  0.4880100000000  0.6137220000000  0.4873680000000 1.0
C      1  0.5663240000000  0.5271860000000  0.4864100000000 1.0
C      1  0.4820770000000  0.5255170000000  0.6050690000000 1.0
C      1  0.4454430000000  0.4852510000000  0.4714610000000 1.0
C      1  0.5345670000000  0.5099800000000  0.5035700000000 1.0
C      1  0.4092270000000  0.4844230000000  0.4449610000000 1.0
C      1  0.4713940000000  0.4427230000000  0.4848590000000 1.0
C      1  0.4493580000000  0.5636880000000  0.4395330000000 1.0
C      1  0.4675920000000  0.6137160000000  0.5010490000000 1.0
C      1  0.4530310000000  0.4746450000000  0.4176560000000 1.0
C      1  0.5399100000000  0.6029430000000  0.4713740000000 1.0
C      1  0.5985390000000  0.5121930000000  0.5410740000000 1.0
C      1  0.5660500000000  0.5089130000000  0.4294720000000 1.0
C      1  0.4931010000000  0.4273310000000  0.4726520000000 1.0
C      1  0.4188380000000  0.4598490000000  0.5466150000000 1.0
C      1  0.5145870000000  0.5533210000000  0.5787950000000 1.0
C      1  0.4890530000000  0.5581990000000  0.6005130000000 1.0
C      1  0.4424350000000  0.4916900000000  0.5037840000000 1.0
C      1  0.6013910000000  0.5299910000000  0.4675530000000 1.0
C      1  0.4512660000000  0.4414110000000  0.5083490000000 1.0
C      1  0.5289510000000  0.4840250000000  0.4636060000000 1.0
C      1  0.5317260000000  0.5750670000000  0.4095520000000 1.0
C      1  0.5350630000000  0.5633820000000  0.4710950000000 1.0
C      1  0.5413780000000  0.5057560000000  0.5867100000000 1.0
C      1  0.5402720000000  0.5329830000000  0.4714250000000 1.0
C      1  0.3983630000000  0.5025670000000  0.5258030000000 1.0
C      1  0.5421090000000  0.5764480000000  0.5612760000000 1.0
C      1  0.5168080000000  0.4468470000000  0.3973380000000 1.0
C      1  0.4745640000000  0.4544970000000  0.4349080000000 1.0
C      1  0.4130750000000  0.4769290000000  0.4932210000000 1.0
C      1  0.4602940000000  0.5504280000000  0.5838870000000 1.0
C      1  0.5087500000000  0.5948080000000  0.4749970000000 1.0
C      1  0.5396460000000  0.5130180000000  0.4493020000000 1.0
C      1  0.4699950000000  0.5108530000000  0.4361110000000 1.0
C      1  0.4224930000000  0.5394010000000  0.4810510000000 1.0
C      1  0.4873290000000  0.4074310000000  0.4256000000000 1.0
C      1  0.5772130000000  0.4363140000000  0.4757040000000 1.0
C      1  0.4921440000000  0.5808090000000  0.5466630000000 1.0
C      1  0.5833910000000  0.5539350000000  0.4732530000000 1.0
C      1  0.4251120000000  0.4226150000000  0.4853560000000 1.0
C      1  0.5027920000000  0.5624800000000  0.5214640000000 1.0
C      1  0.4782050000000  0.5135040000000  0.5734940000000 1.0
C      1  0.5237430000000  0.4966190000000  0.4168580000000 1.0
C      1  0.4900080000000  0.3939340000000  0.5217540000000 1.0
C      1  0.5480270000000  0.5726300000000  0.5075770000000 1.0
C      1  0.4046760000000  0.5358780000000  0.4543200000000 1.0
C      1  0.5605430000000  0.5418510000000  0.5148580000000 1.0
C      1  0.5185730000000  0.5923040000000  0.4252270000000 1.0
C      1  0.5193040000000  0.4571200000000  0.5895480000000 1.0
C      1  0.4007080000000  0.4706420000000  0.5215490000000 1.0
C      1  0.4281060000000  0.5149630000000  0.4055570000000 1.0
C      1  0.4598290000000  0.4689240000000  0.5498470000000 1.0
C      1  0.5683520000000  0.4615150000000  0.5654560000000 1.0
C      1  0.5417800000000  0.4191250000000  0.4760740000000 1.0
C      1  0.4477340000000  0.5724910000000  0.5638980000000 1.0
C      1  0.5095980000000  0.5133410000000  0.5639920000000 1.0
C      1  0.3980520000000  0.4888790000000  0.4706890000000 1.0
C      1  0.5335340000000  0.4702100000000  0.4360610000000 1.0
C      1  0.5488210000000  0.4696580000000  0.5382680000000 1.0
C      1  0.4821100000000  0.4829170000000  0.5766780000000 1.0
C      1  0.4959810000000  0.5025650000000  0.3740020000000 1.0
C      1  0.5603520000000  0.4074150000000  0.5551700000000 1.0
C      1  0.4789630000000  0.5686950000000  0.4702950000000 1.0
C      1  0.6030340000000  0.4472180000000  0.4673390000000 1.0
C      1  0.4479480000000  0.4873400000000  0.5988240000000 1.0
C      1  0.4500980000000  0.5946770000000  0.5170310000000 1.0
C      1  0.4449010000000  0.3996870000000  0.4982320000000 1.0
C      1  0.5653710000000  0.4155460000000  0.4985390000000 1.0
C      1  0.4066000000000  0.5537480000000  0.5075820000000 1.0
C      1  0.5863970000000  0.4558040000000  0.5306410000000 1.0
C      1  0.5727080000000  0.5533820000000  0.5721770000000 1.0
C      1  0.4999290000000  0.4765530000000  0.6045500000000 1.0
C      1  0.5459760000000  0.5026360000000  0.3941950000000 1.0
C      1  0.4178620000000  0.5121870000000  0.4357460000000 1.0
C      1  0.5126930000000  0.4200880000000  0.4113000000000 1.0
C      1  0.5605020000000  0.5014560000000  0.5341750000000 1.0
C      1  0.4862150000000  0.5400110000000  0.4046040000000 1.0
C      1  0.5742350000000  0.5773170000000  0.5489940000000 1.0
C      1  0.4772970000000  0.5154460000000  0.3922850000000 1.0
C      1  0.4308740000000  0.5751250000000  0.4969590000000 1.0
C      1  0.4613780000000  0.4216930000000  0.5314610000000 1.0
C      1  0.5575100000000  0.5921160000000  0.5280530000000 1.0
C      1  0.4548790000000  0.5369200000000  0.4706570000000 1.0
C      1  0.5626890000000  0.5799600000000  0.4711070000000 1.0
C      1  0.4400880000000  0.5320160000000  0.5080900000000 1.0
C      1  0.4051780000000  0.5507110000000  0.5381440000000 1.0
C      1  0.4460000000000  0.5699920000000  0.4710210000000 1.0
C      1  0.5260400000000  0.4902440000000  0.5506470000000 1.0
C      1  0.4794320000000  0.5599220000000  0.4314060000000 1.0
C      1  0.5026040000000  0.5883870000000  0.5933330000000 1.0
C      1  0.4267450000000  0.4656110000000  0.4341090000000 1.0
C      1  0.5346720000000  0.4412470000000  0.5318320000000 1.0
C      1  0.4731620000000  0.4738740000000  0.4830500000000 1.0
C      1  0.5982580000000  0.4771560000000  0.4633480000000 1.0
C      1  0.4622510000000  0.5885350000000  0.5454110000000 1.0
C      1  0.5641190000000  0.4322020000000  0.5240550000000 1.0
C      1  0.5017640000000  0.4726560000000  0.4122620000000 1.0
C      1  0.5790530000000  0.5382200000000  0.5435190000000 1.0
C      1  0.5180200000000  0.5454620000000  0.4061850000000 1.0
C      1  0.5133950000000  0.4525160000000  0.5558510000000 1.0
C      1  0.5469090000000  0.5321820000000  0.5696300000000 1.0
C      1  0.4883330000000  0.4375080000000  0.5216880000000 1.0
C      1  0.5780660000000  0.4813040000000  0.5136510000000 1.0
C      1  0.5616490000000  0.4783820000000  0.4214770000000 1.0
C      1  0.4953010000000  0.5040690000000  0.4968000000000 1.0
C      1  0.5130450000000  0.4188250000000  0.5179270000000 1.0
C      1  0.5185240000000  0.3889650000000  0.4882980000000 1.0
C      1  0.5925930000000  0.5155910000000  0.4457650000000 1.0
C      1  0.5778640000000  0.4321310000000  0.5542800000000 1.0
C      1  0.5182890000000  0.4326810000000  0.4879530000000 1.0
C      1  0.4951030000000  0.4343140000000  0.4437500000000 1.0
C      1  0.4450480000000  0.4928950000000  0.5661800000000 1.0
C      1  0.4978180000000  0.5834550000000  0.4465180000000 1.0
C      1  0.5092920000000  0.5069690000000  0.5975770000000 1.0
C      1  0.4690580000000  0.4036870000000  0.4513460000000 1.0
C      1  0.5934020000000  0.5624270000000  0.5245460000000 1.0
C      1  0.4904360000000  0.5319960000000  0.4434060000000 1.0
C      1  0.4776360000000  0.5433930000000  0.5150440000000 1.0
C      1  0.5130840000000  0.5912880000000  0.5667000000000 1.0
C      1  0.5122600000000  0.4818400000000  0.3817530000000 1.0
C      1  0.4474890000000  0.4390050000000  0.5641470000000 1.0
C      1  0.4484700000000  0.5215130000000  0.5982630000000 1.0
C      1  0.5159650000000  0.5242060000000  0.4296510000000 1.0
C      1  0.5411330000000  0.5279010000000  0.5377590000000 1.0
C      1  0.5624270000000  0.4672050000000  0.4773770000000 1.0
C      1  0.4707920000000  0.3920320000000  0.5014170000000 1.0
C      1  0.5689250000000  0.5009980000000  0.5671780000000 1.0
C      1  0.5028750000000  0.4994800000000  0.5273780000000 1.0
C      1  0.4917520000000  0.5285050000000  0.5393280000000 1.0
C      1  0.5226290000000  0.4642310000000  0.4908440000000 1.0
C      1  0.4518510000000  0.5608160000000  0.5185230000000 1.0
C      1  0.5464580000000  0.4841920000000  0.5010230000000 1.0
C      1  0.4700620000000  0.4759880000000  0.6139390000000 1.0
C      1  0.5447250000000  0.5590960000000  0.5905520000000 1.0
C      1  0.5532550000000  0.4352800000000  0.4510280000000 1.0
C      1  0.4204780000000  0.5512520000000  0.4306790000000 1.0
C      1  0.4299530000000  0.5486540000000  0.5579460000000 1.0
C      1  0.4286740000000  0.4281340000000  0.5383930000000 1.0
C      1  0.6104750000000  0.5194790000000  0.4924940000000 1.0
C      1  0.5497550000000  0.5502360000000  0.4001050000000 1.0
C      1  0.5352810000000  0.4025010000000  0.5416860000000 1.0
C      1  0.4314770000000  0.4655920000000  0.5778030000000 1.0
C      1  0.5412660000000  0.4743090000000  0.5768250000000 1.0
C      1  0.5110890000000  0.4179620000000  0.5577140000000 1.0
C      1  0.5400310000000  0.3959230000000  0.5085450000000 1.0
C      1  0.3923890000000  0.5241540000000  0.5024100000000 1.0
C      1  0.5226510000000  0.5530750000000  0.5456740000000 1.0
C      1  0.5421730000000  0.4691480000000  0.3947650000000 1.0
C      1  0.4021090000000  0.5206920000000  0.5543770000000 1.0
C      1  0.4537880000000  0.4988150000000  0.4016640000000 1.0
C      1  0.5731680000000  0.4619750000000  0.4453950000000 1.0
C      1  0.5197510000000  0.4272250000000  0.5860310000000 1.0
C      1  0.5181380000000  0.5727490000000  0.4979360000000 1.0
C      1  0.5141680000000  0.5288870000000  0.4890970000000 1.0
C      1  0.4443270000000  0.5096340000000  0.4546430000000 1.0
C      1  0.4886730000000  0.5381490000000  0.4745310000000 1.0
C      1  0.4860790000000  0.5507900000000  0.5615000000000 1.0
C      1  0.6083120000000  0.5324200000000  0.5176730000000 1.0
C      1  0.4918780000000  0.4715830000000  0.5415880000000 1.0
C      1  0.5263880000000  0.4403130000000  0.4353950000000 1.0
C      1  0.5631030000000  0.5260150000000  0.4018190000000 1.0
C      1  0.4490180000000  0.5337850000000  0.4231930000000 1.0
C      1  0.4424050000000  0.4673140000000  0.5230590000000 1.0
C      1  0.4851990000000  0.4849450000000  0.4390290000000 1.0
C      1  0.4455780000000  0.4443250000000  0.4425620000000 1.0
C      1  0.6028440000000  0.4895450000000  0.4941880000000 1.0
C      1  0.4984160000000  0.4869080000000  0.4684260000000 1.0
C      1  0.4207450000000  0.5271900000000  0.5821890000000 1.0
C      1  0.4796450000000  0.4280260000000  0.5595010000000 1.0
C      1  0.5803530000000  0.5729890000000  0.4994390000000 1.0
C      1  0.3908530000000  0.5157180000000  0.4755180000000 1.0
C      1  0.4664570000000  0.5143040000000  0.5014380000000 1.0
C      1  0.4811200000000  0.4522340000000  0.5792060000000 1.0
C      1  0.4337010000000  0.4553020000000  0.4828110000000 1.0
C      1  0.4880730000000  0.3958020000000  0.4765160000000 1.0
C      1  0.4117760000000  0.4395200000000  0.5120900000000 1.0
C      1  0.4944170000000  0.4657500000000  0.5078640000000 1.0
C      1  0.4458100000000  0.4207480000000  0.4581290000000 1.0
C      1  0.4278250000000  0.5185720000000  0.5317250000000 1.0
C      1  0.5755400000000  0.4989950000000  0.4779900000000 1.0
END
