TITL C-2778431-5191-1203 -0.00108347442704769 125000 -188.080407942816 0 0 33 (C1) n - 1
REM
REM in /home/nfs/bkarasulu/CARBON/AIRSS/Generating-Clusters/REBO/Only-C1/SD-CG/HFTN-CG
REM
REM
REM
REM
REM
REM ./C.cell (11c1c37f851c82e70ff6c80c92926a4b)
REM
REM compiler GCC version 9.2.1 20190827 (Red Hat 9.2.1-1)
REM options -cpp -mtune=generic -march=x86-64 -g -O0 -fpre-include=/usr/include/finclude/math-vector-fortran.h
REM seed 890394435 -895414562 1858333806 1126494066 -1793179787 -1250837492 391711717 1467354276 -894851288 63539491 -1502022676 -876736676 -2101233285 -570051527 1099090262 1355392732 -276436052 -761827707 611665072 913944179 1990655054 1780992259 -548514130 -1668794200 1527934912 631706612 -1854693092 -1695641075 -715079879 -1608804469 1065761720 536177226 1881493211
REM
CELL 1.54180   50.00000   50.00000   50.00000   90.00000   90.00000   90.00000
LATT -1
SFAC C  
C      1  0.4735730000000  0.5265950000000  0.4908320000000 1.0
C      1  0.4894290000000  0.4574050000000  0.4339290000000 1.0
C      1  0.5539540000000  0.4551150000000  0.4893720000000 1.0
C      1  0.5057350000000  0.4776860000000  0.5376930000000 1.0
C      1  0.5155580000000  0.5167360000000  0.5751000000000 1.0
C      1  0.5722630000000  0.4750180000000  0.4836430000000 1.0
C      1  0.4923490000000  0.5335370000000  0.5139610000000 1.0
C      1  0.5167220000000  0.5488900000000  0.4980550000000 1.0
C      1  0.4209640000000  0.5197550000000  0.4956920000000 1.0
C      1  0.5116670000000  0.5480390000000  0.4698560000000 1.0
C      1  0.5214820000000  0.5182700000000  0.5110030000000 1.0
C      1  0.4472630000000  0.5231740000000  0.4932620000000 1.0
C      1  0.3687860000000  0.5129700000000  0.5005120000000 1.0
C      1  0.4851560000000  0.5406100000000  0.5426110000000 1.0
C      1  0.5269160000000  0.4619840000000  0.4948590000000 1.0
C      1  0.5613630000000  0.5078230000000  0.5417350000000 1.0
C      1  0.5224310000000  0.5217430000000  0.4568170000000 1.0
C      1  0.5065900000000  0.4535850000000  0.4773010000000 1.0
C      1  0.4734630000000  0.4750250000000  0.4512060000000 1.0
C      1  0.4796500000000  0.4663270000000  0.4793270000000 1.0
C      1  0.5220320000000  0.4849780000000  0.5138110000000 1.0
C      1  0.5511330000000  0.5071230000000  0.5134030000000 1.0
C      1  0.5439260000000  0.5047220000000  0.5637460000000 1.0
C      1  0.5094780000000  0.4449200000000  0.4495910000000 1.0
C      1  0.4888010000000  0.5237570000000  0.4628180000000 1.0
C      1  0.4962860000000  0.5351550000000  0.5666760000000 1.0
C      1  0.4732130000000  0.5030240000000  0.4463130000000 1.0
C      1  0.4692290000000  0.4689540000000  0.5052950000000 1.0
C      1  0.5627230000000  0.5016310000000  0.4862160000000 1.0
C      1  0.3946660000000  0.5163350000000  0.4981210000000 1.0
C      1  0.5163710000000  0.4872610000000  0.5618920000000 1.0
C      1  0.4795850000000  0.4699370000000  0.5306590000000 1.0
C      1  0.5472430000000  0.5119180000000  0.4646920000000 1.0
END
