TITL C-2778432-5617-766 -0.0018347193533231 125000 -368.013401562444 0 0 62 (C1) n - 1
REM
REM in /home/nfs/bkarasulu/CARBON/AIRSS/Generating-Clusters/REBO/Only-C1/SD-CG/HFTN-CG
REM
REM
REM
REM
REM
REM ./C.cell (11c1c37f851c82e70ff6c80c92926a4b)
REM
REM compiler GCC version 9.2.1 20190827 (Red Hat 9.2.1-1)
REM options -cpp -mtune=generic -march=x86-64 -g -O0 -fpre-include=/usr/include/finclude/math-vector-fortran.h
REM seed -360917132 -442121095 1409148975 -426323965 -903361635 1170731370 -198312506 535169476 1343677595 272912396 1156278661 339292798 777241812 -683240667 1347627101 1054942288 -1446422037 1952616669 -166698051 476395986 -1353013027 1755897394 1623362669 -1373889372 1921041731 21599244 1422154172 -427996549 871130691 -351514664 -1290863981 -2040992294 -900179093
REM
CELL 1.54180   50.00000   50.00000   50.00000   90.00000   90.00000   90.00000
LATT -1
SFAC C  
C      1  0.4346000000000  0.5284650000000  0.5538640000000 1.0
C      1  0.5315340000000  0.4905360000000  0.5616410000000 1.0
C      1  0.5110870000000  0.5390930000000  0.5646240000000 1.0
C      1  0.4683370000000  0.4782060000000  0.4357630000000 1.0
C      1  0.5610010000000  0.4997040000000  0.5467990000000 1.0
C      1  0.4648970000000  0.4284730000000  0.4684360000000 1.0
C      1  0.4330480000000  0.4678710000000  0.4924850000000 1.0
C      1  0.4984390000000  0.5881870000000  0.4961720000000 1.0
C      1  0.4275270000000  0.4678080000000  0.4655750000000 1.0
C      1  0.5397840000000  0.4949820000000  0.4911050000000 1.0
C      1  0.4576890000000  0.5460770000000  0.5575590000000 1.0
C      1  0.4807360000000  0.5254140000000  0.5668320000000 1.0
C      1  0.4832420000000  0.4314390000000  0.5219090000000 1.0
C      1  0.5015960000000  0.5004840000000  0.5241090000000 1.0
C      1  0.4890320000000  0.4592360000000  0.4394930000000 1.0
C      1  0.4797240000000  0.4738860000000  0.4836850000000 1.0
C      1  0.5127600000000  0.5498730000000  0.5200980000000 1.0
C      1  0.4418400000000  0.4708040000000  0.4424940000000 1.0
C      1  0.4834270000000  0.4730390000000  0.5467610000000 1.0
C      1  0.5341450000000  0.4797220000000  0.4423640000000 1.0
C      1  0.4340660000000  0.5219470000000  0.4931720000000 1.0
C      1  0.5200700000000  0.5778480000000  0.4872500000000 1.0
C      1  0.5027670000000  0.5180670000000  0.4334810000000 1.0
C      1  0.4695490000000  0.4559330000000  0.5276500000000 1.0
C      1  0.5740400000000  0.4683480000000  0.5413830000000 1.0
C      1  0.5279530000000  0.5449290000000  0.4913250000000 1.0
C      1  0.4866660000000  0.4469080000000  0.4676770000000 1.0
C      1  0.4693870000000  0.4961780000000  0.5551020000000 1.0
C      1  0.4447550000000  0.5045040000000  0.5406670000000 1.0
C      1  0.4762680000000  0.5057640000000  0.4450410000000 1.0
C      1  0.5264900000000  0.5074320000000  0.4469290000000 1.0
C      1  0.4909290000000  0.5577000000000  0.4542590000000 1.0
C      1  0.5110750000000  0.4345930000000  0.4814040000000 1.0
C      1  0.5073260000000  0.5085000000000  0.5534700000000 1.0
C      1  0.4846800000000  0.5432030000000  0.5163820000000 1.0
C      1  0.4797750000000  0.5144800000000  0.5075090000000 1.0
C      1  0.5787900000000  0.4705720000000  0.5082210000000 1.0
C      1  0.5207810000000  0.4839690000000  0.5103330000000 1.0
C      1  0.4711040000000  0.5753060000000  0.5042640000000 1.0
C      1  0.5652130000000  0.5168440000000  0.5219480000000 1.0
C      1  0.5145650000000  0.4642060000000  0.4286850000000 1.0
C      1  0.4651030000000  0.5602460000000  0.5341580000000 1.0
C      1  0.4998210000000  0.5464810000000  0.4310690000000 1.0
C      1  0.5554890000000  0.4493240000000  0.5205100000000 1.0
C      1  0.5085640000000  0.4340070000000  0.5095060000000 1.0
C      1  0.4458920000000  0.5372000000000  0.4721250000000 1.0
C      1  0.5547600000000  0.5402740000000  0.5119700000000 1.0
C      1  0.5367800000000  0.4382380000000  0.4720600000000 1.0
C      1  0.4969840000000  0.5366460000000  0.4790690000000 1.0
C      1  0.5206130000000  0.5556580000000  0.5454430000000 1.0
C      1  0.5602820000000  0.4758050000000  0.5711870000000 1.0
C      1  0.5480920000000  0.4657950000000  0.4623180000000 1.0
C      1  0.4859420000000  0.5049300000000  0.4761880000000 1.0
C      1  0.5329600000000  0.5165160000000  0.4731410000000 1.0
C      1  0.4591270000000  0.4690590000000  0.5037670000000 1.0
C      1  0.4499530000000  0.5088290000000  0.5127870000000 1.0
C      1  0.5667320000000  0.4971930000000  0.5011510000000 1.0
C      1  0.4690230000000  0.5553170000000  0.4799730000000 1.0
C      1  0.4509270000000  0.5246000000000  0.4479930000000 1.0
C      1  0.5261460000000  0.4546420000000  0.5227890000000 1.0
C      1  0.5119440000000  0.4694260000000  0.5473210000000 1.0
C      1  0.5641770000000  0.4492840000000  0.4875510000000 1.0
END
