TITL C-2778424-3986-569 0.142196389700953 125000 -531.057623559298 0 0 92 (C1) n - 1
REM
REM in /home/nfs/bkarasulu/CARBON/AIRSS/Generating-Clusters/REBO/Only-C1/SD-CG/HFTN-CG
REM
REM
REM
REM
REM
REM ./C.cell (11c1c37f851c82e70ff6c80c92926a4b)
REM
REM compiler GCC version 9.2.1 20190827 (Red Hat 9.2.1-1)
REM options -cpp -mtune=generic -march=x86-64 -g -O0 -fpre-include=/usr/include/finclude/math-vector-fortran.h
REM seed 2105772792 -1577327610 431297363 -95623123 1428851481 1583239798 -591825110 -1918091568 1355471239 -584876261 -665140128 -813918704 -213093859 504686259 -1931812978 -540615966 1455981175 -1930779821 327292641 -1443405847 207552136 -1322672588 1111719530 554169008 923829729 1408515002 2142684189 538398231 1894817110 1673976345 438604233 -35918027 -2110445385
REM
CELL 1.54180   50.00000   50.00000   50.00000   90.00000   90.00000   90.00000
LATT -1
SFAC C  
C      1  0.5178260000000  0.5790690000000  0.4951860000000 1.0
C      1  0.5198630000000  0.5035920000000  0.4186560000000 1.0
C      1  0.5495410000000  0.5321960000000  0.5631780000000 1.0
C      1  0.5044270000000  0.4250820000000  0.4475180000000 1.0
C      1  0.5677620000000  0.4569400000000  0.5269210000000 1.0
C      1  0.5245710000000  0.4270140000000  0.5055980000000 1.0
C      1  0.4737060000000  0.4730370000000  0.5562990000000 1.0
C      1  0.4770460000000  0.4361300000000  0.4880390000000 1.0
C      1  0.5633390000000  0.5541630000000  0.4900160000000 1.0
C      1  0.5507670000000  0.5441730000000  0.4371960000000 1.0
C      1  0.5226380000000  0.4673610000000  0.5376820000000 1.0
C      1  0.5180380000000  0.4770250000000  0.4258710000000 1.0
C      1  0.4655260000000  0.5709520000000  0.4669170000000 1.0
C      1  0.4738030000000  0.4970100000000  0.5748440000000 1.0
C      1  0.4970470000000  0.5751640000000  0.5359030000000 1.0
C      1  0.4830130000000  0.5939440000000  0.4608960000000 1.0
C      1  0.4251850000000  0.5575230000000  0.4818100000000 1.0
C      1  0.4516750000000  0.5038380000000  0.4405800000000 1.0
C      1  0.5348180000000  0.4892520000000  0.4966410000000 1.0
C      1  0.4911860000000  0.4749370000000  0.5271350000000 1.0
C      1  0.4755840000000  0.5536410000000  0.4915840000000 1.0
C      1  0.4981610000000  0.5898870000000  0.5122180000000 1.0
C      1  0.5408310000000  0.4423340000000  0.4854560000000 1.0
C      1  0.4369370000000  0.5230850000000  0.5566940000000 1.0
C      1  0.4473110000000  0.4251250000000  0.4866210000000 1.0
C      1  0.5054090000000  0.5686840000000  0.4656850000000 1.0
C      1  0.4897190000000  0.5542770000000  0.4399430000000 1.0
C      1  0.5301410000000  0.4350120000000  0.5316140000000 1.0
C      1  0.4633710000000  0.5200720000000  0.5633820000000 1.0
C      1  0.4937020000000  0.5000580000000  0.5943080000000 1.0
C      1  0.4811130000000  0.4361510000000  0.4569910000000 1.0
C      1  0.4640980000000  0.5281710000000  0.5112200000000 1.0
C      1  0.5641610000000  0.4801860000000  0.4405050000000 1.0
C      1  0.4442700000000  0.4762550000000  0.4476680000000 1.0
C      1  0.5226010000000  0.4632510000000  0.4689990000000 1.0
C      1  0.5400890000000  0.4873230000000  0.4639420000000 1.0
C      1  0.4627140000000  0.5584580000000  0.5437310000000 1.0
C      1  0.4360500000000  0.4139830000000  0.5774630000000 1.0
C      1  0.5432840000000  0.4883200000000  0.5292790000000 1.0
C      1  0.5173740000000  0.5560170000000  0.5355030000000 1.0
C      1  0.4271600000000  0.5319000000000  0.4702280000000 1.0
C      1  0.5388630000000  0.5196740000000  0.5215830000000 1.0
C      1  0.4205330000000  0.4949820000000  0.5168390000000 1.0
C      1  0.4810000000000  0.5315980000000  0.5405270000000 1.0
C      1  0.5061390000000  0.4996250000000  0.5111730000000 1.0
C      1  0.4426220000000  0.5300070000000  0.4470180000000 1.0
C      1  0.5334630000000  0.4368970000000  0.4525640000000 1.0
C      1  0.5331070000000  0.5322970000000  0.4209570000000 1.0
C      1  0.4656290000000  0.4576210000000  0.4427100000000 1.0
C      1  0.5688450000000  0.4911430000000  0.4912540000000 1.0
C      1  0.5287600000000  0.5353250000000  0.5837460000000 1.0
C      1  0.5848950000000  0.5099790000000  0.5090560000000 1.0
C      1  0.5408530000000  0.4619520000000  0.4330850000000 1.0
C      1  0.4896700000000  0.3933760000000  0.5106370000000 1.0
C      1  0.5096950000000  0.5254210000000  0.5332120000000 1.0
C      1  0.5733160000000  0.4842780000000  0.5447050000000 1.0
C      1  0.5565760000000  0.5035450000000  0.5636770000000 1.0
C      1  0.4142860000000  0.4816380000000  0.4860640000000 1.0
C      1  0.4273090000000  0.4375660000000  0.4728790000000 1.0
C      1  0.5677610000000  0.5343740000000  0.5153110000000 1.0
C      1  0.4240200000000  0.4649170000000  0.4657490000000 1.0
C      1  0.4403670000000  0.5559490000000  0.5272110000000 1.0
C      1  0.4980190000000  0.4180290000000  0.5010160000000 1.0
C      1  0.4528840000000  0.4846080000000  0.4959820000000 1.0
C      1  0.5410490000000  0.4910040000000  0.5846690000000 1.0
C      1  0.4845530000000  0.4882090000000  0.4070920000000 1.0
C      1  0.5158120000000  0.4335200000000  0.5577210000000 1.0
C      1  0.4871260000000  0.5156230000000  0.4893840000000 1.0
C      1  0.5679160000000  0.5051010000000  0.4624090000000 1.0
C      1  0.5004970000000  0.5310130000000  0.4258440000000 1.0
C      1  0.5070640000000  0.5418910000000  0.4853070000000 1.0
C      1  0.4849150000000  0.4991280000000  0.4621740000000 1.0
C      1  0.5002870000000  0.4575910000000  0.5616960000000 1.0
C      1  0.6103510000000  0.5073130000000  0.5150190000000 1.0
C      1  0.4597290000000  0.5529690000000  0.4434170000000 1.0
C      1  0.5202960000000  0.5091310000000  0.5943590000000 1.0
C      1  0.4309490000000  0.5094460000000  0.4878190000000 1.0
C      1  0.4464440000000  0.4607670000000  0.5527250000000 1.0
C      1  0.4452400000000  0.5642460000000  0.5005670000000 1.0
C      1  0.4813060000000  0.5057340000000  0.4289420000000 1.0
C      1  0.4759060000000  0.4671330000000  0.5002770000000 1.0
C      1  0.5583010000000  0.5336530000000  0.4647940000000 1.0
C      1  0.5622910000000  0.4603500000000  0.4995500000000 1.0
C      1  0.4411010000000  0.4367160000000  0.5654420000000 1.0
C      1  0.4946030000000  0.4703820000000  0.4414090000000 1.0
C      1  0.4935710000000  0.4700470000000  0.4748240000000 1.0
C      1  0.5557410000000  0.5494780000000  0.5418110000000 1.0
C      1  0.4330810000000  0.5235400000000  0.5249440000000 1.0
C      1  0.5422280000000  0.5650450000000  0.5143700000000 1.0
C      1  0.5358110000000  0.5336520000000  0.4907290000000 1.0
C      1  0.4287060000000  0.4739540000000  0.5372760000000 1.0
C      1  0.6006620000000  0.4879740000000  0.5485560000000 1.0
END
