TITL C-2778424-3986-1356 -0.000336224246523777 125000 -333.835504224519 0 0 57 (C1) n - 1
REM
REM in /home/nfs/bkarasulu/CARBON/AIRSS/Generating-Clusters/REBO/Only-C1/SD-CG/HFTN-CG
REM
REM
REM
REM
REM
REM ./C.cell (11c1c37f851c82e70ff6c80c92926a4b)
REM
REM compiler GCC version 9.2.1 20190827 (Red Hat 9.2.1-1)
REM options -cpp -mtune=generic -march=x86-64 -g -O0 -fpre-include=/usr/include/finclude/math-vector-fortran.h
REM seed -1118939734 -834558673 1416719009 -1067397654 1165561244 -1729596787 679815595 485433240 -658615110 365172382 -144479126 -548898283 1194364530 1997548104 -1511636430 1400771657 -1266623537 1321936032 -2072311759 -1425627375 1795742899 -621566522 152868997 1386416740 -1491094215 1067196004 314698264 -867731664 -611933619 -507579397 2017530445 -169908030 -1898899540
REM
CELL 1.54180   50.00000   50.00000   50.00000   90.00000   90.00000   90.00000
LATT -1
SFAC C  
C      1  0.5686450000000  0.5036180000000  0.4919290000000 1.0
C      1  0.5686190000000  0.4604810000000  0.5158200000000 1.0
C      1  0.4917240000000  0.5381290000000  0.5035020000000 1.0
C      1  0.5266800000000  0.4358540000000  0.4782200000000 1.0
C      1  0.5783020000000  0.4884850000000  0.5144460000000 1.0
C      1  0.5730650000000  0.4991580000000  0.5415290000000 1.0
C      1  0.4441040000000  0.5202090000000  0.4828530000000 1.0
C      1  0.4713480000000  0.4867830000000  0.5623290000000 1.0
C      1  0.5450400000000  0.4889870000000  0.4804760000000 1.0
C      1  0.4389610000000  0.5015740000000  0.4643750000000 1.0
C      1  0.4989190000000  0.5623730000000  0.5141900000000 1.0
C      1  0.5109170000000  0.4352700000000  0.5074910000000 1.0
C      1  0.5243140000000  0.5213740000000  0.5422730000000 1.0
C      1  0.4886230000000  0.4831860000000  0.4617900000000 1.0
C      1  0.5254830000000  0.4955810000000  0.5581350000000 1.0
C      1  0.5270040000000  0.4397310000000  0.5365750000000 1.0
C      1  0.4657980000000  0.5574040000000  0.4800750000000 1.0
C      1  0.5524860000000  0.4831660000000  0.5547860000000 1.0
C      1  0.5448870000000  0.4403500000000  0.5067180000000 1.0
C      1  0.5372820000000  0.5414700000000  0.4967240000000 1.0
C      1  0.5188970000000  0.5300170000000  0.4338000000000 1.0
C      1  0.4549410000000  0.5715560000000  0.5261820000000 1.0
C      1  0.4608030000000  0.5124230000000  0.4132230000000 1.0
C      1  0.5643610000000  0.5322430000000  0.4904940000000 1.0
C      1  0.4580370000000  0.4806110000000  0.4516340000000 1.0
C      1  0.4718700000000  0.5279790000000  0.5552450000000 1.0
C      1  0.4614960000000  0.4553290000000  0.4709550000000 1.0
C      1  0.4724030000000  0.5346570000000  0.4238310000000 1.0
C      1  0.4566080000000  0.4866850000000  0.4213390000000 1.0
C      1  0.5363970000000  0.4823680000000  0.4490630000000 1.0
C      1  0.5084110000000  0.4682150000000  0.4480140000000 1.0
C      1  0.4820270000000  0.5707120000000  0.5361510000000 1.0
C      1  0.5353140000000  0.5086090000000  0.4333690000000 1.0
C      1  0.4310040000000  0.4942660000000  0.5318570000000 1.0
C      1  0.5521570000000  0.4577800000000  0.5417740000000 1.0
C      1  0.4722090000000  0.5208030000000  0.4947660000000 1.0
C      1  0.4939670000000  0.5420180000000  0.4405200000000 1.0
C      1  0.5007630000000  0.4733090000000  0.5529150000000 1.0
C      1  0.4645790000000  0.4566810000000  0.5267630000000 1.0
C      1  0.4958420000000  0.4895170000000  0.4880460000000 1.0
C      1  0.5162030000000  0.5441360000000  0.5571990000000 1.0
C      1  0.4986310000000  0.4945370000000  0.5791150000000 1.0
C      1  0.4922290000000  0.5541170000000  0.4668580000000 1.0
C      1  0.5210050000000  0.4965570000000  0.4971840000000 1.0
C      1  0.4493400000000  0.5534230000000  0.5042520000000 1.0
C      1  0.4601050000000  0.4618140000000  0.4978790000000 1.0
C      1  0.5480820000000  0.4579590000000  0.4697680000000 1.0
C      1  0.4382800000000  0.5232060000000  0.5153960000000 1.0
C      1  0.4653270000000  0.5137340000000  0.5334320000000 1.0
C      1  0.5061970000000  0.4409720000000  0.4562260000000 1.0
C      1  0.4947230000000  0.4503290000000  0.5333180000000 1.0
C      1  0.5185400000000  0.5559040000000  0.4799670000000 1.0
C      1  0.4520070000000  0.4772270000000  0.5435300000000 1.0
C      1  0.5256800000000  0.5199170000000  0.5139400000000 1.0
C      1  0.4788500000000  0.4344790000000  0.4617480000000 1.0
C      1  0.4721050000000  0.4914910000000  0.5088810000000 1.0
C      1  0.4884100000000  0.5512370000000  0.5571290000000 1.0
END
