TITL C-2778430-5657-1197 -0.0039903555446915 125000 -292.709524461808 0 0 51 (C1) n - 1
REM
REM in /home/nfs/bkarasulu/CARBON/AIRSS/Generating-Clusters/REBO/Only-C1/SD-CG/HFTN-CG
REM
REM
REM
REM
REM
REM ./C.cell (11c1c37f851c82e70ff6c80c92926a4b)
REM
REM compiler GCC version 9.2.1 20190827 (Red Hat 9.2.1-1)
REM options -cpp -mtune=generic -march=x86-64 -g -O0 -fpre-include=/usr/include/finclude/math-vector-fortran.h
REM seed -103985451 -158144183 -986398422 -1286300327 1412308365 650504247 2073059409 1813299521 -1075734278 501362041 -721248532 519084905 -178648987 537148910 -1307119113 1171801463 577366587 556967505 468394595 -1091098797 -2037976294 -1193569885 -183080855 600579770 1063276425 -115294165 -505171825 11006240 -509239710 -1048015665 929526202 -2129615478 1315862244
REM
CELL 1.54180   50.00000   50.00000   50.00000   90.00000   90.00000   90.00000
LATT -1
SFAC C  
C      1  0.5086440000000  0.4887800000000  0.4205630000000 1.0
C      1  0.5315020000000  0.4538540000000  0.4635130000000 1.0
C      1  0.4612650000000  0.5515430000000  0.5369770000000 1.0
C      1  0.5300550000000  0.5070920000000  0.4578530000000 1.0
C      1  0.5166750000000  0.5265900000000  0.5015950000000 1.0
C      1  0.4921840000000  0.4844670000000  0.4849980000000 1.0
C      1  0.5011540000000  0.4300140000000  0.5162470000000 1.0
C      1  0.5007060000000  0.5191360000000  0.5806410000000 1.0
C      1  0.5174680000000  0.4683720000000  0.4381190000000 1.0
C      1  0.5058270000000  0.5666120000000  0.5249600000000 1.0
C      1  0.5403070000000  0.4694440000000  0.5450040000000 1.0
C      1  0.4797990000000  0.4859460000000  0.4123010000000 1.0
C      1  0.5036330000000  0.5434850000000  0.4750950000000 1.0
C      1  0.5291600000000  0.5935070000000  0.4721390000000 1.0
C      1  0.4729010000000  0.4897740000000  0.4412680000000 1.0
C      1  0.4991790000000  0.4584670000000  0.4648760000000 1.0
C      1  0.4648760000000  0.5317560000000  0.4458650000000 1.0
C      1  0.5225150000000  0.5315070000000  0.5704490000000 1.0
C      1  0.4312350000000  0.4913720000000  0.5162580000000 1.0
C      1  0.5175760000000  0.5708070000000  0.4734800000000 1.0
C      1  0.5243780000000  0.4448110000000  0.5113840000000 1.0
C      1  0.5501810000000  0.5023230000000  0.4745720000000 1.0
C      1  0.5769450000000  0.5046040000000  0.5401200000000 1.0
C      1  0.4940270000000  0.4581580000000  0.5627860000000 1.0
C      1  0.4635680000000  0.5260490000000  0.5445720000000 1.0
C      1  0.5243450000000  0.5445760000000  0.5232930000000 1.0
C      1  0.4770780000000  0.4343440000000  0.5013390000000 1.0
C      1  0.4798430000000  0.5406050000000  0.4957070000000 1.0
C      1  0.4835730000000  0.5017950000000  0.5312360000000 1.0
C      1  0.5383190000000  0.5372560000000  0.5476760000000 1.0
C      1  0.4820170000000  0.4346690000000  0.4731300000000 1.0
C      1  0.5639850000000  0.4821620000000  0.5293830000000 1.0
C      1  0.5430420000000  0.4540780000000  0.4890070000000 1.0
C      1  0.4628440000000  0.4834710000000  0.4932910000000 1.0
C      1  0.4793480000000  0.5594190000000  0.5168180000000 1.0
C      1  0.4477090000000  0.5211820000000  0.4660300000000 1.0
C      1  0.5552000000000  0.4824500000000  0.4976440000000 1.0
C      1  0.4724410000000  0.4776850000000  0.5527110000000 1.0
C      1  0.4925500000000  0.5356500000000  0.4470350000000 1.0
C      1  0.4772760000000  0.5070390000000  0.5664460000000 1.0
C      1  0.5212680000000  0.4590720000000  0.5625390000000 1.0
C      1  0.5137260000000  0.5181390000000  0.4317390000000 1.0
C      1  0.4603230000000  0.4552630000000  0.5097960000000 1.0
C      1  0.5268700000000  0.4783610000000  0.5161170000000 1.0
C      1  0.4974010000000  0.4976110000000  0.4578730000000 1.0
C      1  0.4635530000000  0.5177790000000  0.4919990000000 1.0
C      1  0.4493320000000  0.4828750000000  0.4552970000000 1.0
C      1  0.5649790000000  0.5281610000000  0.5467480000000 1.0
C      1  0.4326620000000  0.4949850000000  0.4823730000000 1.0
C      1  0.5050840000000  0.4983220000000  0.5093640000000 1.0
C      1  0.4494710000000  0.4745790000000  0.5297790000000 1.0
END
