TITL C-2778427-5640-1342 0.00181372605816562 125000 -909.841361765485 0 0 158 (C1) n - 1
REM
REM in /home/nfs/bkarasulu/CARBON/AIRSS/Generating-Clusters/REBO/Only-C1/SD-CG/HFTN-CG
REM
REM
REM
REM
REM
REM ./C.cell (11c1c37f851c82e70ff6c80c92926a4b)
REM
REM compiler GCC version 9.2.1 20190827 (Red Hat 9.2.1-1)
REM options -cpp -mtune=generic -march=x86-64 -g -O0 -fpre-include=/usr/include/finclude/math-vector-fortran.h
REM seed 354293009 91332262 1281267656 10510001 739282080 -379252285 -229913391 -1580384980 -290155555 542580658 -650286024 -1613569372 300559888 -1038094196 1354943749 -1169162356 1546757896 -627644455 -1471886542 -964212883 1915069106 472374130 -1155041981 1990214875 -1012005853 -569719944 -2036329743 1831455743 142755451 -1378472222 -2105544419 -1436449806 -302935963
REM
CELL 1.54180   50.00000   50.00000   50.00000   90.00000   90.00000   90.00000
LATT -1
SFAC C  
C      1  0.5421910000000  0.4540760000000  0.4914530000000 1.0
C      1  0.4475530000000  0.5852650000000  0.5342820000000 1.0
C      1  0.5337700000000  0.5551930000000  0.5786180000000 1.0
C      1  0.4930790000000  0.4902620000000  0.4344580000000 1.0
C      1  0.5520190000000  0.5419200000000  0.5456400000000 1.0
C      1  0.4240320000000  0.4958410000000  0.4447670000000 1.0
C      1  0.5725140000000  0.5952540000000  0.4848120000000 1.0
C      1  0.4834830000000  0.5364990000000  0.4045420000000 1.0
C      1  0.5096210000000  0.3930040000000  0.5205470000000 1.0
C      1  0.5277750000000  0.4847670000000  0.5761540000000 1.0
C      1  0.4560960000000  0.4635120000000  0.5083690000000 1.0
C      1  0.4652880000000  0.5593720000000  0.5473680000000 1.0
C      1  0.4987480000000  0.4822010000000  0.4636860000000 1.0
C      1  0.5145460000000  0.5586150000000  0.5257660000000 1.0
C      1  0.5008590000000  0.4304520000000  0.5383680000000 1.0
C      1  0.5042080000000  0.5115680000000  0.6026930000000 1.0
C      1  0.5519000000000  0.5153770000000  0.4734990000000 1.0
C      1  0.4437510000000  0.5377760000000  0.4824900000000 1.0
C      1  0.4744540000000  0.4244120000000  0.4303920000000 1.0
C      1  0.5114470000000  0.4333930000000  0.4769360000000 1.0
C      1  0.4184570000000  0.5058480000000  0.5742640000000 1.0
C      1  0.5367830000000  0.5082730000000  0.5984900000000 1.0
C      1  0.5275340000000  0.5291270000000  0.5277260000000 1.0
C      1  0.5776940000000  0.4725180000000  0.4490290000000 1.0
C      1  0.4705540000000  0.5173680000000  0.4448970000000 1.0
C      1  0.5597920000000  0.5596200000000  0.4405480000000 1.0
C      1  0.3958850000000  0.4850220000000  0.4482450000000 1.0
C      1  0.4109020000000  0.5550410000000  0.5216750000000 1.0
C      1  0.5479970000000  0.4232080000000  0.5054130000000 1.0
C      1  0.4954790000000  0.5704100000000  0.5505900000000 1.0
C      1  0.3773080000000  0.4842750000000  0.5214370000000 1.0
C      1  0.4732840000000  0.4781230000000  0.5311300000000 1.0
C      1  0.4411880000000  0.5854610000000  0.5018970000000 1.0
C      1  0.4187660000000  0.4813050000000  0.5328200000000 1.0
C      1  0.5669370000000  0.5059470000000  0.5163450000000 1.0
C      1  0.3969590000000  0.4587660000000  0.5201060000000 1.0
C      1  0.4730710000000  0.5308010000000  0.5872400000000 1.0
C      1  0.5351680000000  0.4019090000000  0.5373030000000 1.0
C      1  0.5033970000000  0.5765440000000  0.4370510000000 1.0
C      1  0.5071760000000  0.6018700000000  0.4986510000000 1.0
C      1  0.4838630000000  0.4869990000000  0.3866110000000 1.0
C      1  0.4964280000000  0.4655520000000  0.3973330000000 1.0
C      1  0.4931650000000  0.4604390000000  0.5942740000000 1.0
C      1  0.4902960000000  0.5478240000000  0.4612060000000 1.0
C      1  0.4533550000000  0.5543900000000  0.5096200000000 1.0
C      1  0.5572490000000  0.5945610000000  0.5143370000000 1.0
C      1  0.5583570000000  0.5510600000000  0.5159850000000 1.0
C      1  0.5191800000000  0.4953480000000  0.4212300000000 1.0
C      1  0.4398970000000  0.5279660000000  0.5239590000000 1.0
C      1  0.4771460000000  0.5917970000000  0.4857830000000 1.0
C      1  0.5628340000000  0.4605110000000  0.5432690000000 1.0
C      1  0.5791710000000  0.5112960000000  0.4563120000000 1.0
C      1  0.5375620000000  0.4937040000000  0.4929370000000 1.0
C      1  0.4959980000000  0.5130380000000  0.5696220000000 1.0
C      1  0.3913440000000  0.5045280000000  0.5054530000000 1.0
C      1  0.5538980000000  0.4885520000000  0.4027530000000 1.0
C      1  0.4772560000000  0.4155470000000  0.5552990000000 1.0
C      1  0.4696430000000  0.5733390000000  0.4579950000000 1.0
C      1  0.4640280000000  0.5159310000000  0.4747500000000 1.0
C      1  0.5002030000000  0.5291880000000  0.4401310000000 1.0
C      1  0.5053380000000  0.5529160000000  0.4873660000000 1.0
C      1  0.4565990000000  0.5074360000000  0.5049690000000 1.0
C      1  0.5057850000000  0.5631040000000  0.5789490000000 1.0
C      1  0.5338670000000  0.5401250000000  0.4963800000000 1.0
C      1  0.5776340000000  0.4875630000000  0.5410660000000 1.0
C      1  0.5069870000000  0.5970620000000  0.5324480000000 1.0
C      1  0.5175660000000  0.4804030000000  0.6073920000000 1.0
C      1  0.5477450000000  0.4586540000000  0.4581430000000 1.0
C      1  0.4801140000000  0.4899030000000  0.5979300000000 1.0
C      1  0.4308560000000  0.5596310000000  0.5470900000000 1.0
C      1  0.4918580000000  0.4414350000000  0.4538020000000 1.0
C      1  0.5600470000000  0.5309200000000  0.4277630000000 1.0
C      1  0.4720030000000  0.4396730000000  0.5775810000000 1.0
C      1  0.5349940000000  0.4452330000000  0.4295900000000 1.0
C      1  0.4508250000000  0.5373490000000  0.4334060000000 1.0
C      1  0.4454870000000  0.4546610000000  0.5667600000000 1.0
C      1  0.3722210000000  0.4759270000000  0.4511690000000 1.0
C      1  0.4767910000000  0.5874380000000  0.5196290000000 1.0
C      1  0.5031910000000  0.4840090000000  0.5580120000000 1.0
C      1  0.4292790000000  0.4927570000000  0.5087750000000 1.0
C      1  0.4094590000000  0.5424120000000  0.4626510000000 1.0
C      1  0.5420930000000  0.5636930000000  0.4761170000000 1.0
C      1  0.4886860000000  0.4468810000000  0.4931330000000 1.0
C      1  0.5923860000000  0.4487200000000  0.4942330000000 1.0
C      1  0.5970450000000  0.5219420000000  0.5364350000000 1.0
C      1  0.4911310000000  0.3936140000000  0.4711050000000 1.0
C      1  0.5406830000000  0.4193220000000  0.4666550000000 1.0
C      1  0.5131580000000  0.5040710000000  0.5118390000000 1.0
C      1  0.4263520000000  0.4816800000000  0.5604270000000 1.0
C      1  0.5277020000000  0.4682950000000  0.4059350000000 1.0
C      1  0.5988910000000  0.4885350000000  0.4705070000000 1.0
C      1  0.4755550000000  0.5131610000000  0.3902490000000 1.0
C      1  0.5810150000000  0.5724740000000  0.5164840000000 1.0
C      1  0.4065220000000  0.5238620000000  0.5194700000000 1.0
C      1  0.5401640000000  0.4277430000000  0.5442260000000 1.0
C      1  0.4418510000000  0.4868000000000  0.4193750000000 1.0
C      1  0.4569430000000  0.4162960000000  0.5283460000000 1.0
C      1  0.5275160000000  0.5567220000000  0.4496090000000 1.0
C      1  0.4693260000000  0.4079320000000  0.4585530000000 1.0
C      1  0.5976750000000  0.5452770000000  0.5194450000000 1.0
C      1  0.4664260000000  0.4845270000000  0.4224380000000 1.0
C      1  0.4914020000000  0.5041090000000  0.4855850000000 1.0
C      1  0.4041850000000  0.4559100000000  0.4868610000000 1.0
C      1  0.4816350000000  0.5079350000000  0.5241880000000 1.0
C      1  0.5722310000000  0.5220690000000  0.5599470000000 1.0
C      1  0.5738780000000  0.4993620000000  0.4273040000000 1.0
C      1  0.4475090000000  0.5241620000000  0.5539970000000 1.0
C      1  0.4582140000000  0.5022440000000  0.5762590000000 1.0
C      1  0.5383950000000  0.5934940000000  0.5402080000000 1.0
C      1  0.5391940000000  0.5091880000000  0.4440460000000 1.0
C      1  0.5710670000000  0.4431960000000  0.5167510000000 1.0
C      1  0.6037100000000  0.4921790000000  0.5211280000000 1.0
C      1  0.5342240000000  0.4551700000000  0.5249180000000 1.0
C      1  0.4707150000000  0.4708560000000  0.4785120000000 1.0
C      1  0.6044140000000  0.5219420000000  0.4740250000000 1.0
C      1  0.4360870000000  0.4339410000000  0.5451690000000 1.0
C      1  0.4480110000000  0.4749390000000  0.4569250000000 1.0
C      1  0.5699230000000  0.4282110000000  0.4797490000000 1.0
C      1  0.4699860000000  0.4763630000000  0.5618730000000 1.0
C      1  0.4847500000000  0.5564890000000  0.5117510000000 1.0
C      1  0.6033530000000  0.4748990000000  0.4964880000000 1.0
C      1  0.5131930000000  0.4778690000000  0.5306230000000 1.0
C      1  0.5760520000000  0.5231920000000  0.4940980000000 1.0
C      1  0.5054960000000  0.4390670000000  0.5709970000000 1.0
C      1  0.4873610000000  0.3847760000000  0.4981050000000 1.0
C      1  0.4254680000000  0.5275430000000  0.4443970000000 1.0
C      1  0.5496460000000  0.5312290000000  0.5839650000000 1.0
C      1  0.4603680000000  0.4519800000000  0.4448800000000 1.0
C      1  0.4134940000000  0.5512320000000  0.4915280000000 1.0
C      1  0.4844200000000  0.5539700000000  0.5952870000000 1.0
C      1  0.5165810000000  0.4230270000000  0.5089970000000 1.0
C      1  0.5460700000000  0.5719960000000  0.5573300000000 1.0
C      1  0.5302970000000  0.5791510000000  0.5040210000000 1.0
C      1  0.4749030000000  0.5607410000000  0.4267890000000 1.0
C      1  0.5363870000000  0.4369010000000  0.5718450000000 1.0
C      1  0.4784560000000  0.3920470000000  0.5303360000000 1.0
C      1  0.4281780000000  0.4460020000000  0.5169250000000 1.0
C      1  0.5386630000000  0.5189210000000  0.4055600000000 1.0
C      1  0.5061850000000  0.5828710000000  0.4704030000000 1.0
C      1  0.4619440000000  0.4304610000000  0.5023770000000 1.0
C      1  0.4944400000000  0.4547170000000  0.5209450000000 1.0
C      1  0.5603220000000  0.4912510000000  0.5686640000000 1.0
C      1  0.4497020000000  0.4188960000000  0.4755920000000 1.0
C      1  0.5628090000000  0.4752150000000  0.5061970000000 1.0
C      1  0.5929240000000  0.5502710000000  0.4858150000000 1.0
C      1  0.5187440000000  0.3971980000000  0.4620800000000 1.0
C      1  0.4265310000000  0.4351040000000  0.4846160000000 1.0
C      1  0.5021700000000  0.4421200000000  0.4213370000000 1.0
C      1  0.4212870000000  0.5355300000000  0.5691510000000 1.0
C      1  0.4788130000000  0.5281070000000  0.5477480000000 1.0
C      1  0.5565930000000  0.4579180000000  0.5751450000000 1.0
C      1  0.5120360000000  0.5337520000000  0.4132630000000 1.0
C      1  0.4094700000000  0.4862700000000  0.4860210000000 1.0
C      1  0.5632620000000  0.4617010000000  0.4216190000000 1.0
C      1  0.5740140000000  0.5688960000000  0.4701890000000 1.0
C      1  0.5353820000000  0.5779960000000  0.4247770000000 1.0
C      1  0.5293540000000  0.4837810000000  0.4644770000000 1.0
C      1  0.4437980000000  0.5697180000000  0.4742130000000 1.0
END
