TITL C-2778429-3646-685 0.00488999986998104 125000 -623.53519691079 0 0 108 (C1) n - 1
REM
REM in /home/nfs/bkarasulu/CARBON/AIRSS/Generating-Clusters/REBO/Only-C1/SD-CG/HFTN-CG
REM
REM
REM
REM
REM
REM ./C.cell (11c1c37f851c82e70ff6c80c92926a4b)
REM
REM compiler GCC version 9.2.1 20190827 (Red Hat 9.2.1-1)
REM options -cpp -mtune=generic -march=x86-64 -g -O0 -fpre-include=/usr/include/finclude/math-vector-fortran.h
REM seed -1209325031 952926223 -2117270377 1508683379 885444809 -620633604 -1138807502 -1347098303 -1202917549 -841395656 27010156 113259050 -1671570600 -468743383 1377359764 -71995947 -148689217 -530064820 -567804587 146597293 -876199560 924780463 -883729401 2056991842 -33184862 1175058089 31132563 -1273024389 1077691560 -1497125349 -889420705 1524409642 920824840
REM
CELL 1.54180   50.00000   50.00000   50.00000   90.00000   90.00000   90.00000
LATT -1
SFAC C  
C      1  0.5537350000000  0.5649560000000  0.5337670000000 1.0
C      1  0.4314080000000  0.5448810000000  0.5122790000000 1.0
C      1  0.4838460000000  0.4641720000000  0.4330300000000 1.0
C      1  0.5533120000000  0.5487960000000  0.4505990000000 1.0
C      1  0.5714840000000  0.4829940000000  0.5131840000000 1.0
C      1  0.4575050000000  0.4597540000000  0.5010390000000 1.0
C      1  0.4950550000000  0.5942520000000  0.4926950000000 1.0
C      1  0.5237760000000  0.5404050000000  0.5680030000000 1.0
C      1  0.4851370000000  0.5163190000000  0.4917820000000 1.0
C      1  0.5524590000000  0.4526710000000  0.4682610000000 1.0
C      1  0.5033680000000  0.4853400000000  0.4743220000000 1.0
C      1  0.5019550000000  0.4041030000000  0.5299320000000 1.0
C      1  0.4667570000000  0.5161490000000  0.5333290000000 1.0
C      1  0.4936240000000  0.5150600000000  0.5323380000000 1.0
C      1  0.4352810000000  0.4278310000000  0.4846120000000 1.0
C      1  0.4689130000000  0.5521130000000  0.4328890000000 1.0
C      1  0.5661480000000  0.5177040000000  0.4833680000000 1.0
C      1  0.5357070000000  0.5011020000000  0.4617020000000 1.0
C      1  0.4924300000000  0.5476790000000  0.4519510000000 1.0
C      1  0.5573710000000  0.4701850000000  0.5609600000000 1.0
C      1  0.5363490000000  0.5294820000000  0.4729560000000 1.0
C      1  0.5101790000000  0.4936760000000  0.5397600000000 1.0
C      1  0.5535090000000  0.5666500000000  0.4995100000000 1.0
C      1  0.5026880000000  0.5689760000000  0.4771390000000 1.0
C      1  0.5095710000000  0.4662180000000  0.5425250000000 1.0
C      1  0.4290360000000  0.4750610000000  0.4911520000000 1.0
C      1  0.5332820000000  0.4041750000000  0.5187000000000 1.0
C      1  0.4565770000000  0.4271430000000  0.5111280000000 1.0
C      1  0.4982920000000  0.5684690000000  0.5345670000000 1.0
C      1  0.5063350000000  0.5397820000000  0.5201610000000 1.0
C      1  0.4689500000000  0.5572060000000  0.5236920000000 1.0
C      1  0.4116890000000  0.5088890000000  0.4792410000000 1.0
C      1  0.5356140000000  0.5489690000000  0.4215140000000 1.0
C      1  0.5675210000000  0.4933530000000  0.4390120000000 1.0
C      1  0.5191980000000  0.5642110000000  0.4431400000000 1.0
C      1  0.5567790000000  0.4596940000000  0.5325830000000 1.0
C      1  0.4557310000000  0.4434120000000  0.5383090000000 1.0
C      1  0.4948160000000  0.4362260000000  0.5358700000000 1.0
C      1  0.4270790000000  0.4944460000000  0.5384610000000 1.0
C      1  0.5363360000000  0.5439010000000  0.5159280000000 1.0
C      1  0.4702620000000  0.5885840000000  0.4632230000000 1.0
C      1  0.5573030000000  0.4249000000000  0.4518230000000 1.0
C      1  0.5758040000000  0.4953840000000  0.4653220000000 1.0
C      1  0.4519990000000  0.5358230000000  0.4240570000000 1.0
C      1  0.4465790000000  0.4353830000000  0.4562720000000 1.0
C      1  0.5391210000000  0.5020650000000  0.5919340000000 1.0
C      1  0.4532410000000  0.5055410000000  0.4277990000000 1.0
C      1  0.4368980000000  0.4785570000000  0.4318250000000 1.0
C      1  0.4198530000000  0.4470200000000  0.5036910000000 1.0
C      1  0.5281500000000  0.4163130000000  0.5479960000000 1.0
C      1  0.4433360000000  0.5008660000000  0.5619280000000 1.0
C      1  0.5149930000000  0.5053220000000  0.4170240000000 1.0
C      1  0.4904890000000  0.4277840000000  0.4818250000000 1.0
C      1  0.4464200000000  0.5255540000000  0.4881800000000 1.0
C      1  0.5507820000000  0.5202580000000  0.5662580000000 1.0
C      1  0.5212420000000  0.5309470000000  0.4062020000000 1.0
C      1  0.5669850000000  0.5340360000000  0.5392510000000 1.0
C      1  0.4626570000000  0.4765220000000  0.5367420000000 1.0
C      1  0.5380040000000  0.4953210000000  0.4306210000000 1.0
C      1  0.4465470000000  0.5422180000000  0.5404640000000 1.0
C      1  0.5288380000000  0.4426910000000  0.5556490000000 1.0
C      1  0.4695410000000  0.5465500000000  0.4951890000000 1.0
C      1  0.5285080000000  0.4687230000000  0.4588300000000 1.0
C      1  0.5811090000000  0.5540940000000  0.4904090000000 1.0
C      1  0.4747460000000  0.4770830000000  0.4697010000000 1.0
C      1  0.4692260000000  0.4465040000000  0.4748410000000 1.0
C      1  0.4552490000000  0.4556670000000  0.4345580000000 1.0
C      1  0.5578290000000  0.4475360000000  0.5015320000000 1.0
C      1  0.4554980000000  0.5902580000000  0.5203250000000 1.0
C      1  0.4466850000000  0.4980920000000  0.5038160000000 1.0
C      1  0.5336610000000  0.4174520000000  0.4675590000000 1.0
C      1  0.4212730000000  0.4821300000000  0.4604790000000 1.0
C      1  0.4544190000000  0.4914810000000  0.4650130000000 1.0
C      1  0.4854620000000  0.5928820000000  0.5182850000000 1.0
C      1  0.4742180000000  0.5324990000000  0.5807970000000 1.0
C      1  0.5081100000000  0.4253320000000  0.4578830000000 1.0
C      1  0.5248960000000  0.5620760000000  0.5496670000000 1.0
C      1  0.5113330000000  0.5006890000000  0.5905350000000 1.0
C      1  0.5514440000000  0.5175840000000  0.5124220000000 1.0
C      1  0.4542240000000  0.5679510000000  0.4734050000000 1.0
C      1  0.4789690000000  0.4506470000000  0.5622860000000 1.0
C      1  0.4787340000000  0.4869410000000  0.5082170000000 1.0
C      1  0.4367620000000  0.5186770000000  0.4578910000000 1.0
C      1  0.4497690000000  0.5278150000000  0.5674240000000 1.0
C      1  0.4358200000000  0.5568850000000  0.4547550000000 1.0
C      1  0.5372010000000  0.4803170000000  0.5136370000000 1.0
C      1  0.4975700000000  0.4736360000000  0.5798760000000 1.0
C      1  0.5753840000000  0.4707280000000  0.4831690000000 1.0
C      1  0.5850690000000  0.5063040000000  0.5304030000000 1.0
C      1  0.4307840000000  0.4640750000000  0.5301970000000 1.0
C      1  0.4816350000000  0.4097810000000  0.5070620000000 1.0
C      1  0.5103620000000  0.5386120000000  0.4863990000000 1.0
C      1  0.5067110000000  0.4508230000000  0.4437420000000 1.0
C      1  0.5888740000000  0.5288990000000  0.5061930000000 1.0
C      1  0.5097550000000  0.4731470000000  0.5032770000000 1.0
C      1  0.5395910000000  0.5030740000000  0.5389410000000 1.0
C      1  0.4940550000000  0.5146480000000  0.4589470000000 1.0
C      1  0.5820650000000  0.5522990000000  0.4625890000000 1.0
C      1  0.5732110000000  0.4952820000000  0.5603840000000 1.0
C      1  0.4172170000000  0.5139740000000  0.5124340000000 1.0
C      1  0.4858800000000  0.4967470000000  0.4311300000000 1.0
C      1  0.5017680000000  0.5264330000000  0.5809720000000 1.0
C      1  0.4398400000000  0.5726320000000  0.5013040000000 1.0
C      1  0.4673990000000  0.4818000000000  0.5684850000000 1.0
C      1  0.5364580000000  0.5693870000000  0.4722300000000 1.0
C      1  0.5305780000000  0.4664020000000  0.5763680000000 1.0
C      1  0.5354450000000  0.4259540000000  0.4971530000000 1.0
C      1  0.5073560000000  0.4420050000000  0.5058120000000 1.0
END
