TITL C-2778426-5645-999 -0.000673634304260376 125000 -1084.6229964721 0 0 180 (C1) n - 1
REM
REM in /home/nfs/bkarasulu/CARBON/AIRSS/Generating-Clusters/REBO/Only-C1/SD-CG/HFTN-CG
REM
REM
REM
REM
REM
REM ./C.cell (11c1c37f851c82e70ff6c80c92926a4b)
REM
REM compiler GCC version 9.2.1 20190827 (Red Hat 9.2.1-1)
REM options -cpp -mtune=generic -march=x86-64 -g -O0 -fpre-include=/usr/include/finclude/math-vector-fortran.h
REM seed 1405837402 -2083648670 594721750 1420852270 -76575449 823625348 -1679739587 1575955654 1767807579 -105440983 478597694 1642164614 -1575515904 1355929045 -1341765721 -1110747722 -1359724720 1398150258 1199373264 1252757205 1014357743 1587349445 -262677019 1152545804 -981660725 -1554965564 147286897 -710484412 -665081879 995833616 -1360924658 1998464334 1151410507
REM
CELL 1.54180   50.00000   50.00000   50.00000   90.00000   90.00000   90.00000
LATT -1
SFAC C  
C      1  0.5846650000000  0.5606440000000  0.5139810000000 1.0
C      1  0.5399280000000  0.5832330000000  0.4824940000000 1.0
C      1  0.5099130000000  0.4744390000000  0.5205320000000 1.0
C      1  0.5331690000000  0.6081350000000  0.4738110000000 1.0
C      1  0.4602800000000  0.4610740000000  0.5282050000000 1.0
C      1  0.4857880000000  0.4888720000000  0.6090000000000 1.0
C      1  0.4108590000000  0.4860970000000  0.5578100000000 1.0
C      1  0.5875680000000  0.4642550000000  0.4272940000000 1.0
C      1  0.5730380000000  0.5011710000000  0.4967150000000 1.0
C      1  0.6011830000000  0.5169470000000  0.4496360000000 1.0
C      1  0.3997810000000  0.5516310000000  0.5093590000000 1.0
C      1  0.5042800000000  0.5327790000000  0.4703910000000 1.0
C      1  0.5721250000000  0.4748600000000  0.4073610000000 1.0
C      1  0.5845010000000  0.5549500000000  0.5447810000000 1.0
C      1  0.4350290000000  0.5772570000000  0.5579020000000 1.0
C      1  0.5881910000000  0.5315820000000  0.4998910000000 1.0
C      1  0.4036540000000  0.5422280000000  0.5367970000000 1.0
C      1  0.4250020000000  0.5224040000000  0.4561610000000 1.0
C      1  0.5327020000000  0.4584710000000  0.4569290000000 1.0
C      1  0.4791350000000  0.5196930000000  0.4856230000000 1.0
C      1  0.5716920000000  0.4828500000000  0.5260450000000 1.0
C      1  0.4404820000000  0.5308820000000  0.4048300000000 1.0
C      1  0.4292430000000  0.5544230000000  0.4521900000000 1.0
C      1  0.4774270000000  0.4348150000000  0.4106960000000 1.0
C      1  0.4209030000000  0.4592410000000  0.5712470000000 1.0
C      1  0.3910580000000  0.5282650000000  0.4941220000000 1.0
C      1  0.4113710000000  0.4589080000000  0.4839990000000 1.0
C      1  0.5320460000000  0.5263910000000  0.5038090000000 1.0
C      1  0.5933520000000  0.5063890000000  0.5303840000000 1.0
C      1  0.4970150000000  0.4305070000000  0.5013410000000 1.0
C      1  0.4689590000000  0.5353790000000  0.5523670000000 1.0
C      1  0.5679680000000  0.4994890000000  0.4630760000000 1.0
C      1  0.5189900000000  0.4262000000000  0.5765210000000 1.0
C      1  0.6252670000000  0.4770140000000  0.4973690000000 1.0
C      1  0.4670790000000  0.4753690000000  0.5555960000000 1.0
C      1  0.5852690000000  0.4526480000000  0.5325400000000 1.0
C      1  0.4615240000000  0.5659930000000  0.5559030000000 1.0
C      1  0.4814020000000  0.3896330000000  0.5268090000000 1.0
C      1  0.5280010000000  0.3985010000000  0.4668420000000 1.0
C      1  0.5776100000000  0.5210600000000  0.4309720000000 1.0
C      1  0.4708210000000  0.5509230000000  0.4439300000000 1.0
C      1  0.5745350000000  0.5035440000000  0.5880680000000 1.0
C      1  0.5845670000000  0.5682710000000  0.4807120000000 1.0
C      1  0.5177120000000  0.4534990000000  0.5928270000000 1.0
C      1  0.4562620000000  0.4239100000000  0.4881520000000 1.0
C      1  0.5588980000000  0.5955270000000  0.5534760000000 1.0
C      1  0.5161630000000  0.5602970000000  0.4843400000000 1.0
C      1  0.5702940000000  0.4605690000000  0.4752020000000 1.0
C      1  0.5000660000000  0.4129680000000  0.4756960000000 1.0
C      1  0.3865720000000  0.5084160000000  0.5153500000000 1.0
C      1  0.5059060000000  0.4905460000000  0.4816620000000 1.0
C      1  0.6137060000000  0.4510160000000  0.5162800000000 1.0
C      1  0.4338450000000  0.4080800000000  0.4746130000000 1.0
C      1  0.5127900000000  0.5566690000000  0.5781970000000 1.0
C      1  0.4834980000000  0.5446980000000  0.5163550000000 1.0
C      1  0.5346250000000  0.5542540000000  0.4561850000000 1.0
C      1  0.4603160000000  0.4843980000000  0.5086270000000 1.0
C      1  0.4411380000000  0.4605200000000  0.5896240000000 1.0
C      1  0.4652600000000  0.5461130000000  0.4116760000000 1.0
C      1  0.4255320000000  0.4637100000000  0.4137980000000 1.0
C      1  0.4452740000000  0.5876000000000  0.4943430000000 1.0
C      1  0.4457010000000  0.4783770000000  0.4782650000000 1.0
C      1  0.4712600000000  0.4255170000000  0.5677880000000 1.0
C      1  0.5697040000000  0.4282590000000  0.4858510000000 1.0
C      1  0.5085720000000  0.5046810000000  0.6143690000000 1.0
C      1  0.4451480000000  0.4192970000000  0.5573200000000 1.0
C      1  0.4222760000000  0.4365760000000  0.5535260000000 1.0
C      1  0.4373080000000  0.6050760000000  0.5489630000000 1.0
C      1  0.4539050000000  0.5337610000000  0.5223320000000 1.0
C      1  0.4215180000000  0.4857280000000  0.5017630000000 1.0
C      1  0.5580730000000  0.5316640000000  0.4103200000000 1.0
C      1  0.5486990000000  0.4394380000000  0.4378810000000 1.0
C      1  0.5232190000000  0.5116110000000  0.5928240000000 1.0
C      1  0.5019680000000  0.6217240000000  0.5067590000000 1.0
C      1  0.5308070000000  0.4009800000000  0.5304910000000 1.0
C      1  0.5286440000000  0.4247990000000  0.4224860000000 1.0
C      1  0.5018460000000  0.5633930000000  0.5101590000000 1.0
C      1  0.5360880000000  0.5154790000000  0.4021650000000 1.0
C      1  0.4493120000000  0.5551670000000  0.4988060000000 1.0
C      1  0.5204020000000  0.6073040000000  0.5240940000000 1.0
C      1  0.5411950000000  0.4777110000000  0.5130890000000 1.0
C      1  0.5469080000000  0.5552160000000  0.5814320000000 1.0
C      1  0.5426450000000  0.4851170000000  0.4113580000000 1.0
C      1  0.5778970000000  0.4388720000000  0.4377140000000 1.0
C      1  0.4997610000000  0.5353720000000  0.5547960000000 1.0
C      1  0.5920280000000  0.4742810000000  0.4935250000000 1.0
C      1  0.5150840000000  0.4273920000000  0.5283460000000 1.0
C      1  0.5398100000000  0.4708260000000  0.5465460000000 1.0
C      1  0.5641520000000  0.5566940000000  0.4620510000000 1.0
C      1  0.4342420000000  0.4098340000000  0.4475680000000 1.0
C      1  0.5494610000000  0.4023950000000  0.4832370000000 1.0
C      1  0.4094190000000  0.4425800000000  0.5291480000000 1.0
C      1  0.5670230000000  0.5700090000000  0.5640610000000 1.0
C      1  0.5062900000000  0.6162910000000  0.4789460000000 1.0
C      1  0.4596460000000  0.5062760000000  0.5647200000000 1.0
C      1  0.5152650000000  0.4056690000000  0.4396350000000 1.0
C      1  0.4276130000000  0.5096750000000  0.5727560000000 1.0
C      1  0.4127060000000  0.4847020000000  0.4192040000000 1.0
C      1  0.4968810000000  0.4123980000000  0.5657810000000 1.0
C      1  0.5428430000000  0.5478450000000  0.5413980000000 1.0
C      1  0.4982240000000  0.5665900000000  0.4193950000000 1.0
C      1  0.4890850000000  0.4496710000000  0.4377590000000 1.0
C      1  0.5544760000000  0.5228030000000  0.5563960000000 1.0
C      1  0.5345050000000  0.5012970000000  0.5459020000000 1.0
C      1  0.5909280000000  0.4786990000000  0.4541640000000 1.0
C      1  0.6119600000000  0.5077130000000  0.5024630000000 1.0
C      1  0.4130220000000  0.5601090000000  0.5559870000000 1.0
C      1  0.5505560000000  0.5242800000000  0.5883150000000 1.0
C      1  0.5484290000000  0.6001440000000  0.5273660000000 1.0
C      1  0.4657460000000  0.4073730000000  0.5153180000000 1.0
C      1  0.5063200000000  0.5820760000000  0.5333370000000 1.0
C      1  0.5567460000000  0.5787910000000  0.5070030000000 1.0
C      1  0.4387280000000  0.5086220000000  0.5193160000000 1.0
C      1  0.5095570000000  0.5070080000000  0.5650760000000 1.0
C      1  0.5482920000000  0.5047790000000  0.4386100000000 1.0
C      1  0.4726980000000  0.4466760000000  0.4743290000000 1.0
C      1  0.4562280000000  0.4273810000000  0.4372890000000 1.0
C      1  0.5435020000000  0.4740740000000  0.4814900000000 1.0
C      1  0.5537600000000  0.4043750000000  0.5135780000000 1.0
C      1  0.3926280000000  0.4843300000000  0.4744250000000 1.0
C      1  0.4529970000000  0.4588920000000  0.4511400000000 1.0
C      1  0.5080110000000  0.5167230000000  0.3958260000000 1.0
C      1  0.4791570000000  0.5862370000000  0.5458350000000 1.0
C      1  0.4558460000000  0.5948230000000  0.4692260000000 1.0
C      1  0.4105710000000  0.5108290000000  0.5362430000000 1.0
C      1  0.4633680000000  0.5024460000000  0.5984390000000 1.0
C      1  0.3819560000000  0.4814220000000  0.5036830000000 1.0
C      1  0.5466980000000  0.5485650000000  0.5135230000000 1.0
C      1  0.4966040000000  0.4953470000000  0.4546980000000 1.0
C      1  0.4509560000000  0.5087230000000  0.4697220000000 1.0
C      1  0.4884960000000  0.5989300000000  0.4616710000000 1.0
C      1  0.4857970000000  0.4441390000000  0.5301050000000 1.0
C      1  0.5915160000000  0.4297840000000  0.4616870000000 1.0
C      1  0.4704540000000  0.4545460000000  0.5788870000000 1.0
C      1  0.5132460000000  0.4537900000000  0.5479250000000 1.0
C      1  0.4853490000000  0.4158110000000  0.4449770000000 1.0
C      1  0.4158940000000  0.3939830000000  0.4901060000000 1.0
C      1  0.5106080000000  0.4411020000000  0.4054940000000 1.0
C      1  0.4998310000000  0.5378630000000  0.4376250000000 1.0
C      1  0.4570460000000  0.4612340000000  0.4170410000000 1.0
C      1  0.4605640000000  0.5518760000000  0.5968000000000 1.0
C      1  0.4857540000000  0.5051900000000  0.5133810000000 1.0
C      1  0.5670730000000  0.4607010000000  0.5589900000000 1.0
C      1  0.5801130000000  0.4823120000000  0.5767740000000 1.0
C      1  0.4173870000000  0.4364560000000  0.5008450000000 1.0
C      1  0.6061380000000  0.4445530000000  0.4839760000000 1.0
C      1  0.4468830000000  0.4352010000000  0.5175790000000 1.0
C      1  0.5098790000000  0.5758640000000  0.4484890000000 1.0
C      1  0.6156790000000  0.4958740000000  0.4703110000000 1.0
C      1  0.4860420000000  0.5611270000000  0.5940900000000 1.0
C      1  0.4919740000000  0.4637690000000  0.5974560000000 1.0
C      1  0.5786800000000  0.5302680000000  0.4699960000000 1.0
C      1  0.4731910000000  0.5086050000000  0.4477650000000 1.0
C      1  0.4593660000000  0.5079410000000  0.4213730000000 1.0
C      1  0.4766440000000  0.6266100000000  0.5191700000000 1.0
C      1  0.3994190000000  0.5133320000000  0.4706110000000 1.0
C      1  0.5032330000000  0.3931180000000  0.5447060000000 1.0
C      1  0.5726890000000  0.4279100000000  0.5185940000000 1.0
C      1  0.4196570000000  0.5686070000000  0.4996520000000 1.0
C      1  0.5056160000000  0.4436760000000  0.4647790000000 1.0
C      1  0.4706490000000  0.4856440000000  0.4060720000000 1.0
C      1  0.4924350000000  0.5403730000000  0.3985300000000 1.0
C      1  0.4967970000000  0.4893040000000  0.3967620000000 1.0
C      1  0.4733360000000  0.5834090000000  0.4354480000000 1.0
C      1  0.4642080000000  0.6101590000000  0.5386930000000 1.0
C      1  0.5318400000000  0.5052550000000  0.4858930000000 1.0
C      1  0.4032690000000  0.4726040000000  0.5275230000000 1.0
C      1  0.4264080000000  0.5109070000000  0.4271370000000 1.0
C      1  0.4921310000000  0.4899600000000  0.5437440000000 1.0
C      1  0.5244320000000  0.5664300000000  0.5509480000000 1.0
C      1  0.4451390000000  0.5280320000000  0.5946860000000 1.0
C      1  0.5453190000000  0.4444820000000  0.5759810000000 1.0
C      1  0.5173380000000  0.4688020000000  0.4014900000000 1.0
C      1  0.5083970000000  0.4744560000000  0.4398620000000 1.0
C      1  0.4639930000000  0.5459680000000  0.4731080000000 1.0
C      1  0.5126420000000  0.5196670000000  0.5273410000000 1.0
C      1  0.4926500000000  0.4640640000000  0.4960300000000 1.0
C      1  0.5271260000000  0.5228830000000  0.4468010000000 1.0
C      1  0.5836330000000  0.5263140000000  0.5477740000000 1.0
C      1  0.4419410000000  0.5781230000000  0.4475430000000 1.0
END
