TITL C-2778424-3986-870 -0.00443483735562704 125000 -898.815375650613 0 0 156 (C1) n - 1
REM
REM in /home/nfs/bkarasulu/CARBON/AIRSS/Generating-Clusters/REBO/Only-C1/SD-CG/HFTN-CG
REM
REM
REM
REM
REM
REM ./C.cell (11c1c37f851c82e70ff6c80c92926a4b)
REM
REM compiler GCC version 9.2.1 20190827 (Red Hat 9.2.1-1)
REM options -cpp -mtune=generic -march=x86-64 -g -O0 -fpre-include=/usr/include/finclude/math-vector-fortran.h
REM seed -748601085 -869838505 -1221062474 410601078 -1040080931 -1356017667 508917403 605880735 396005324 -454440534 870327371 2041330713 -484502211 -268047941 2043933550 36837685 -2060910611 1408100498 289228746 936480044 2013443340 1361065447 -2111263331 1110644398 -769647748 -764692815 958539963 1770498455 1901587719 -113680060 -463820549 451372297 -1461684205
REM
CELL 1.54180   50.00000   50.00000   50.00000   90.00000   90.00000   90.00000
LATT -1
SFAC C  
C      1  0.5968130000000  0.5321410000000  0.5214190000000 1.0
C      1  0.5258050000000  0.5371680000000  0.4574140000000 1.0
C      1  0.4755750000000  0.5131830000000  0.5145240000000 1.0
C      1  0.4177330000000  0.4799800000000  0.4488540000000 1.0
C      1  0.4685150000000  0.5095030000000  0.4866940000000 1.0
C      1  0.4848980000000  0.5822810000000  0.4511030000000 1.0
C      1  0.4696510000000  0.4693920000000  0.5839520000000 1.0
C      1  0.4341010000000  0.4118280000000  0.4771720000000 1.0
C      1  0.4898360000000  0.5941860000000  0.4830820000000 1.0
C      1  0.4615960000000  0.5148150000000  0.4477460000000 1.0
C      1  0.4548400000000  0.4351360000000  0.5165500000000 1.0
C      1  0.5019730000000  0.3928550000000  0.4901350000000 1.0
C      1  0.5123750000000  0.5496260000000  0.5270130000000 1.0
C      1  0.5221050000000  0.6057800000000  0.5329060000000 1.0
C      1  0.4674460000000  0.4380960000000  0.5703650000000 1.0
C      1  0.5505840000000  0.4572330000000  0.5629310000000 1.0
C      1  0.5592830000000  0.5815790000000  0.4750670000000 1.0
C      1  0.5109240000000  0.4940810000000  0.4309460000000 1.0
C      1  0.5155470000000  0.5945450000000  0.5056980000000 1.0
C      1  0.4480110000000  0.5088260000000  0.5428750000000 1.0
C      1  0.4914230000000  0.4649000000000  0.4119070000000 1.0
C      1  0.4103410000000  0.5196110000000  0.5464440000000 1.0
C      1  0.4393840000000  0.5459030000000  0.4974800000000 1.0
C      1  0.5752520000000  0.4553140000000  0.5581990000000 1.0
C      1  0.5691470000000  0.4692900000000  0.4529530000000 1.0
C      1  0.5318580000000  0.5534090000000  0.4189290000000 1.0
C      1  0.5283300000000  0.5630000000000  0.5024340000000 1.0
C      1  0.4834010000000  0.4130040000000  0.5537370000000 1.0
C      1  0.5034270000000  0.5136680000000  0.5886640000000 1.0
C      1  0.5506180000000  0.4977520000000  0.4594270000000 1.0
C      1  0.4679200000000  0.5908860000000  0.5089580000000 1.0
C      1  0.5335870000000  0.4214930000000  0.5577510000000 1.0
C      1  0.5225340000000  0.4892590000000  0.4737430000000 1.0
C      1  0.4142060000000  0.4492040000000  0.5187330000000 1.0
C      1  0.5185980000000  0.5014960000000  0.3840120000000 1.0
C      1  0.3995350000000  0.5464080000000  0.4944270000000 1.0
C      1  0.5522070000000  0.4953440000000  0.4253420000000 1.0
C      1  0.5189110000000  0.4488740000000  0.4126330000000 1.0
C      1  0.4900090000000  0.4294980000000  0.4984290000000 1.0
C      1  0.5832000000000  0.4492740000000  0.5274470000000 1.0
C      1  0.5663940000000  0.4731330000000  0.4866210000000 1.0
C      1  0.5755110000000  0.5187700000000  0.4339440000000 1.0
C      1  0.4692080000000  0.4460430000000  0.5367650000000 1.0
C      1  0.4279870000000  0.4956040000000  0.5644480000000 1.0
C      1  0.3872050000000  0.6446280000000  0.4865910000000 1.0
C      1  0.4851210000000  0.5274470000000  0.5684380000000 1.0
C      1  0.5634360000000  0.5253480000000  0.4714650000000 1.0
C      1  0.5670830000000  0.5902160000000  0.4991500000000 1.0
C      1  0.4872350000000  0.5155090000000  0.5454670000000 1.0
C      1  0.5152060000000  0.5378700000000  0.6021390000000 1.0
C      1  0.5093690000000  0.4136270000000  0.5434570000000 1.0
C      1  0.5935490000000  0.4989240000000  0.5233820000000 1.0
C      1  0.5252170000000  0.4502840000000  0.5418490000000 1.0
C      1  0.4415190000000  0.5244890000000  0.4721340000000 1.0
C      1  0.4822190000000  0.4477980000000  0.4639500000000 1.0
C      1  0.4829810000000  0.4707370000000  0.5540990000000 1.0
C      1  0.4709600000000  0.4604490000000  0.4343190000000 1.0
C      1  0.5346400000000  0.5544360000000  0.5820690000000 1.0
C      1  0.4972330000000  0.4995140000000  0.4574020000000 1.0
C      1  0.4739010000000  0.4086510000000  0.4786740000000 1.0
C      1  0.6049820000000  0.5502840000000  0.4721910000000 1.0
C      1  0.5562000000000  0.5242710000000  0.5617260000000 1.0
C      1  0.5525730000000  0.5570730000000  0.5532440000000 1.0
C      1  0.5321980000000  0.4714650000000  0.4343530000000 1.0
C      1  0.4843510000000  0.5560830000000  0.4729990000000 1.0
C      1  0.5595850000000  0.4410460000000  0.4391490000000 1.0
C      1  0.5583240000000  0.4116350000000  0.5487800000000 1.0
C      1  0.4453940000000  0.4852460000000  0.5860880000000 1.0
C      1  0.5002390000000  0.5615070000000  0.5829740000000 1.0
C      1  0.5558570000000  0.5313990000000  0.4089650000000 1.0
C      1  0.5449590000000  0.4998770000000  0.5272360000000 1.0
C      1  0.5106140000000  0.4664320000000  0.5160070000000 1.0
C      1  0.4442000000000  0.4197990000000  0.5531010000000 1.0
C      1  0.5449680000000  0.4222490000000  0.5024090000000 1.0
C      1  0.5431980000000  0.5061530000000  0.3953680000000 1.0
C      1  0.5648190000000  0.5568400000000  0.4282200000000 1.0
C      1  0.4886580000000  0.4607530000000  0.4949370000000 1.0
C      1  0.5060730000000  0.4939050000000  0.5312250000000 1.0
C      1  0.5140530000000  0.4147480000000  0.5136020000000 1.0
C      1  0.4129490000000  0.4667230000000  0.5544690000000 1.0
C      1  0.4117720000000  0.5450490000000  0.5595500000000 1.0
C      1  0.5135000000000  0.5702980000000  0.4754280000000 1.0
C      1  0.5560520000000  0.4425410000000  0.4801160000000 1.0
C      1  0.5494160000000  0.5075190000000  0.5881810000000 1.0
C      1  0.5230810000000  0.5806060000000  0.5662700000000 1.0
C      1  0.4599310000000  0.4769630000000  0.4861550000000 1.0
C      1  0.4977700000000  0.4825910000000  0.5969840000000 1.0
C      1  0.5213280000000  0.5025730000000  0.5028980000000 1.0
C      1  0.4686930000000  0.5557540000000  0.5714030000000 1.0
C      1  0.4151600000000  0.4472680000000  0.4888630000000 1.0
C      1  0.5814840000000  0.5159030000000  0.5474720000000 1.0
C      1  0.5507570000000  0.4437370000000  0.4126880000000 1.0
C      1  0.5888830000000  0.4407950000000  0.4802230000000 1.0
C      1  0.4952020000000  0.4954290000000  0.4033890000000 1.0
C      1  0.4166090000000  0.5035160000000  0.4673420000000 1.0
C      1  0.4764270000000  0.4182240000000  0.4295390000000 1.0
C      1  0.4342390000000  0.4473230000000  0.4430540000000 1.0
C      1  0.4373290000000  0.5583070000000  0.5570350000000 1.0
C      1  0.4736090000000  0.3939130000000  0.5094360000000 1.0
C      1  0.6073780000000  0.5296890000000  0.4902940000000 1.0
C      1  0.4881900000000  0.6023790000000  0.5333580000000 1.0
C      1  0.4220550000000  0.4354150000000  0.5459850000000 1.0
C      1  0.5466440000000  0.5636960000000  0.4543040000000 1.0
C      1  0.4566740000000  0.5397580000000  0.5389820000000 1.0
C      1  0.4070970000000  0.5974480000000  0.4986290000000 1.0
C      1  0.5322820000000  0.4583180000000  0.4634440000000 1.0
C      1  0.6006860000000  0.4470900000000  0.5018980000000 1.0
C      1  0.5327180000000  0.4884650000000  0.5977900000000 1.0
C      1  0.5478580000000  0.4178010000000  0.4504550000000 1.0
C      1  0.3942300000000  0.5217400000000  0.4850800000000 1.0
C      1  0.5619910000000  0.4749330000000  0.5261180000000 1.0
C      1  0.5662380000000  0.4223190000000  0.5248530000000 1.0
C      1  0.4632460000000  0.4005420000000  0.5346910000000 1.0
C      1  0.4319420000000  0.4941020000000  0.4960840000000 1.0
C      1  0.5466080000000  0.5901690000000  0.5463570000000 1.0
C      1  0.5670660000000  0.5801630000000  0.5243240000000 1.0
C      1  0.4447250000000  0.4501970000000  0.4931120000000 1.0
C      1  0.4185220000000  0.5703510000000  0.5055440000000 1.0
C      1  0.5265150000000  0.5275020000000  0.4844440000000 1.0
C      1  0.4300400000000  0.5202970000000  0.5176840000000 1.0
C      1  0.4708740000000  0.5128710000000  0.4071740000000 1.0
C      1  0.4088450000000  0.4519850000000  0.4620260000000 1.0
C      1  0.5210650000000  0.4587380000000  0.5924580000000 1.0
C      1  0.5393150000000  0.4671390000000  0.5052620000000 1.0
C      1  0.4562290000000  0.4264370000000  0.4554260000000 1.0
C      1  0.4362180000000  0.4730050000000  0.5297190000000 1.0
C      1  0.5022420000000  0.5732870000000  0.5448080000000 1.0
C      1  0.5696080000000  0.5482000000000  0.5248420000000 1.0
C      1  0.5266410000000  0.4106650000000  0.4760710000000 1.0
C      1  0.4467110000000  0.4993830000000  0.4086540000000 1.0
C      1  0.6004580000000  0.5039000000000  0.4782210000000 1.0
C      1  0.5893190000000  0.4873330000000  0.4985120000000 1.0
C      1  0.5166590000000  0.5737630000000  0.4418290000000 1.0
C      1  0.5818520000000  0.5448880000000  0.4529310000000 1.0
C      1  0.3984080000000  0.4961140000000  0.5018120000000 1.0
C      1  0.5525590000000  0.5419410000000  0.4991910000000 1.0
C      1  0.4776560000000  0.5358940000000  0.4278780000000 1.0
C      1  0.3971160000000  0.6211210000000  0.4925890000000 1.0
C      1  0.4679720000000  0.5656820000000  0.4319700000000 1.0
C      1  0.4680430000000  0.5603820000000  0.4974530000000 1.0
C      1  0.4698670000000  0.5780510000000  0.5466150000000 1.0
C      1  0.4069270000000  0.4906480000000  0.5310150000000 1.0
C      1  0.5202650000000  0.5008890000000  0.5618680000000 1.0
C      1  0.4437200000000  0.5731770000000  0.5264120000000 1.0
C      1  0.5076130000000  0.5359220000000  0.4334620000000 1.0
C      1  0.4417720000000  0.4754240000000  0.4267720000000 1.0
C      1  0.4860160000000  0.5284940000000  0.4662560000000 1.0
C      1  0.5120750000000  0.4349900000000  0.4607130000000 1.0
C      1  0.5897310000000  0.4963950000000  0.4521800000000 1.0
C      1  0.4687820000000  0.4841980000000  0.4548830000000 1.0
C      1  0.4817540000000  0.5448890000000  0.5195190000000 1.0
C      1  0.5023950000000  0.4286950000000  0.4309920000000 1.0
C      1  0.4654620000000  0.4852020000000  0.5316070000000 1.0
C      1  0.4385770000000  0.4124330000000  0.5045490000000 1.0
C      1  0.5126110000000  0.4697470000000  0.5622440000000 1.0
C      1  0.5290310000000  0.5266480000000  0.5411280000000 1.0
END
