TITL C-2778436-5916-1397 0.00356344650803118 125000 -748.473760289918 0 0 130 (C1) n - 1
REM
REM in /home/nfs/bkarasulu/CARBON/AIRSS/Generating-Clusters/REBO/Only-C1/SD-CG/HFTN-CG
REM
REM
REM
REM
REM
REM ./C.cell (11c1c37f851c82e70ff6c80c92926a4b)
REM
REM compiler GCC version 9.2.1 20190827 (Red Hat 9.2.1-1)
REM options -cpp -mtune=generic -march=x86-64 -g -O0 -fpre-include=/usr/include/finclude/math-vector-fortran.h
REM seed 838712977 577155060 234006390 34711802 -386285887 -275160665 -1951137610 1522480483 387101367 1051291247 -417841059 -609414260 -228680088 -855117982 617449909 25737164 255055085 -1974322078 -229832317 -1188755147 -457800118 686317142 -1781518361 -169860502 2131308413 -1488729303 1711467766 562206122 1568074828 -556054847 -1566774115 -352177861 -1698322968
REM
CELL 1.54180   50.00000   50.00000   50.00000   90.00000   90.00000   90.00000
LATT -1
SFAC C  
C      1  0.4679190000000  0.4997360000000  0.4989150000000 1.0
C      1  0.4300030000000  0.5313590000000  0.5276320000000 1.0
C      1  0.5320140000000  0.5154280000000  0.4151280000000 1.0
C      1  0.4527340000000  0.5744600000000  0.5545820000000 1.0
C      1  0.4335010000000  0.4278780000000  0.5180950000000 1.0
C      1  0.3941260000000  0.5179240000000  0.4879540000000 1.0
C      1  0.4779610000000  0.5143550000000  0.4113210000000 1.0
C      1  0.5965770000000  0.4972910000000  0.4922210000000 1.0
C      1  0.5165920000000  0.5351580000000  0.4772500000000 1.0
C      1  0.5816520000000  0.5564030000000  0.5188780000000 1.0
C      1  0.4408290000000  0.4598280000000  0.4448500000000 1.0
C      1  0.5545630000000  0.5782700000000  0.4821130000000 1.0
C      1  0.5322590000000  0.4402850000000  0.5754580000000 1.0
C      1  0.4929060000000  0.4195250000000  0.4368850000000 1.0
C      1  0.5137930000000  0.4888200000000  0.4801300000000 1.0
C      1  0.4414080000000  0.4973610000000  0.4311720000000 1.0
C      1  0.5573440000000  0.4337630000000  0.5203780000000 1.0
C      1  0.5556540000000  0.4755380000000  0.5329190000000 1.0
C      1  0.4866680000000  0.4083820000000  0.5204860000000 1.0
C      1  0.4208320000000  0.5180090000000  0.4584510000000 1.0
C      1  0.4717230000000  0.4729430000000  0.4399600000000 1.0
C      1  0.5142450000000  0.4099030000000  0.5084310000000 1.0
C      1  0.5414830000000  0.5764970000000  0.4547670000000 1.0
C      1  0.4869730000000  0.4504150000000  0.4517640000000 1.0
C      1  0.5729320000000  0.4555110000000  0.4562680000000 1.0
C      1  0.4315490000000  0.4957050000000  0.4821910000000 1.0
C      1  0.5248090000000  0.5053960000000  0.5031660000000 1.0
C      1  0.5533880000000  0.4623220000000  0.5025330000000 1.0
C      1  0.4184930000000  0.4842650000000  0.4529440000000 1.0
C      1  0.4863500000000  0.5500150000000  0.5221410000000 1.0
C      1  0.5305720000000  0.5777820000000  0.5045020000000 1.0
C      1  0.5356950000000  0.4685560000000  0.4745980000000 1.0
C      1  0.5060550000000  0.4431320000000  0.5339920000000 1.0
C      1  0.5183050000000  0.4777510000000  0.5195030000000 1.0
C      1  0.4919610000000  0.4933940000000  0.4287990000000 1.0
C      1  0.4292600000000  0.4861750000000  0.5442070000000 1.0
C      1  0.5164220000000  0.5880140000000  0.4751300000000 1.0
C      1  0.4328350000000  0.4765740000000  0.5033670000000 1.0
C      1  0.4569950000000  0.5557860000000  0.4243820000000 1.0
C      1  0.5265330000000  0.5409870000000  0.4266680000000 1.0
C      1  0.4782940000000  0.5414580000000  0.4437790000000 1.0
C      1  0.3914980000000  0.4906270000000  0.4844730000000 1.0
C      1  0.5465780000000  0.5180360000000  0.5829750000000 1.0
C      1  0.5476700000000  0.4334340000000  0.4620600000000 1.0
C      1  0.5561440000000  0.5480250000000  0.4979210000000 1.0
C      1  0.5417480000000  0.4785050000000  0.5813920000000 1.0
C      1  0.4878590000000  0.5473950000000  0.5779180000000 1.0
C      1  0.5428080000000  0.5243700000000  0.5553620000000 1.0
C      1  0.5531980000000  0.4901240000000  0.4581930000000 1.0
C      1  0.4914260000000  0.4136970000000  0.4664090000000 1.0
C      1  0.4923400000000  0.4699600000000  0.5985100000000 1.0
C      1  0.4873850000000  0.5730230000000  0.4664770000000 1.0
C      1  0.4830880000000  0.4808270000000  0.4774210000000 1.0
C      1  0.4598490000000  0.5515440000000  0.5697200000000 1.0
C      1  0.4568120000000  0.4393580000000  0.5361790000000 1.0
C      1  0.4092580000000  0.5342480000000  0.5097060000000 1.0
C      1  0.4413770000000  0.5291650000000  0.4351390000000 1.0
C      1  0.5114710000000  0.4647800000000  0.3917100000000 1.0
C      1  0.5360490000000  0.5032120000000  0.5350840000000 1.0
C      1  0.4510810000000  0.5268570000000  0.4924180000000 1.0
C      1  0.4927450000000  0.5234290000000  0.5915250000000 1.0
C      1  0.5235210000000  0.4608230000000  0.6014260000000 1.0
C      1  0.4602860000000  0.4761890000000  0.5210430000000 1.0
C      1  0.4748410000000  0.4969290000000  0.5872640000000 1.0
C      1  0.5829710000000  0.5776450000000  0.4963820000000 1.0
C      1  0.5743530000000  0.5021140000000  0.5245370000000 1.0
C      1  0.5360190000000  0.4580290000000  0.4420250000000 1.0
C      1  0.5157710000000  0.4967620000000  0.5689110000000 1.0
C      1  0.5656490000000  0.4966670000000  0.5921140000000 1.0
C      1  0.5920600000000  0.4740100000000  0.5167500000000 1.0
C      1  0.4439480000000  0.4379220000000  0.4677760000000 1.0
C      1  0.5233620000000  0.5449180000000  0.5071430000000 1.0
C      1  0.4993380000000  0.4485180000000  0.5729740000000 1.0
C      1  0.4541600000000  0.5458430000000  0.5164380000000 1.0
C      1  0.5042400000000  0.5051490000000  0.4540110000000 1.0
C      1  0.4211860000000  0.4578570000000  0.5289110000000 1.0
C      1  0.4891170000000  0.6071830000000  0.4835080000000 1.0
C      1  0.5060950000000  0.5295210000000  0.5321450000000 1.0
C      1  0.5538680000000  0.5157580000000  0.5009560000000 1.0
C      1  0.5206540000000  0.5162950000000  0.5975250000000 1.0
C      1  0.5359260000000  0.5174020000000  0.4574880000000 1.0
C      1  0.4667230000000  0.5794020000000  0.4400780000000 1.0
C      1  0.5118160000000  0.4708840000000  0.5517240000000 1.0
C      1  0.5781440000000  0.5219000000000  0.4774730000000 1.0
C      1  0.5201790000000  0.4241430000000  0.4799120000000 1.0
C      1  0.4558320000000  0.5753080000000  0.5273440000000 1.0
C      1  0.5842690000000  0.4489790000000  0.5238900000000 1.0
C      1  0.5119640000000  0.4442970000000  0.4312100000000 1.0
C      1  0.5678420000000  0.5260580000000  0.4491300000000 1.0
C      1  0.4253900000000  0.4456710000000  0.4914120000000 1.0
C      1  0.5430320000000  0.4867260000000  0.4267500000000 1.0
C      1  0.4712110000000  0.4344500000000  0.5659270000000 1.0
C      1  0.4785690000000  0.5840720000000  0.5038580000000 1.0
C      1  0.4620840000000  0.4137660000000  0.5060050000000 1.0
C      1  0.4641680000000  0.4652890000000  0.5803210000000 1.0
C      1  0.4967530000000  0.5153300000000  0.5525840000000 1.0
C      1  0.4870670000000  0.5203710000000  0.4793380000000 1.0
C      1  0.5802720000000  0.4736810000000  0.4338840000000 1.0
C      1  0.3994650000000  0.4648350000000  0.4848640000000 1.0
C      1  0.5525280000000  0.4597990000000  0.5579450000000 1.0
C      1  0.4948670000000  0.5795780000000  0.5334480000000 1.0
C      1  0.4667780000000  0.5304990000000  0.3950200000000 1.0
C      1  0.4374540000000  0.5690390000000  0.4720760000000 1.0
C      1  0.5142910000000  0.4798450000000  0.4130710000000 1.0
C      1  0.4883720000000  0.4114770000000  0.5499470000000 1.0
C      1  0.4147480000000  0.5441880000000  0.4776550000000 1.0
C      1  0.4525720000000  0.5410730000000  0.4652480000000 1.0
C      1  0.4564100000000  0.4926860000000  0.4614170000000 1.0
C      1  0.5799400000000  0.5015530000000  0.4309190000000 1.0
C      1  0.5054230000000  0.5439270000000  0.4462090000000 1.0
C      1  0.5257820000000  0.5845390000000  0.5435520000000 1.0
C      1  0.5062940000000  0.5631330000000  0.5613380000000 1.0
C      1  0.5354850000000  0.4171110000000  0.5268710000000 1.0
C      1  0.5741460000000  0.4761170000000  0.4811500000000 1.0
C      1  0.5531290000000  0.5716050000000  0.5295960000000 1.0
C      1  0.4373260000000  0.5125040000000  0.5467230000000 1.0
C      1  0.4604090000000  0.5941120000000  0.4698700000000 1.0
C      1  0.5904110000000  0.4935440000000  0.6025640000000 1.0
C      1  0.5198710000000  0.4197130000000  0.5544750000000 1.0
C      1  0.5910700000000  0.5272100000000  0.5087260000000 1.0
C      1  0.4884090000000  0.4507270000000  0.4839550000000 1.0
C      1  0.5367270000000  0.5525890000000  0.5512700000000 1.0
C      1  0.4827290000000  0.5522800000000  0.4894210000000 1.0
C      1  0.4428500000000  0.4721050000000  0.4127100000000 1.0
C      1  0.4645000000000  0.5186140000000  0.5631070000000 1.0
C      1  0.4519610000000  0.4665210000000  0.5526200000000 1.0
C      1  0.4786440000000  0.4488290000000  0.5156430000000 1.0
C      1  0.5494220000000  0.5529970000000  0.4396390000000 1.0
C      1  0.4648130000000  0.4191860000000  0.4776470000000 1.0
C      1  0.5159080000000  0.4492350000000  0.5026310000000 1.0
END
