TITL C-2778428-5639-398 0.00105946888007741 125000 -245.069557295883 0 0 44 (C1) n - 1
REM
REM in /home/nfs/bkarasulu/CARBON/AIRSS/Generating-Clusters/REBO/Only-C1/SD-CG/HFTN-CG
REM
REM
REM
REM
REM
REM ./C.cell (11c1c37f851c82e70ff6c80c92926a4b)
REM
REM compiler GCC version 9.2.1 20190827 (Red Hat 9.2.1-1)
REM options -cpp -mtune=generic -march=x86-64 -g -O0 -fpre-include=/usr/include/finclude/math-vector-fortran.h
REM seed -307630447 70478094 -2057887730 489319370 -659153868 1210045364 108051101 1135566013 -144668717 1268204904 -1269355861 -438820570 -1621148360 1598132046 -1889358148 -1386223650 708931950 85892636 -2085973665 157847651 1196790932 -619482763 1250925880 -26136089 -2033279361 -666771697 -315531353 809139733 -123731744 -472592906 -1211267642 1326131845 790947493
REM
CELL 1.54180   50.00000   50.00000   50.00000   90.00000   90.00000   90.00000
LATT -1
SFAC C  
C      1  0.5418030000000  0.4638750000000  0.4577570000000 1.0
C      1  0.5438720000000  0.5149630000000  0.4647410000000 1.0
C      1  0.5003830000000  0.5673930000000  0.5328820000000 1.0
C      1  0.5627970000000  0.4978230000000  0.5158970000000 1.0
C      1  0.5236690000000  0.5683300000000  0.5166780000000 1.0
C      1  0.5169120000000  0.5146900000000  0.4555350000000 1.0
C      1  0.4391000000000  0.4432320000000  0.5271200000000 1.0
C      1  0.4616350000000  0.4451890000000  0.4755070000000 1.0
C      1  0.5175980000000  0.5139740000000  0.5170250000000 1.0
C      1  0.4814370000000  0.4971170000000  0.5190670000000 1.0
C      1  0.4606780000000  0.4991960000000  0.5455880000000 1.0
C      1  0.4827340000000  0.5761460000000  0.4862210000000 1.0
C      1  0.5550830000000  0.4878520000000  0.4621070000000 1.0
C      1  0.5178790000000  0.4440740000000  0.5160940000000 1.0
C      1  0.5478470000000  0.5352690000000  0.4858380000000 1.0
C      1  0.4814700000000  0.5167540000000  0.5002030000000 1.0
C      1  0.4704310000000  0.5686550000000  0.5065000000000 1.0
C      1  0.4517370000000  0.5228320000000  0.5260890000000 1.0
C      1  0.5254310000000  0.4302080000000  0.4966780000000 1.0
C      1  0.4737040000000  0.5449180000000  0.5275020000000 1.0
C      1  0.4968690000000  0.4676730000000  0.5173390000000 1.0
C      1  0.4577210000000  0.4344380000000  0.5016020000000 1.0
C      1  0.5206370000000  0.4387110000000  0.4677090000000 1.0
C      1  0.5621650000000  0.5249780000000  0.5080690000000 1.0
C      1  0.5147150000000  0.4882290000000  0.4987620000000 1.0
C      1  0.5560920000000  0.4556440000000  0.4941310000000 1.0
C      1  0.4490500000000  0.4710980000000  0.5415680000000 1.0
C      1  0.5024950000000  0.5277860000000  0.5337110000000 1.0
C      1  0.4746340000000  0.4960630000000  0.4667870000000 1.0
C      1  0.5068980000000  0.5620980000000  0.4729060000000 1.0
C      1  0.5100680000000  0.4670800000000  0.4538210000000 1.0
C      1  0.4868490000000  0.4401340000000  0.4629280000000 1.0
C      1  0.4990660000000  0.5481290000000  0.5581840000000 1.0
C      1  0.4717320000000  0.4529310000000  0.5252220000000 1.0
C      1  0.5023860000000  0.4915760000000  0.4686350000000 1.0
C      1  0.4459800000000  0.4691240000000  0.4722420000000 1.0
C      1  0.4675280000000  0.5062200000000  0.5715300000000 1.0
C      1  0.4820940000000  0.5365350000000  0.4807730000000 1.0
C      1  0.4391760000000  0.4926200000000  0.4847660000000 1.0
C      1  0.5001980000000  0.5369670000000  0.4550420000000 1.0
C      1  0.5302990000000  0.5579190000000  0.4909260000000 1.0
C      1  0.4407300000000  0.5130990000000  0.5028330000000 1.0
C      1  0.5454080000000  0.4800070000000  0.5016620000000 1.0
C      1  0.5810110000000  0.4884500000000  0.5338220000000 1.0
END
