TITL C-2778427-5640-1232 -0.000898825384602715 125000 -914.456429915121 0 0 159 (C1) n - 1
REM
REM in /home/nfs/bkarasulu/CARBON/AIRSS/Generating-Clusters/REBO/Only-C1/SD-CG/HFTN-CG
REM
REM
REM
REM
REM
REM ./C.cell (11c1c37f851c82e70ff6c80c92926a4b)
REM
REM compiler GCC version 9.2.1 20190827 (Red Hat 9.2.1-1)
REM options -cpp -mtune=generic -march=x86-64 -g -O0 -fpre-include=/usr/include/finclude/math-vector-fortran.h
REM seed -122240503 1452322901 -781382439 -1147226700 1270223318 884680975 -1793624757 -166861356 -777456292 1671056342 295116181 1327960461 1248982905 2016448915 300052788 -1437825537 2142675495 1057893537 1055615376 -1549603176 990511268 -2100620719 269648308 1833253944 -679324619 -1985169948 -211945480 -684832033 -739963421 -1432170576 -365652233 331363656 111573870
REM
CELL 1.54180   50.00000   50.00000   50.00000   90.00000   90.00000   90.00000
LATT -1
SFAC C  
C      1  0.4736420000000  0.4543980000000  0.4622790000000 1.0
C      1  0.5604680000000  0.5737070000000  0.5322780000000 1.0
C      1  0.5228730000000  0.5010240000000  0.4504320000000 1.0
C      1  0.5513790000000  0.5283020000000  0.5745140000000 1.0
C      1  0.4943610000000  0.4900010000000  0.5595010000000 1.0
C      1  0.5490490000000  0.4738450000000  0.4124730000000 1.0
C      1  0.5219520000000  0.4834400000000  0.5546340000000 1.0
C      1  0.5199290000000  0.4116150000000  0.5303480000000 1.0
C      1  0.5702750000000  0.5136840000000  0.4443350000000 1.0
C      1  0.4675010000000  0.4074900000000  0.4687110000000 1.0
C      1  0.5240920000000  0.5646680000000  0.4258830000000 1.0
C      1  0.4187500000000  0.5356060000000  0.4953980000000 1.0
C      1  0.4720900000000  0.4901540000000  0.5855020000000 1.0
C      1  0.4467960000000  0.4573880000000  0.5210010000000 1.0
C      1  0.4897760000000  0.5234460000000  0.4145130000000 1.0
C      1  0.5237550000000  0.5538000000000  0.5365230000000 1.0
C      1  0.4670500000000  0.4636290000000  0.4114550000000 1.0
C      1  0.5388200000000  0.4873060000000  0.4881290000000 1.0
C      1  0.5672800000000  0.5537370000000  0.4973750000000 1.0
C      1  0.5177710000000  0.4045570000000  0.4991910000000 1.0
C      1  0.5008160000000  0.4742450000000  0.5952960000000 1.0
C      1  0.4208150000000  0.4303560000000  0.4858570000000 1.0
C      1  0.4313610000000  0.5670090000000  0.4997160000000 1.0
C      1  0.4717630000000  0.5364030000000  0.5587270000000 1.0
C      1  0.4632000000000  0.5593720000000  0.4772600000000 1.0
C      1  0.5135020000000  0.5985610000000  0.5217820000000 1.0
C      1  0.4908220000000  0.5569030000000  0.4209210000000 1.0
C      1  0.4762520000000  0.4387580000000  0.5493030000000 1.0
C      1  0.4216900000000  0.4446400000000  0.4570940000000 1.0
C      1  0.5191460000000  0.5244540000000  0.5688950000000 1.0
C      1  0.5137830000000  0.5293060000000  0.4457720000000 1.0
C      1  0.5691950000000  0.4390070000000  0.4850380000000 1.0
C      1  0.5297400000000  0.4363180000000  0.5765240000000 1.0
C      1  0.4955160000000  0.4106960000000  0.5486820000000 1.0
C      1  0.5418820000000  0.5192440000000  0.5277460000000 1.0
C      1  0.4755040000000  0.5226990000000  0.5874600000000 1.0
C      1  0.6002800000000  0.5126010000000  0.5084000000000 1.0
C      1  0.4683390000000  0.6116060000000  0.5120810000000 1.0
C      1  0.4598720000000  0.5645180000000  0.5181620000000 1.0
C      1  0.5005100000000  0.5804100000000  0.4432690000000 1.0
C      1  0.5309800000000  0.5170830000000  0.4859710000000 1.0
C      1  0.4395850000000  0.5025450000000  0.5660660000000 1.0
C      1  0.4040960000000  0.4394410000000  0.5056340000000 1.0
C      1  0.5202290000000  0.4570410000000  0.4413600000000 1.0
C      1  0.4478620000000  0.4258090000000  0.4473890000000 1.0
C      1  0.4526220000000  0.5325410000000  0.4959180000000 1.0
C      1  0.5813870000000  0.5545210000000  0.5345100000000 1.0
C      1  0.3999350000000  0.4950530000000  0.4717920000000 1.0
C      1  0.5296410000000  0.4415760000000  0.4901040000000 1.0
C      1  0.4826730000000  0.5288970000000  0.4480430000000 1.0
C      1  0.5559590000000  0.5279250000000  0.4691860000000 1.0
C      1  0.5738200000000  0.4908600000000  0.5546390000000 1.0
C      1  0.4230290000000  0.4891590000000  0.5152780000000 1.0
C      1  0.4457960000000  0.5494140000000  0.5885620000000 1.0
C      1  0.5007940000000  0.4286090000000  0.4820800000000 1.0
C      1  0.5446600000000  0.4982510000000  0.5889550000000 1.0
C      1  0.4798440000000  0.4515700000000  0.5806220000000 1.0
C      1  0.5961440000000  0.5143870000000  0.5587500000000 1.0
C      1  0.4594790000000  0.5629710000000  0.4254220000000 1.0
C      1  0.4069710000000  0.4667070000000  0.4767700000000 1.0
C      1  0.4982000000000  0.4866640000000  0.4188690000000 1.0
C      1  0.5379600000000  0.4103520000000  0.4490780000000 1.0
C      1  0.5758520000000  0.4392150000000  0.5122100000000 1.0
C      1  0.5418070000000  0.5569440000000  0.5640390000000 1.0
C      1  0.5483740000000  0.4925790000000  0.4394820000000 1.0
C      1  0.6108510000000  0.4995450000000  0.4853310000000 1.0
C      1  0.4032700000000  0.5108420000000  0.5003830000000 1.0
C      1  0.5975560000000  0.5446910000000  0.5056260000000 1.0
C      1  0.4917770000000  0.5748880000000  0.5686010000000 1.0
C      1  0.5540320000000  0.5507460000000  0.4354430000000 1.0
C      1  0.4792150000000  0.4324650000000  0.4398050000000 1.0
C      1  0.5056490000000  0.5078860000000  0.5934120000000 1.0
C      1  0.4806900000000  0.5240500000000  0.4785880000000 1.0
C      1  0.4729480000000  0.4388700000000  0.4927420000000 1.0
C      1  0.4670110000000  0.5911100000000  0.5308010000000 1.0
C      1  0.4947050000000  0.4442480000000  0.4134400000000 1.0
C      1  0.5005620000000  0.4258440000000  0.5772300000000 1.0
C      1  0.3923470000000  0.5076520000000  0.5325540000000 1.0
C      1  0.5436250000000  0.4188570000000  0.5513500000000 1.0
C      1  0.4989650000000  0.4772580000000  0.5156420000000 1.0
C      1  0.4849000000000  0.5811020000000  0.4733190000000 1.0
C      1  0.5681760000000  0.4255970000000  0.5398070000000 1.0
C      1  0.5385900000000  0.4627760000000  0.4694700000000 1.0
C      1  0.5791010000000  0.5377980000000  0.5577040000000 1.0
C      1  0.5445040000000  0.4996050000000  0.5476400000000 1.0
C      1  0.4862140000000  0.5050290000000  0.5239570000000 1.0
C      1  0.5198880000000  0.4653860000000  0.4087570000000 1.0
C      1  0.4450130000000  0.5384560000000  0.4574240000000 1.0
C      1  0.5083530000000  0.6046120000000  0.4650730000000 1.0
C      1  0.5620760000000  0.4720200000000  0.5951860000000 1.0
C      1  0.5302540000000  0.4668080000000  0.5907140000000 1.0
C      1  0.4907350000000  0.4734710000000  0.4844680000000 1.0
C      1  0.5354850000000  0.5952800000000  0.4703620000000 1.0
C      1  0.5072580000000  0.5328970000000  0.4915890000000 1.0
C      1  0.4903570000000  0.3906750000000  0.4871950000000 1.0
C      1  0.5992510000000  0.4955170000000  0.5322330000000 1.0
C      1  0.4147200000000  0.5023760000000  0.4426620000000 1.0
C      1  0.5689080000000  0.4993500000000  0.3726310000000 1.0
C      1  0.4136540000000  0.5512070000000  0.4676340000000 1.0
C      1  0.4159200000000  0.5346690000000  0.4398870000000 1.0
C      1  0.4018820000000  0.4961370000000  0.5527150000000 1.0
C      1  0.4235200000000  0.4746560000000  0.5677730000000 1.0
C      1  0.4783930000000  0.4538940000000  0.5209170000000 1.0
C      1  0.5294000000000  0.4746440000000  0.5163610000000 1.0
C      1  0.5890340000000  0.4954490000000  0.4652140000000 1.0
C      1  0.4477020000000  0.4186300000000  0.4937880000000 1.0
C      1  0.4459360000000  0.5105870000000  0.5212070000000 1.0
C      1  0.4261680000000  0.4521540000000  0.5474990000000 1.0
C      1  0.4298420000000  0.5794470000000  0.4692170000000 1.0
C      1  0.5316400000000  0.5848470000000  0.5474110000000 1.0
C      1  0.4660420000000  0.4004920000000  0.5453550000000 1.0
C      1  0.5590040000000  0.4992560000000  0.3969440000000 1.0
C      1  0.4993670000000  0.5315050000000  0.5415360000000 1.0
C      1  0.4532900000000  0.5767060000000  0.4493660000000 1.0
C      1  0.4072230000000  0.4600090000000  0.5235860000000 1.0
C      1  0.5045150000000  0.4791650000000  0.4573280000000 1.0
C      1  0.4983930000000  0.4118040000000  0.4545550000000 1.0
C      1  0.4363620000000  0.5257240000000  0.5792230000000 1.0
C      1  0.5667990000000  0.5202670000000  0.5065100000000 1.0
C      1  0.4231030000000  0.5573830000000  0.5311980000000 1.0
C      1  0.4501690000000  0.4679890000000  0.5841860000000 1.0
C      1  0.5386680000000  0.5481720000000  0.5105590000000 1.0
C      1  0.4497210000000  0.5390450000000  0.5383010000000 1.0
C      1  0.4518360000000  0.4825790000000  0.4760210000000 1.0
C      1  0.5228250000000  0.5330800000000  0.4147290000000 1.0
C      1  0.5812550000000  0.5516610000000  0.4497310000000 1.0
C      1  0.5781050000000  0.4665510000000  0.5730500000000 1.0
C      1  0.4334690000000  0.4672350000000  0.4946140000000 1.0
C      1  0.5000880000000  0.5464810000000  0.5847310000000 1.0
C      1  0.5303720000000  0.4425250000000  0.5221310000000 1.0
C      1  0.5686100000000  0.5830580000000  0.4904850000000 1.0
C      1  0.5285420000000  0.4558510000000  0.5514460000000 1.0
C      1  0.5596980000000  0.4623140000000  0.4424470000000 1.0
C      1  0.4679530000000  0.4976560000000  0.4082810000000 1.0
C      1  0.4702920000000  0.5623950000000  0.5889090000000 1.0
C      1  0.4480910000000  0.4552790000000  0.4301480000000 1.0
C      1  0.5326470000000  0.5481040000000  0.4610180000000 1.0
C      1  0.5327670000000  0.5674080000000  0.4830210000000 1.0
C      1  0.5823140000000  0.4501560000000  0.5498390000000 1.0
C      1  0.4638990000000  0.4991770000000  0.5472360000000 1.0
C      1  0.4919630000000  0.5892450000000  0.5456080000000 1.0
C      1  0.4883130000000  0.5466860000000  0.5126880000000 1.0
C      1  0.4451680000000  0.4275260000000  0.5473820000000 1.0
C      1  0.4759620000000  0.4836450000000  0.4447600000000 1.0
C      1  0.4938540000000  0.6058980000000  0.4950090000000 1.0
C      1  0.5177590000000  0.4263790000000  0.4324260000000 1.0
C      1  0.4575510000000  0.5081610000000  0.4482900000000 1.0
C      1  0.4733910000000  0.4985770000000  0.4937270000000 1.0
C      1  0.5406260000000  0.5880480000000  0.5090200000000 1.0
C      1  0.5550550000000  0.5234100000000  0.4151500000000 1.0
C      1  0.4401650000000  0.5431830000000  0.4179810000000 1.0
C      1  0.5782970000000  0.4631940000000  0.4680310000000 1.0
C      1  0.5893750000000  0.5310520000000  0.4747800000000 1.0
C      1  0.4455990000000  0.4064060000000  0.5207530000000 1.0
C      1  0.5843800000000  0.4684610000000  0.5233940000000 1.0
C      1  0.5608790000000  0.4873080000000  0.5130670000000 1.0
C      1  0.4398930000000  0.5097970000000  0.4202990000000 1.0
C      1  0.4335620000000  0.4762090000000  0.4487880000000 1.0
C      1  0.5434120000000  0.4147440000000  0.4784170000000 1.0
END
