TITL C-2778428-5639-1031 -0.0038327199420013 125000 -349.688304619189 0 0 61 (C1) n - 1
REM
REM in /home/nfs/bkarasulu/CARBON/AIRSS/Generating-Clusters/REBO/Only-C1/SD-CG/HFTN-CG
REM
REM
REM
REM
REM
REM ./C.cell (11c1c37f851c82e70ff6c80c92926a4b)
REM
REM compiler GCC version 9.2.1 20190827 (Red Hat 9.2.1-1)
REM options -cpp -mtune=generic -march=x86-64 -g -O0 -fpre-include=/usr/include/finclude/math-vector-fortran.h
REM seed -1898958316 1969795706 -123103857 127137417 1454154050 979322189 849431196 649911301 -129777982 -1930343688 1866132398 772132941 -1485178544 -74872976 -353399140 802109961 186391331 -253676546 -1139853891 -818983205 1832773894 2102597897 -368128774 1361970212 29196530 731884300 -1571569931 362914085 448324468 -2090819660 282468263 1323584098 -342578943
REM
CELL 1.54180   50.00000   50.00000   50.00000   90.00000   90.00000   90.00000
LATT -1
SFAC C  
C      1  0.5391070000000  0.4399980000000  0.4903290000000 1.0
C      1  0.5222700000000  0.5380160000000  0.5089230000000 1.0
C      1  0.5196880000000  0.5668060000000  0.4909000000000 1.0
C      1  0.4906300000000  0.4857940000000  0.5728850000000 1.0
C      1  0.4842690000000  0.5150870000000  0.4256100000000 1.0
C      1  0.5579100000000  0.4908920000000  0.5018230000000 1.0
C      1  0.5364430000000  0.5868900000000  0.5021640000000 1.0
C      1  0.5144400000000  0.4553330000000  0.4725920000000 1.0
C      1  0.5106510000000  0.5539730000000  0.4400040000000 1.0
C      1  0.5488390000000  0.4862840000000  0.5289990000000 1.0
C      1  0.4785600000000  0.5792840000000  0.4644950000000 1.0
C      1  0.5525820000000  0.4182560000000  0.4795800000000 1.0
C      1  0.5293350000000  0.4819430000000  0.4619220000000 1.0
C      1  0.5093270000000  0.5076020000000  0.4723720000000 1.0
C      1  0.5140090000000  0.5114570000000  0.5133860000000 1.0
C      1  0.4724160000000  0.5068010000000  0.5787760000000 1.0
C      1  0.5412910000000  0.4588910000000  0.5348570000000 1.0
C      1  0.4820160000000  0.5162690000000  0.4899880000000 1.0
C      1  0.4649940000000  0.4375070000000  0.5635610000000 1.0
C      1  0.5302960000000  0.4381800000000  0.5200050000000 1.0
C      1  0.4546120000000  0.5032750000000  0.4486890000000 1.0
C      1  0.4965600000000  0.4356170000000  0.5183110000000 1.0
C      1  0.4715900000000  0.4230690000000  0.5004920000000 1.0
C      1  0.4911410000000  0.5291840000000  0.5416690000000 1.0
C      1  0.4443940000000  0.4126400000000  0.6050800000000 1.0
C      1  0.5550740000000  0.5505080000000  0.4740500000000 1.0
C      1  0.5041360000000  0.4859240000000  0.5204870000000 1.0
C      1  0.4914100000000  0.4778960000000  0.5451710000000 1.0
C      1  0.4666360000000  0.4027020000000  0.4834370000000 1.0
C      1  0.5128550000000  0.5265180000000  0.4239180000000 1.0
C      1  0.5052280000000  0.4730860000000  0.5919670000000 1.0
C      1  0.4409900000000  0.4895860000000  0.4704860000000 1.0
C      1  0.4903230000000  0.4740370000000  0.4617770000000 1.0
C      1  0.5051650000000  0.4634310000000  0.5029040000000 1.0
C      1  0.4531860000000  0.4719960000000  0.4944950000000 1.0
C      1  0.4780460000000  0.4860530000000  0.4847040000000 1.0
C      1  0.5391120000000  0.4858170000000  0.4331430000000 1.0
C      1  0.5171330000000  0.5242200000000  0.5543770000000 1.0
C      1  0.4522900000000  0.5295050000000  0.4905450000000 1.0
C      1  0.4546580000000  0.4250300000000  0.5843930000000 1.0
C      1  0.4676940000000  0.5252640000000  0.5580370000000 1.0
C      1  0.4754760000000  0.5628280000000  0.5098460000000 1.0
C      1  0.5283980000000  0.5203450000000  0.4517910000000 1.0
C      1  0.4599700000000  0.4497060000000  0.5112580000000 1.0
C      1  0.4828670000000  0.5362410000000  0.5152610000000 1.0
C      1  0.4439000000000  0.5302190000000  0.5432420000000 1.0
C      1  0.4903420000000  0.5757460000000  0.4899100000000 1.0
C      1  0.5548460000000  0.5148370000000  0.4568780000000 1.0
C      1  0.5633570000000  0.5171840000000  0.4871190000000 1.0
C      1  0.4768090000000  0.4517680000000  0.5397500000000 1.0
C      1  0.5210060000000  0.5360010000000  0.5788820000000 1.0
C      1  0.4632630000000  0.5356630000000  0.4407590000000 1.0
C      1  0.4800010000000  0.4874470000000  0.4386610000000 1.0
C      1  0.5337640000000  0.5034100000000  0.4160080000000 1.0
C      1  0.5511420000000  0.5418670000000  0.5032300000000 1.0
C      1  0.5377820000000  0.5068890000000  0.5451060000000 1.0
C      1  0.4432550000000  0.5373360000000  0.4660880000000 1.0
C      1  0.5491510000000  0.4706850000000  0.4840900000000 1.0
C      1  0.4407750000000  0.5316670000000  0.5160830000000 1.0
C      1  0.5293660000000  0.5593010000000  0.4605250000000 1.0
C      1  0.4832250000000  0.5602360000000  0.4442130000000 1.0
END
