TITL C-2778425-5191-25 0.0028217262487936 125000 -706.128371051494 0 0 123 (C1) n - 1
REM
REM in /home/nfs/bkarasulu/CARBON/AIRSS/Generating-Clusters/REBO/Only-C1/SD-CG/HFTN-CG
REM
REM
REM
REM
REM
REM ./C.cell (11c1c37f851c82e70ff6c80c92926a4b)
REM
REM compiler GCC version 9.2.1 20190827 (Red Hat 9.2.1-1)
REM options -cpp -mtune=generic -march=x86-64 -g -O0 -fpre-include=/usr/include/finclude/math-vector-fortran.h
REM seed 1680674957 -1187491630 1200619208 1511503958 -1643541073 -1720280302 -1847256779 1503017519 -1015091738 839723604 -765106709 -971350370 -1053736457 -713678320 -1680117617 -882601521 -1871182984 2050314601 1206912968 44715916 115394732 -535954449 1303547672 234642884 -1778959840 1891989071 1155374772 -1146126056 -990473618 218128762 -1585240376 2079616245 684073072
REM
CELL 1.54180   50.00000   50.00000   50.00000   90.00000   90.00000   90.00000
LATT -1
SFAC C  
C      1  0.4984000000000  0.4204630000000  0.4724620000000 1.0
C      1  0.5141880000000  0.4021050000000  0.4537240000000 1.0
C      1  0.5091910000000  0.4597660000000  0.5187280000000 1.0
C      1  0.4623470000000  0.5297210000000  0.5116370000000 1.0
C      1  0.5000330000000  0.4830480000000  0.5971410000000 1.0
C      1  0.4374240000000  0.4537980000000  0.5330580000000 1.0
C      1  0.5029670000000  0.5320860000000  0.5850200000000 1.0
C      1  0.5391220000000  0.4135200000000  0.5287080000000 1.0
C      1  0.4565370000000  0.4874830000000  0.5179750000000 1.0
C      1  0.3948640000000  0.5226850000000  0.4541700000000 1.0
C      1  0.5306210000000  0.4977550000000  0.5923660000000 1.0
C      1  0.5917190000000  0.5005050000000  0.5126370000000 1.0
C      1  0.5844560000000  0.5393470000000  0.5367670000000 1.0
C      1  0.4602030000000  0.4350990000000  0.5502680000000 1.0
C      1  0.4794070000000  0.4434920000000  0.5771820000000 1.0
C      1  0.4056350000000  0.5391770000000  0.5247940000000 1.0
C      1  0.4359990000000  0.5132220000000  0.5261790000000 1.0
C      1  0.4915340000000  0.4217200000000  0.5474060000000 1.0
C      1  0.5637320000000  0.5448960000000  0.5612140000000 1.0
C      1  0.4940460000000  0.4084190000000  0.5028020000000 1.0
C      1  0.5157890000000  0.4405000000000  0.4937270000000 1.0
C      1  0.4870980000000  0.5068200000000  0.5794320000000 1.0
C      1  0.4626300000000  0.4535900000000  0.4401130000000 1.0
C      1  0.5631030000000  0.4296780000000  0.5281100000000 1.0
C      1  0.4947620000000  0.4605740000000  0.5559840000000 1.0
C      1  0.4937890000000  0.5757350000000  0.4361430000000 1.0
C      1  0.4379060000000  0.4864460000000  0.4346220000000 1.0
C      1  0.5153200000000  0.4815110000000  0.5666870000000 1.0
C      1  0.5411400000000  0.5560130000000  0.5135590000000 1.0
C      1  0.5081570000000  0.5382010000000  0.5430700000000 1.0
C      1  0.4734770000000  0.4699860000000  0.5359220000000 1.0
C      1  0.4712690000000  0.5231270000000  0.5413350000000 1.0
C      1  0.5698110000000  0.4432460000000  0.5036020000000 1.0
C      1  0.4268000000000  0.5571110000000  0.5102790000000 1.0
C      1  0.5178740000000  0.4132300000000  0.5487280000000 1.0
C      1  0.5597090000000  0.4401230000000  0.4728150000000 1.0
C      1  0.5220310000000  0.5093750000000  0.5498710000000 1.0
C      1  0.5062990000000  0.4903800000000  0.5266710000000 1.0
C      1  0.5465050000000  0.4502560000000  0.4245660000000 1.0
C      1  0.5695720000000  0.4864440000000  0.4524940000000 1.0
C      1  0.4588680000000  0.5283040000000  0.4131560000000 1.0
C      1  0.5229390000000  0.5843990000000  0.4524310000000 1.0
C      1  0.4334790000000  0.4894740000000  0.5503890000000 1.0
C      1  0.5366270000000  0.4610560000000  0.4819760000000 1.0
C      1  0.4712050000000  0.5771410000000  0.5435720000000 1.0
C      1  0.5551980000000  0.5366460000000  0.4269380000000 1.0
C      1  0.5270470000000  0.4100720000000  0.5010710000000 1.0
C      1  0.4249650000000  0.5455290000000  0.5484530000000 1.0
C      1  0.4682770000000  0.4733050000000  0.5892990000000 1.0
C      1  0.4796980000000  0.5495180000000  0.5578520000000 1.0
C      1  0.4633440000000  0.4059310000000  0.5083860000000 1.0
C      1  0.4371930000000  0.4947650000000  0.4911830000000 1.0
C      1  0.5038110000000  0.5239560000000  0.4599400000000 1.0
C      1  0.5270040000000  0.4395400000000  0.4498010000000 1.0
C      1  0.4370090000000  0.5674380000000  0.4866120000000 1.0
C      1  0.4399670000000  0.4583780000000  0.4650900000000 1.0
C      1  0.4470560000000  0.4629670000000  0.5648020000000 1.0
C      1  0.5588440000000  0.4701180000000  0.5524810000000 1.0
C      1  0.4320870000000  0.5602110000000  0.4578880000000 1.0
C      1  0.4948600000000  0.4794360000000  0.4391730000000 1.0
C      1  0.5824470000000  0.5118440000000  0.4681320000000 1.0
C      1  0.5153370000000  0.4407580000000  0.4182500000000 1.0
C      1  0.4138730000000  0.4773340000000  0.4550190000000 1.0
C      1  0.4837920000000  0.4982390000000  0.5488500000000 1.0
C      1  0.5597690000000  0.5567740000000  0.4523090000000 1.0
C      1  0.4611100000000  0.5706430000000  0.4551540000000 1.0
C      1  0.5128560000000  0.5656730000000  0.5096930000000 1.0
C      1  0.5890560000000  0.5107790000000  0.5383070000000 1.0
C      1  0.5199320000000  0.5551500000000  0.4790620000000 1.0
C      1  0.4668440000000  0.4914150000000  0.4516070000000 1.0
C      1  0.4448670000000  0.5107240000000  0.4654640000000 1.0
C      1  0.4834900000000  0.5806610000000  0.5126440000000 1.0
C      1  0.5331790000000  0.5247110000000  0.4713660000000 1.0
C      1  0.4688900000000  0.5772760000000  0.4880310000000 1.0
C      1  0.5490900000000  0.5280390000000  0.5155930000000 1.0
C      1  0.5038870000000  0.5437560000000  0.4356790000000 1.0
C      1  0.5828670000000  0.5502760000000  0.5067160000000 1.0
C      1  0.5790650000000  0.4756140000000  0.5030700000000 1.0
C      1  0.4633960000000  0.4770640000000  0.4146250000000 1.0
C      1  0.5537620000000  0.5195870000000  0.5824040000000 1.0
C      1  0.4127440000000  0.4744560000000  0.4887690000000 1.0
C      1  0.4365700000000  0.5182120000000  0.4273820000000 1.0
C      1  0.5380370000000  0.4161120000000  0.4708060000000 1.0
C      1  0.4855800000000  0.4371700000000  0.5195880000000 1.0
C      1  0.4745260000000  0.4389750000000  0.4677090000000 1.0
C      1  0.4888810000000  0.4552150000000  0.4181530000000 1.0
C      1  0.5109770000000  0.4645270000000  0.4623690000000 1.0
C      1  0.4868800000000  0.5218930000000  0.4893600000000 1.0
C      1  0.4614710000000  0.4350980000000  0.4958210000000 1.0
C      1  0.5467890000000  0.4805110000000  0.5018170000000 1.0
C      1  0.5289200000000  0.5627120000000  0.5534010000000 1.0
C      1  0.5503240000000  0.5191360000000  0.5430840000000 1.0
C      1  0.4038500000000  0.5098860000000  0.5181500000000 1.0
C      1  0.5090210000000  0.5046260000000  0.4323920000000 1.0
C      1  0.5362900000000  0.5085730000000  0.4969030000000 1.0
C      1  0.5278890000000  0.5412000000000  0.5776930000000 1.0
C      1  0.4240710000000  0.5324870000000  0.4521130000000 1.0
C      1  0.3903450000000  0.4978510000000  0.4521380000000 1.0
C      1  0.5925320000000  0.4645910000000  0.4787890000000 1.0
C      1  0.5690330000000  0.4979440000000  0.5603890000000 1.0
C      1  0.5904260000000  0.5208480000000  0.4928700000000 1.0
C      1  0.5387460000000  0.4708050000000  0.5316170000000 1.0
C      1  0.5574520000000  0.5700860000000  0.5389800000000 1.0
C      1  0.5548310000000  0.5171150000000  0.4516540000000 1.0
C      1  0.4746020000000  0.5502190000000  0.4230710000000 1.0
C      1  0.4711240000000  0.4947170000000  0.4909830000000 1.0
C      1  0.4740160000000  0.5059150000000  0.4025930000000 1.0
C      1  0.5632080000000  0.5782080000000  0.5059260000000 1.0
C      1  0.5314340000000  0.5589660000000  0.4330650000000 1.0
C      1  0.4504020000000  0.5331530000000  0.5645240000000 1.0
C      1  0.4511760000000  0.5559230000000  0.5307610000000 1.0
C      1  0.4922410000000  0.5642620000000  0.4678650000000 1.0
C      1  0.5091950000000  0.5205910000000  0.5137790000000 1.0
C      1  0.5732150000000  0.5555990000000  0.4748010000000 1.0
C      1  0.5044340000000  0.5778050000000  0.5395440000000 1.0
C      1  0.5629400000000  0.4600680000000  0.4479790000000 1.0
C      1  0.4167760000000  0.4786310000000  0.5223630000000 1.0
C      1  0.5020100000000  0.5106690000000  0.4064600000000 1.0
C      1  0.4373130000000  0.4534990000000  0.4990190000000 1.0
C      1  0.5703090000000  0.4442620000000  0.5519680000000 1.0
C      1  0.4537470000000  0.5009010000000  0.5750150000000 1.0
C      1  0.5424450000000  0.5809540000000  0.4790440000000 1.0
C      1  0.4807750000000  0.4704750000000  0.4748610000000 1.0
END
