TITL C-2778437-8639-844 -0.0015466519825102 125000 -884.125029021126 0 0 152 (C1) n - 1
REM
REM in /home/nfs/bkarasulu/CARBON/AIRSS/Generating-Clusters/REBO/Only-C1/SD-CG/HFTN-CG
REM
REM
REM
REM
REM
REM ./C.cell (11c1c37f851c82e70ff6c80c92926a4b)
REM
REM compiler GCC version 9.2.1 20190827 (Red Hat 9.2.1-1)
REM options -cpp -mtune=generic -march=x86-64 -g -O0 -fpre-include=/usr/include/finclude/math-vector-fortran.h
REM seed 1455131702 1102665954 -1781890315 -1816261926 1251836834 -1137929490 1904520695 -1388815430 1588115284 592913806 -1104339414 2071718933 -913958606 -243019539 -657342067 150915908 1500521770 95280902 1952287984 -921673992 -1095572616 193512832 562688736 -693584253 192001326 -249010764 1418432260 1680863075 573667577 -2122205208 -1478772117 1551597195 303163560
REM
CELL 1.54180   50.00000   50.00000   50.00000   90.00000   90.00000   90.00000
LATT -1
SFAC C  
C      1  0.5134040000000  0.5994410000000  0.5025300000000 1.0
C      1  0.4045490000000  0.4770820000000  0.4987060000000 1.0
C      1  0.5304100000000  0.5834310000000  0.5250250000000 1.0
C      1  0.5463780000000  0.4769300000000  0.5152450000000 1.0
C      1  0.5835840000000  0.5116070000000  0.5168570000000 1.0
C      1  0.4887640000000  0.5266800000000  0.6137240000000 1.0
C      1  0.5141160000000  0.4500920000000  0.5581370000000 1.0
C      1  0.4869680000000  0.5687840000000  0.4373810000000 1.0
C      1  0.4177080000000  0.5600040000000  0.4641080000000 1.0
C      1  0.4225610000000  0.4815820000000  0.4634660000000 1.0
C      1  0.5211020000000  0.5741250000000  0.4372480000000 1.0
C      1  0.5423350000000  0.5071230000000  0.5845430000000 1.0
C      1  0.4501530000000  0.4617940000000  0.5179460000000 1.0
C      1  0.5205320000000  0.4457660000000  0.4180270000000 1.0
C      1  0.4414870000000  0.4604240000000  0.4339310000000 1.0
C      1  0.4942780000000  0.4946210000000  0.6168070000000 1.0
C      1  0.4217490000000  0.5148870000000  0.5155280000000 1.0
C      1  0.4361790000000  0.5616370000000  0.5040580000000 1.0
C      1  0.4217260000000  0.5174570000000  0.5741690000000 1.0
C      1  0.5130210000000  0.4102770000000  0.5594810000000 1.0
C      1  0.4945980000000  0.4969100000000  0.5709260000000 1.0
C      1  0.5767410000000  0.4624380000000  0.5199290000000 1.0
C      1  0.5902310000000  0.4439450000000  0.4479650000000 1.0
C      1  0.5624390000000  0.4139850000000  0.5431140000000 1.0
C      1  0.5433620000000  0.4285040000000  0.5115570000000 1.0
C      1  0.4871060000000  0.4823430000000  0.4219710000000 1.0
C      1  0.5611990000000  0.4875520000000  0.4691400000000 1.0
C      1  0.5801930000000  0.5144040000000  0.4766610000000 1.0
C      1  0.5161670000000  0.5644470000000  0.4685400000000 1.0
C      1  0.4839200000000  0.4693860000000  0.5975540000000 1.0
C      1  0.4888930000000  0.5156320000000  0.4248260000000 1.0
C      1  0.5004160000000  0.4518660000000  0.5296790000000 1.0
C      1  0.5357520000000  0.5131190000000  0.4246360000000 1.0
C      1  0.4364540000000  0.5307900000000  0.4945100000000 1.0
C      1  0.5257670000000  0.4535400000000  0.5084640000000 1.0
C      1  0.4773060000000  0.5270430000000  0.5308840000000 1.0
C      1  0.4639930000000  0.4360080000000  0.4355940000000 1.0
C      1  0.5585970000000  0.5668430000000  0.5355790000000 1.0
C      1  0.5099700000000  0.4529550000000  0.5911180000000 1.0
C      1  0.5317070000000  0.4048320000000  0.5313210000000 1.0
C      1  0.5022070000000  0.5426880000000  0.4217320000000 1.0
C      1  0.4757060000000  0.4188710000000  0.4627240000000 1.0
C      1  0.5574490000000  0.5349110000000  0.4352020000000 1.0
C      1  0.4391160000000  0.4538240000000  0.4672640000000 1.0
C      1  0.4945060000000  0.4799170000000  0.4845450000000 1.0
C      1  0.4567300000000  0.5665120000000  0.5509400000000 1.0
C      1  0.5688710000000  0.4758730000000  0.5482340000000 1.0
C      1  0.4432240000000  0.5783190000000  0.4769510000000 1.0
C      1  0.4215490000000  0.4526880000000  0.5442280000000 1.0
C      1  0.4875840000000  0.4702390000000  0.4523540000000 1.0
C      1  0.5701310000000  0.4365340000000  0.5041070000000 1.0
C      1  0.5184690000000  0.5462510000000  0.3931850000000 1.0
C      1  0.4976820000000  0.4408960000000  0.4384550000000 1.0
C      1  0.4011200000000  0.5024130000000  0.4794360000000 1.0
C      1  0.4626000000000  0.5354600000000  0.6122850000000 1.0
C      1  0.4804530000000  0.5783060000000  0.5403760000000 1.0
C      1  0.4987120000000  0.5194180000000  0.5859880000000 1.0
C      1  0.5217250000000  0.6034460000000  0.4745900000000 1.0
C      1  0.5954680000000  0.5384420000000  0.5102400000000 1.0
C      1  0.4591170000000  0.5252570000000  0.4146880000000 1.0
C      1  0.5424270000000  0.5920740000000  0.4568150000000 1.0
C      1  0.5093940000000  0.3953310000000  0.5081190000000 1.0
C      1  0.5270460000000  0.4671280000000  0.4511540000000 1.0
C      1  0.5576650000000  0.5223110000000  0.5647280000000 1.0
C      1  0.5466650000000  0.4958700000000  0.4042710000000 1.0
C      1  0.5777280000000  0.5830840000000  0.4922190000000 1.0
C      1  0.4672040000000  0.5386580000000  0.5613510000000 1.0
C      1  0.5266520000000  0.5497540000000  0.4872220000000 1.0
C      1  0.3912500000000  0.5185330000000  0.5289200000000 1.0
C      1  0.4674420000000  0.4900330000000  0.4932730000000 1.0
C      1  0.4686530000000  0.5956820000000  0.4797390000000 1.0
C      1  0.5788930000000  0.5607670000000  0.5117080000000 1.0
C      1  0.5915120000000  0.4869220000000  0.4946430000000 1.0
C      1  0.5262510000000  0.5598950000000  0.5697260000000 1.0
C      1  0.4766140000000  0.3922110000000  0.5018450000000 1.0
C      1  0.6210240000000  0.5393970000000  0.4996450000000 1.0
C      1  0.4292810000000  0.4833100000000  0.5185340000000 1.0
C      1  0.4705440000000  0.4745590000000  0.5667070000000 1.0
C      1  0.5203700000000  0.4804010000000  0.5646060000000 1.0
C      1  0.5132250000000  0.4538750000000  0.4781650000000 1.0
C      1  0.4672520000000  0.4153260000000  0.5361520000000 1.0
C      1  0.4197240000000  0.4856650000000  0.5503340000000 1.0
C      1  0.4347950000000  0.5603540000000  0.5336880000000 1.0
C      1  0.6001310000000  0.4905210000000  0.4615560000000 1.0
C      1  0.4376550000000  0.4889970000000  0.5839130000000 1.0
C      1  0.4851890000000  0.4227410000000  0.5711600000000 1.0
C      1  0.4540180000000  0.5671580000000  0.4466520000000 1.0
C      1  0.3956710000000  0.5069180000000  0.5550350000000 1.0
C      1  0.4262520000000  0.5212540000000  0.4656370000000 1.0
C      1  0.5258000000000  0.5099690000000  0.5240870000000 1.0
C      1  0.5639370000000  0.5492360000000  0.4609180000000 1.0
C      1  0.4887510000000  0.4421990000000  0.4991830000000 1.0
C      1  0.5649160000000  0.5770810000000  0.4669580000000 1.0
C      1  0.5924230000000  0.4706680000000  0.4408720000000 1.0
C      1  0.5682580000000  0.4452250000000  0.5550070000000 1.0
C      1  0.5512110000000  0.4074700000000  0.4785840000000 1.0
C      1  0.4987120000000  0.5460430000000  0.5586640000000 1.0
C      1  0.5160730000000  0.5564290000000  0.5140150000000 1.0
C      1  0.4413370000000  0.4589040000000  0.5704050000000 1.0
C      1  0.5520240000000  0.5319000000000  0.4845890000000 1.0
C      1  0.4937940000000  0.5896350000000  0.4619880000000 1.0
C      1  0.4524050000000  0.4914780000000  0.4693550000000 1.0
C      1  0.5535950000000  0.5088740000000  0.5059110000000 1.0
C      1  0.4922870000000  0.4056460000000  0.5357180000000 1.0
C      1  0.4568680000000  0.4794850000000  0.4128840000000 1.0
C      1  0.5687180000000  0.4789140000000  0.4199420000000 1.0
C      1  0.5387890000000  0.4304800000000  0.5608990000000 1.0
C      1  0.5581890000000  0.6004990000000  0.5303430000000 1.0
C      1  0.4410700000000  0.4382590000000  0.4956370000000 1.0
C      1  0.4464770000000  0.5062540000000  0.5455660000000 1.0
C      1  0.4681220000000  0.5381090000000  0.4999630000000 1.0
C      1  0.4760200000000  0.4697520000000  0.5362250000000 1.0
C      1  0.4846640000000  0.5622090000000  0.5133750000000 1.0
C      1  0.4654150000000  0.4178620000000  0.4934740000000 1.0
C      1  0.5353930000000  0.5523200000000  0.4197530000000 1.0
C      1  0.5747160000000  0.5070380000000  0.5472050000000 1.0
C      1  0.5506530000000  0.5496860000000  0.5591920000000 1.0
C      1  0.4469670000000  0.5034990000000  0.4032920000000 1.0
C      1  0.5323270000000  0.4900560000000  0.4739060000000 1.0
C      1  0.5190670000000  0.4999470000000  0.4454860000000 1.0
C      1  0.5741740000000  0.4607030000000  0.4803810000000 1.0
C      1  0.4656080000000  0.5038060000000  0.4473920000000 1.0
C      1  0.4230790000000  0.4891410000000  0.4317530000000 1.0
C      1  0.5264150000000  0.4833960000000  0.3890370000000 1.0
C      1  0.4647270000000  0.4357860000000  0.5741920000000 1.0
C      1  0.5207630000000  0.4847950000000  0.5985530000000 1.0
C      1  0.4858850000000  0.5917070000000  0.5033030000000 1.0
C      1  0.4517430000000  0.5258080000000  0.5836600000000 1.0
C      1  0.4704790000000  0.4509010000000  0.4718120000000 1.0
C      1  0.5067380000000  0.5810950000000  0.5548700000000 1.0
C      1  0.3998620000000  0.5367340000000  0.4795850000000 1.0
C      1  0.5079950000000  0.4691070000000  0.4033600000000 1.0
C      1  0.4252990000000  0.5326890000000  0.5437800000000 1.0
C      1  0.5237970000000  0.4025730000000  0.4818180000000 1.0
C      1  0.5352600000000  0.4287840000000  0.4441830000000 1.0
C      1  0.5632940000000  0.4332700000000  0.4631270000000 1.0
C      1  0.4251040000000  0.5186940000000  0.4342650000000 1.0
C      1  0.5154240000000  0.5012050000000  0.4970900000000 1.0
C      1  0.5081510000000  0.4161400000000  0.4593670000000 1.0
C      1  0.4808570000000  0.5309140000000  0.4724010000000 1.0
C      1  0.4134700000000  0.4474300000000  0.5122060000000 1.0
C      1  0.5724730000000  0.6070620000000  0.5074360000000 1.0
C      1  0.5708410000000  0.5042180000000  0.4411490000000 1.0
C      1  0.4637220000000  0.5376190000000  0.4462000000000 1.0
C      1  0.4673730000000  0.4974140000000  0.5227550000000 1.0
C      1  0.5023200000000  0.5158140000000  0.4692870000000 1.0
C      1  0.5499120000000  0.4563430000000  0.4302970000000 1.0
C      1  0.5092850000000  0.5325390000000  0.5320810000000 1.0
C      1  0.4474850000000  0.4327580000000  0.5346920000000 1.0
C      1  0.5386930000000  0.4902000000000  0.5452680000000 1.0
C      1  0.4267390000000  0.5489160000000  0.4367920000000 1.0
C      1  0.4652960000000  0.4980360000000  0.5985830000000 1.0
END
