TITL C-2778433-5640-847 0.000214068883121677 125000 -605.146068899128 0 0 107 (C1) n - 1
REM
REM in /home/nfs/bkarasulu/CARBON/AIRSS/Generating-Clusters/REBO/Only-C1/SD-CG/HFTN-CG
REM
REM
REM
REM
REM
REM ./C.cell (11c1c37f851c82e70ff6c80c92926a4b)
REM
REM compiler GCC version 9.2.1 20190827 (Red Hat 9.2.1-1)
REM options -cpp -mtune=generic -march=x86-64 -g -O0 -fpre-include=/usr/include/finclude/math-vector-fortran.h
REM seed -1879871686 1639598432 -1405843951 1204105558 1805235678 -1955062325 -1558059788 26977194 -502822168 1038848118 907448296 -540424754 1831871995 -2134656464 514131104 1696718440 -167602983 2031112693 -1880776108 -750321392 -181009130 725674674 -948181622 606276934 -1757052604 -161688730 1021277185 1542947294 -1145953635 1023080135 1930873636 -208362331 -1860512751
REM
CELL 1.54180   50.00000   50.00000   50.00000   90.00000   90.00000   90.00000
LATT -1
SFAC C  
C      1  0.5565510000000  0.5240420000000  0.5720480000000 1.0
C      1  0.5373310000000  0.5329320000000  0.4880730000000 1.0
C      1  0.5590360000000  0.5514320000000  0.5520000000000 1.0
C      1  0.5036290000000  0.5618360000000  0.5507920000000 1.0
C      1  0.5369480000000  0.5239870000000  0.4366810000000 1.0
C      1  0.4819710000000  0.5076330000000  0.5429180000000 1.0
C      1  0.5192790000000  0.4976260000000  0.5122060000000 1.0
C      1  0.5644680000000  0.5273460000000  0.4409750000000 1.0
C      1  0.4377960000000  0.4739090000000  0.4985650000000 1.0
C      1  0.4630890000000  0.4609340000000  0.4576440000000 1.0
C      1  0.4953790000000  0.4593430000000  0.5014690000000 1.0
C      1  0.4795100000000  0.4855840000000  0.4002820000000 1.0
C      1  0.5867880000000  0.4961890000000  0.4737740000000 1.0
C      1  0.4748680000000  0.5477130000000  0.5374310000000 1.0
C      1  0.4820200000000  0.5864610000000  0.5422770000000 1.0
C      1  0.5136530000000  0.5542850000000  0.4483850000000 1.0
C      1  0.4348110000000  0.4586000000000  0.4388510000000 1.0
C      1  0.4687300000000  0.5650100000000  0.4183810000000 1.0
C      1  0.4907360000000  0.4612990000000  0.3868070000000 1.0
C      1  0.4404660000000  0.5638390000000  0.5028350000000 1.0
C      1  0.5126840000000  0.4827950000000  0.5369100000000 1.0
C      1  0.5138070000000  0.5301650000000  0.5086920000000 1.0
C      1  0.5682340000000  0.5548160000000  0.5187760000000 1.0
C      1  0.4732010000000  0.4265270000000  0.5280520000000 1.0
C      1  0.5004700000000  0.3925230000000  0.4739660000000 1.0
C      1  0.5047400000000  0.4839610000000  0.5673800000000 1.0
C      1  0.4270860000000  0.5328670000000  0.5083170000000 1.0
C      1  0.5288920000000  0.5525550000000  0.5680240000000 1.0
C      1  0.5749410000000  0.5459120000000  0.4864320000000 1.0
C      1  0.5567260000000  0.5127890000000  0.5408880000000 1.0
C      1  0.5036780000000  0.5229950000000  0.5598220000000 1.0
C      1  0.5480130000000  0.4410490000000  0.5620040000000 1.0
C      1  0.4512090000000  0.5697350000000  0.4705070000000 1.0
C      1  0.5172370000000  0.5224070000000  0.4137880000000 1.0
C      1  0.4756990000000  0.4833270000000  0.5763780000000 1.0
C      1  0.5474110000000  0.5635710000000  0.4840000000000 1.0
C      1  0.5788300000000  0.5255750000000  0.4656250000000 1.0
C      1  0.5689110000000  0.4685750000000  0.4741750000000 1.0
C      1  0.4586910000000  0.5018150000000  0.5884640000000 1.0
C      1  0.5345210000000  0.4863510000000  0.4840380000000 1.0
C      1  0.4634230000000  0.4590930000000  0.5253560000000 1.0
C      1  0.4332690000000  0.4544370000000  0.4726530000000 1.0
C      1  0.4982330000000  0.5087640000000  0.4713190000000 1.0
C      1  0.5118640000000  0.4463740000000  0.4793770000000 1.0
C      1  0.4256840000000  0.5063230000000  0.4530940000000 1.0
C      1  0.4611610000000  0.5579390000000  0.4419600000000 1.0
C      1  0.5416590000000  0.4233390000000  0.4615360000000 1.0
C      1  0.4842270000000  0.4906920000000  0.4944650000000 1.0
C      1  0.5557850000000  0.5096130000000  0.4945650000000 1.0
C      1  0.4346440000000  0.4642400000000  0.5523670000000 1.0
C      1  0.5201360000000  0.4596480000000  0.5834470000000 1.0
C      1  0.5273830000000  0.5261790000000  0.5385310000000 1.0
C      1  0.4556480000000  0.5023380000000  0.4441300000000 1.0
C      1  0.4577820000000  0.4783040000000  0.4220350000000 1.0
C      1  0.4746170000000  0.4841720000000  0.5248150000000 1.0
C      1  0.5247710000000  0.4915710000000  0.5923210000000 1.0
C      1  0.5159320000000  0.4336040000000  0.5617550000000 1.0
C      1  0.5165930000000  0.4135530000000  0.4814950000000 1.0
C      1  0.4177810000000  0.4730000000000  0.5246430000000 1.0
C      1  0.5540570000000  0.4469120000000  0.4525560000000 1.0
C      1  0.5218900000000  0.4746500000000  0.4211300000000 1.0
C      1  0.4194970000000  0.4461740000000  0.5028050000000 1.0
C      1  0.4161990000000  0.5044610000000  0.5124470000000 1.0
C      1  0.4559120000000  0.5312880000000  0.4608510000000 1.0
C      1  0.4640390000000  0.4449210000000  0.4275460000000 1.0
C      1  0.5778230000000  0.5252250000000  0.5238970000000 1.0
C      1  0.4251630000000  0.4963560000000  0.5561230000000 1.0
C      1  0.4832310000000  0.4856510000000  0.4550030000000 1.0
C      1  0.4384960000000  0.4392370000000  0.5290130000000 1.0
C      1  0.5440670000000  0.4369320000000  0.5138730000000 1.0
C      1  0.5361970000000  0.5566280000000  0.5283170000000 1.0
C      1  0.5099880000000  0.5703470000000  0.5187690000000 1.0
C      1  0.5410680000000  0.4550470000000  0.4891160000000 1.0
C      1  0.5054130000000  0.4170380000000  0.5337840000000 1.0
C      1  0.4771770000000  0.5284310000000  0.4833410000000 1.0
C      1  0.4552950000000  0.5393220000000  0.5628430000000 1.0
C      1  0.5607660000000  0.4615020000000  0.5675780000000 1.0
C      1  0.5054550000000  0.4970580000000  0.4107860000000 1.0
C      1  0.5221160000000  0.5776450000000  0.4659500000000 1.0
C      1  0.5272600000000  0.5220760000000  0.5835380000000 1.0
C      1  0.4687760000000  0.5225020000000  0.5157230000000 1.0
C      1  0.4063290000000  0.5102950000000  0.4338380000000 1.0
C      1  0.5027930000000  0.4598860000000  0.4529660000000 1.0
C      1  0.4751710000000  0.5783430000000  0.4894280000000 1.0
C      1  0.5029880000000  0.4565680000000  0.5296650000000 1.0
C      1  0.4305610000000  0.5440800000000  0.4770070000000 1.0
C      1  0.5206750000000  0.5263470000000  0.4635170000000 1.0
C      1  0.5603950000000  0.4556320000000  0.5268830000000 1.0
C      1  0.5082560000000  0.5494820000000  0.4219590000000 1.0
C      1  0.4411250000000  0.5156630000000  0.5703680000000 1.0
C      1  0.5905940000000  0.5118540000000  0.5011000000000 1.0
C      1  0.4631670000000  0.4605050000000  0.5656820000000 1.0
C      1  0.4957380000000  0.5940450000000  0.4765660000000 1.0
C      1  0.4816940000000  0.5401870000000  0.5759620000000 1.0
C      1  0.4844120000000  0.4427340000000  0.5548560000000 1.0
C      1  0.5334670000000  0.4721530000000  0.4530180000000 1.0
C      1  0.4638150000000  0.5743820000000  0.5209450000000 1.0
C      1  0.5241180000000  0.4172200000000  0.5122790000000 1.0
C      1  0.4904500000000  0.5522910000000  0.5009310000000 1.0
C      1  0.5787030000000  0.4796590000000  0.5370990000000 1.0
C      1  0.5097770000000  0.4502000000000  0.4066000000000 1.0
C      1  0.4222360000000  0.5053300000000  0.4801220000000 1.0
C      1  0.4522090000000  0.5002190000000  0.4960680000000 1.0
C      1  0.5278490000000  0.5855020000000  0.4986040000000 1.0
C      1  0.4947640000000  0.4415530000000  0.4302820000000 1.0
C      1  0.5686770000000  0.4929480000000  0.5651230000000 1.0
C      1  0.5675210000000  0.4800260000000  0.5056470000000 1.0
END
