TITL C-2778429-3646-1098 -0.000308413035690179 125000 -346.401200763365 0 0 59 (C1) n - 1
REM
REM in /home/nfs/bkarasulu/CARBON/AIRSS/Generating-Clusters/REBO/Only-C1/SD-CG/HFTN-CG
REM
REM
REM
REM
REM
REM ./C.cell (11c1c37f851c82e70ff6c80c92926a4b)
REM
REM compiler GCC version 9.2.1 20190827 (Red Hat 9.2.1-1)
REM options -cpp -mtune=generic -march=x86-64 -g -O0 -fpre-include=/usr/include/finclude/math-vector-fortran.h
REM seed -1576856490 299190146 1052904499 945328717 2068028164 1996849724 -294779161 1785447690 1521156151 704521330 -1884313204 2112320089 104243874 955898376 -912068196 436378178 -59415633 867815788 526109591 -1095820407 -652679400 -1611550925 983597415 398339061 -626810394 1891375858 -1313249878 32409418 1786414874 530906344 1891638676 316310379 -1132819898
REM
CELL 1.54180   50.00000   50.00000   50.00000   90.00000   90.00000   90.00000
LATT -1
SFAC C  
C      1  0.4955540000000  0.4667100000000  0.4410770000000 1.0
C      1  0.4474370000000  0.4422990000000  0.4958820000000 1.0
C      1  0.5488880000000  0.4415630000000  0.5333300000000 1.0
C      1  0.4832610000000  0.5467070000000  0.4448400000000 1.0
C      1  0.5202940000000  0.4840700000000  0.5334630000000 1.0
C      1  0.5587270000000  0.4635530000000  0.4898220000000 1.0
C      1  0.4688700000000  0.4725380000000  0.4488230000000 1.0
C      1  0.5123010000000  0.4371350000000  0.4876160000000 1.0
C      1  0.4622280000000  0.5116800000000  0.4164110000000 1.0
C      1  0.5057040000000  0.5682300000000  0.4520490000000 1.0
C      1  0.4967940000000  0.4212670000000  0.4981460000000 1.0
C      1  0.5102060000000  0.5139560000000  0.5771630000000 1.0
C      1  0.4878130000000  0.5230780000000  0.5366060000000 1.0
C      1  0.4724180000000  0.4409880000000  0.5413470000000 1.0
C      1  0.5069840000000  0.5293760000000  0.4614590000000 1.0
C      1  0.5138830000000  0.4917870000000  0.4948370000000 1.0
C      1  0.4611050000000  0.4676380000000  0.4772700000000 1.0
C      1  0.4171790000000  0.5146230000000  0.5035320000000 1.0
C      1  0.5386310000000  0.4937340000000  0.4481090000000 1.0
C      1  0.5215960000000  0.4707700000000  0.4508350000000 1.0
C      1  0.5439770000000  0.4902470000000  0.5000590000000 1.0
C      1  0.4175740000000  0.4922600000000  0.5210100000000 1.0
C      1  0.5107500000000  0.5206360000000  0.4153290000000 1.0
C      1  0.4446980000000  0.4893750000000  0.5384720000000 1.0
C      1  0.4435620000000  0.5178650000000  0.4932790000000 1.0
C      1  0.3960550000000  0.5307840000000  0.4986640000000 1.0
C      1  0.5239320000000  0.5171930000000  0.4408480000000 1.0
C      1  0.4778230000000  0.4568980000000  0.5050490000000 1.0
C      1  0.5526640000000  0.4990860000000  0.5275850000000 1.0
C      1  0.5287980000000  0.4553410000000  0.5471100000000 1.0
C      1  0.5263580000000  0.5683500000000  0.4703090000000 1.0
C      1  0.5630500000000  0.4447900000000  0.5097670000000 1.0
C      1  0.5662610000000  0.5462160000000  0.5299820000000 1.0
C      1  0.4526250000000  0.5435690000000  0.4849440000000 1.0
C      1  0.4551240000000  0.4898680000000  0.4313650000000 1.0
C      1  0.5049850000000  0.5343920000000  0.5568170000000 1.0
C      1  0.5625640000000  0.5230270000000  0.4866870000000 1.0
C      1  0.5584960000000  0.4951390000000  0.4710980000000 1.0
C      1  0.4733200000000  0.4975260000000  0.5477160000000 1.0
C      1  0.5222160000000  0.5553270000000  0.5484730000000 1.0
C      1  0.4915900000000  0.5332290000000  0.5097960000000 1.0
C      1  0.5676100000000  0.5220110000000  0.5150870000000 1.0
C      1  0.4941880000000  0.4902920000000  0.5710850000000 1.0
C      1  0.5374830000000  0.5057840000000  0.5786390000000 1.0
C      1  0.4403590000000  0.4693770000000  0.5113120000000 1.0
C      1  0.5052450000000  0.5203460000000  0.4880460000000 1.0
C      1  0.5461470000000  0.5443530000000  0.4791250000000 1.0
C      1  0.4731560000000  0.5532650000000  0.5018700000000 1.0
C      1  0.4736690000000  0.4641970000000  0.5489070000000 1.0
C      1  0.4622380000000  0.4931220000000  0.5002460000000 1.0
C      1  0.4558190000000  0.5500300000000  0.4576900000000 1.0
C      1  0.5090740000000  0.4660370000000  0.5673500000000 1.0
C      1  0.5444870000000  0.4912460000000  0.5567930000000 1.0
C      1  0.4695480000000  0.4248650000000  0.5138830000000 1.0
C      1  0.4916690000000  0.4834770000000  0.5151000000000 1.0
C      1  0.5236030000000  0.4630880000000  0.4793700000000 1.0
C      1  0.5341580000000  0.5647700000000  0.5013800000000 1.0
C      1  0.5416210000000  0.5608810000000  0.5284040000000 1.0
C      1  0.4836320000000  0.5300390000000  0.4187340000000 1.0
END
