TITL C-2778432-5617-469 -0.00320887215017815 125000 -795.202150614891 0 0 138 (C1) n - 1
REM
REM in /home/nfs/bkarasulu/CARBON/AIRSS/Generating-Clusters/REBO/Only-C1/SD-CG/HFTN-CG
REM
REM
REM
REM
REM
REM ./C.cell (11c1c37f851c82e70ff6c80c92926a4b)
REM
REM compiler GCC version 9.2.1 20190827 (Red Hat 9.2.1-1)
REM options -cpp -mtune=generic -march=x86-64 -g -O0 -fpre-include=/usr/include/finclude/math-vector-fortran.h
REM seed -267914442 1794603645 1160035604 -1469486675 436658440 -1036382951 632469379 1574097796 932220425 -1349756949 -2076640550 -721205597 1100658228 -1910435267 -561989979 -1780833571 -540939810 -1684555967 -1589795657 1710989322 -161938861 1007476057 255742021 -1206803444 644236441 -1556918688 1063229420 1295733040 807358360 1532021823 1643275303 -1321582406 -508744185
REM
CELL 1.54180   50.00000   50.00000   50.00000   90.00000   90.00000   90.00000
LATT -1
SFAC C  
C      1  0.5458610000000  0.5073600000000  0.4715290000000 1.0
C      1  0.4328980000000  0.4971510000000  0.5675680000000 1.0
C      1  0.5241920000000  0.5318150000000  0.5623810000000 1.0
C      1  0.5062970000000  0.4942670000000  0.5276600000000 1.0
C      1  0.5514090000000  0.4638140000000  0.5296860000000 1.0
C      1  0.4715880000000  0.4600390000000  0.5320180000000 1.0
C      1  0.4413450000000  0.4574930000000  0.4316230000000 1.0
C      1  0.5786530000000  0.4960990000000  0.4534970000000 1.0
C      1  0.5127560000000  0.3932870000000  0.5174820000000 1.0
C      1  0.5140340000000  0.5036490000000  0.5686560000000 1.0
C      1  0.5198430000000  0.4661950000000  0.5179400000000 1.0
C      1  0.4686800000000  0.5958390000000  0.4727780000000 1.0
C      1  0.4622990000000  0.5564720000000  0.4741440000000 1.0
C      1  0.4952870000000  0.4833760000000  0.4649670000000 1.0
C      1  0.4545930000000  0.4374060000000  0.5517320000000 1.0
C      1  0.5321670000000  0.4071800000000  0.4761720000000 1.0
C      1  0.5573290000000  0.5535300000000  0.4395620000000 1.0
C      1  0.5763900000000  0.5229320000000  0.4723730000000 1.0
C      1  0.4847430000000  0.5829810000000  0.5461660000000 1.0
C      1  0.5099810000000  0.5754440000000  0.4540370000000 1.0
C      1  0.4476250000000  0.5379300000000  0.4122400000000 1.0
C      1  0.4096950000000  0.4729790000000  0.4460650000000 1.0
C      1  0.4151350000000  0.4967890000000  0.4637080000000 1.0
C      1  0.5585390000000  0.4772110000000  0.4739830000000 1.0
C      1  0.5484120000000  0.4551860000000  0.4234440000000 1.0
C      1  0.4779500000000  0.4423180000000  0.4266010000000 1.0
C      1  0.5560570000000  0.4809370000000  0.4135890000000 1.0
C      1  0.5956550000000  0.4281660000000  0.4790740000000 1.0
C      1  0.4512670000000  0.5048860000000  0.4965920000000 1.0
C      1  0.4004900000000  0.5236170000000  0.5338950000000 1.0
C      1  0.5235880000000  0.5318950000000  0.4100610000000 1.0
C      1  0.5128240000000  0.5806710000000  0.5475190000000 1.0
C      1  0.5288270000000  0.4631500000000  0.4849300000000 1.0
C      1  0.5396820000000  0.4849800000000  0.5507870000000 1.0
C      1  0.4207760000000  0.5692720000000  0.5121020000000 1.0
C      1  0.6041520000000  0.4971720000000  0.5088300000000 1.0
C      1  0.4762090000000  0.4421850000000  0.4742930000000 1.0
C      1  0.5772390000000  0.5707750000000  0.5098260000000 1.0
C      1  0.4027660000000  0.5485550000000  0.5202010000000 1.0
C      1  0.5066270000000  0.5487920000000  0.5079570000000 1.0
C      1  0.4497090000000  0.4907280000000  0.4268720000000 1.0
C      1  0.4614250000000  0.4571270000000  0.4041160000000 1.0
C      1  0.5745450000000  0.5508670000000  0.4612140000000 1.0
C      1  0.4428910000000  0.5355280000000  0.5016370000000 1.0
C      1  0.5051570000000  0.4511190000000  0.5723290000000 1.0
C      1  0.4715900000000  0.4215610000000  0.4988270000000 1.0
C      1  0.4197600000000  0.5231480000000  0.4465960000000 1.0
C      1  0.5365660000000  0.5625040000000  0.5624050000000 1.0
C      1  0.4550760000000  0.5052040000000  0.5827540000000 1.0
C      1  0.4720320000000  0.5093220000000  0.4721320000000 1.0
C      1  0.4359360000000  0.4367270000000  0.5082140000000 1.0
C      1  0.5397420000000  0.5081420000000  0.5106790000000 1.0
C      1  0.4603190000000  0.5711420000000  0.5755450000000 1.0
C      1  0.5621630000000  0.5105000000000  0.5753740000000 1.0
C      1  0.4998410000000  0.5531550000000  0.5982340000000 1.0
C      1  0.5415490000000  0.5599430000000  0.4818190000000 1.0
C      1  0.4501620000000  0.4344260000000  0.4535930000000 1.0
C      1  0.5423640000000  0.5162670000000  0.5943050000000 1.0
C      1  0.4851640000000  0.5317430000000  0.5522680000000 1.0
C      1  0.4346130000000  0.5169280000000  0.4239960000000 1.0
C      1  0.4841630000000  0.4030050000000  0.4792820000000 1.0
C      1  0.5501260000000  0.4256080000000  0.5413690000000 1.0
C      1  0.4234440000000  0.5267520000000  0.4784340000000 1.0
C      1  0.4719400000000  0.4587330000000  0.5715990000000 1.0
C      1  0.4819220000000  0.5003230000000  0.4194610000000 1.0
C      1  0.4936830000000  0.5391010000000  0.4568260000000 1.0
C      1  0.4443280000000  0.5704950000000  0.4523180000000 1.0
C      1  0.4706610000000  0.4080820000000  0.4541850000000 1.0
C      1  0.4208090000000  0.4902300000000  0.5022980000000 1.0
C      1  0.4885030000000  0.4794770000000  0.5498210000000 1.0
C      1  0.5512650000000  0.4487450000000  0.5007240000000 1.0
C      1  0.5250430000000  0.5685930000000  0.5232100000000 1.0
C      1  0.5242700000000  0.4252730000000  0.4524180000000 1.0
C      1  0.4024300000000  0.4710810000000  0.5236780000000 1.0
C      1  0.5074000000000  0.4878910000000  0.4327470000000 1.0
C      1  0.5590380000000  0.5421450000000  0.5463020000000 1.0
C      1  0.4864690000000  0.4582430000000  0.6232950000000 1.0
C      1  0.5296320000000  0.4039180000000  0.5424450000000 1.0
C      1  0.5532040000000  0.4338940000000  0.4420370000000 1.0
C      1  0.5196620000000  0.4596020000000  0.4226440000000 1.0
C      1  0.5293570000000  0.4715230000000  0.5762290000000 1.0
C      1  0.4609050000000  0.5935780000000  0.5288410000000 1.0
C      1  0.5798470000000  0.4960200000000  0.5542120000000 1.0
C      1  0.5850490000000  0.5420310000000  0.5247230000000 1.0
C      1  0.5721830000000  0.4256860000000  0.4607200000000 1.0
C      1  0.4409060000000  0.4679070000000  0.5595060000000 1.0
C      1  0.3950630000000  0.5013140000000  0.5185820000000 1.0
C      1  0.4214180000000  0.5452380000000  0.5691980000000 1.0
C      1  0.4718790000000  0.4810260000000  0.3951980000000 1.0
C      1  0.5710200000000  0.4221430000000  0.5224400000000 1.0
C      1  0.4564500000000  0.4755970000000  0.5114860000000 1.0
C      1  0.4317650000000  0.4610880000000  0.5292230000000 1.0
C      1  0.4353280000000  0.5807610000000  0.5354580000000 1.0
C      1  0.4323810000000  0.5696810000000  0.4841070000000 1.0
C      1  0.5985370000000  0.5129060000000  0.5352710000000 1.0
C      1  0.5089780000000  0.5572360000000  0.3969210000000 1.0
C      1  0.4818990000000  0.5050260000000  0.5685910000000 1.0
C      1  0.5411130000000  0.5151640000000  0.5416530000000 1.0
C      1  0.4982350000000  0.5479950000000  0.4260680000000 1.0
C      1  0.5019730000000  0.4656960000000  0.6034330000000 1.0
C      1  0.5239150000000  0.4916620000000  0.6020060000000 1.0
C      1  0.5697980000000  0.5714590000000  0.4824860000000 1.0
C      1  0.4814240000000  0.5852930000000  0.4502540000000 1.0
C      1  0.4369270000000  0.4435300000000  0.4812650000000 1.0
C      1  0.5897940000000  0.4396500000000  0.5047180000000 1.0
C      1  0.5583840000000  0.4193290000000  0.4905920000000 1.0
C      1  0.4163040000000  0.5195110000000  0.5579420000000 1.0
C      1  0.4357650000000  0.5684020000000  0.5617150000000 1.0
C      1  0.5203420000000  0.4426990000000  0.5428850000000 1.0
C      1  0.4648390000000  0.5873940000000  0.4991370000000 1.0
C      1  0.5529360000000  0.5656520000000  0.5260950000000 1.0
C      1  0.5011630000000  0.5210290000000  0.5264100000000 1.0
C      1  0.4933280000000  0.5626690000000  0.4808740000000 1.0
C      1  0.4714140000000  0.4701680000000  0.4431880000000 1.0
C      1  0.4742970000000  0.4277010000000  0.5271400000000 1.0
C      1  0.5346960000000  0.5700060000000  0.4433020000000 1.0
C      1  0.5534870000000  0.5299100000000  0.4228730000000 1.0
C      1  0.4659230000000  0.5550300000000  0.4328360000000 1.0
C      1  0.5172870000000  0.5005090000000  0.4856460000000 1.0
C      1  0.5104320000000  0.3951900000000  0.4893700000000 1.0
C      1  0.5919400000000  0.4728290000000  0.5648100000000 1.0
C      1  0.5782690000000  0.4703050000000  0.5009380000000 1.0
C      1  0.5671710000000  0.4918620000000  0.5228700000000 1.0
C      1  0.5904790000000  0.5219980000000  0.4981280000000 1.0
C      1  0.5313600000000  0.5017510000000  0.4182060000000 1.0
C      1  0.4714340000000  0.5564420000000  0.5389920000000 1.0
C      1  0.4996290000000  0.4174280000000  0.5366000000000 1.0
C      1  0.5045650000000  0.4363300000000  0.4293270000000 1.0
C      1  0.4821070000000  0.5536550000000  0.5773780000000 1.0
C      1  0.5071540000000  0.4503460000000  0.4666320000000 1.0
C      1  0.5294020000000  0.5466000000000  0.5916400000000 1.0
C      1  0.5384090000000  0.5342260000000  0.4888550000000 1.0
C      1  0.4341440000000  0.4744110000000  0.4776320000000 1.0
C      1  0.4707890000000  0.5218450000000  0.4405300000000 1.0
C      1  0.4586430000000  0.5567790000000  0.5135560000000 1.0
C      1  0.4980750000000  0.5238260000000  0.4863690000000 1.0
C      1  0.5702050000000  0.5028030000000  0.4269490000000 1.0
C      1  0.4670260000000  0.4710870000000  0.4823240000000 1.0
END
