TITL C-2778427-5640-899 -0.00229371754590095 125000 -991.719291290353 0 0 168 (C1) n - 1
REM
REM in /home/nfs/bkarasulu/CARBON/AIRSS/Generating-Clusters/REBO/Only-C1/SD-CG/HFTN-CG
REM
REM
REM
REM
REM
REM ./C.cell (11c1c37f851c82e70ff6c80c92926a4b)
REM
REM compiler GCC version 9.2.1 20190827 (Red Hat 9.2.1-1)
REM options -cpp -mtune=generic -march=x86-64 -g -O0 -fpre-include=/usr/include/finclude/math-vector-fortran.h
REM seed -1007909567 -1192800922 178211585 -1142633826 564364689 1521592755 1989537866 -836431875 394339218 765196595 1180382866 -729195117 237203441 -116935518 709051528 -1302147059 -585741624 -1768033646 2142856830 -1519666225 -1188280917 1228925066 -1992105984 980915067 1854803596 -337224057 1268372645 357323038 -2015845576 830373255 -1029933973 -133468734 -1148237767
REM
CELL 1.54180   50.00000   50.00000   50.00000   90.00000   90.00000   90.00000
LATT -1
SFAC C  
C      1  0.4488570000000  0.5254490000000  0.4621380000000 1.0
C      1  0.5362840000000  0.4362530000000  0.5184840000000 1.0
C      1  0.4314030000000  0.4902590000000  0.5248130000000 1.0
C      1  0.5423800000000  0.5472370000000  0.5031230000000 1.0
C      1  0.4255960000000  0.4617870000000  0.4465610000000 1.0
C      1  0.5083230000000  0.4576540000000  0.4895710000000 1.0
C      1  0.4648680000000  0.4294200000000  0.4393050000000 1.0
C      1  0.4134310000000  0.4836550000000  0.5733440000000 1.0
C      1  0.5638860000000  0.4934080000000  0.5089940000000 1.0
C      1  0.4606930000000  0.6099920000000  0.4951650000000 1.0
C      1  0.4893150000000  0.5086490000000  0.5774900000000 1.0
C      1  0.4868750000000  0.5084830000000  0.6166320000000 1.0
C      1  0.5532800000000  0.5833760000000  0.4862260000000 1.0
C      1  0.4760990000000  0.4784630000000  0.4355060000000 1.0
C      1  0.5489020000000  0.5294800000000  0.5267910000000 1.0
C      1  0.5445030000000  0.4823370000000  0.4864080000000 1.0
C      1  0.5761360000000  0.4148420000000  0.4743390000000 1.0
C      1  0.6192750000000  0.5524640000000  0.4748740000000 1.0
C      1  0.5477370000000  0.4168980000000  0.5373570000000 1.0
C      1  0.5082460000000  0.4429040000000  0.4207310000000 1.0
C      1  0.4662790000000  0.4626730000000  0.4792530000000 1.0
C      1  0.5477530000000  0.4934810000000  0.4463440000000 1.0
C      1  0.5118540000000  0.5665060000000  0.4275600000000 1.0
C      1  0.5919280000000  0.5212170000000  0.5147630000000 1.0
C      1  0.5106210000000  0.5496300000000  0.5898590000000 1.0
C      1  0.5455300000000  0.4216370000000  0.4808150000000 1.0
C      1  0.5824960000000  0.5285040000000  0.4332000000000 1.0
C      1  0.5426060000000  0.4394850000000  0.5765470000000 1.0
C      1  0.5320350000000  0.5265240000000  0.5959480000000 1.0
C      1  0.5894140000000  0.4727440000000  0.4996410000000 1.0
C      1  0.4079490000000  0.5097840000000  0.5532040000000 1.0
C      1  0.5211540000000  0.4196250000000  0.5769680000000 1.0
C      1  0.4469730000000  0.4263770000000  0.5900630000000 1.0
C      1  0.5652820000000  0.4654190000000  0.4686720000000 1.0
C      1  0.4969720000000  0.5718770000000  0.5129090000000 1.0
C      1  0.4603100000000  0.5631380000000  0.5390030000000 1.0
C      1  0.4856150000000  0.4430850000000  0.5235600000000 1.0
C      1  0.5047560000000  0.5919860000000  0.5462040000000 1.0
C      1  0.4894910000000  0.4807040000000  0.5499480000000 1.0
C      1  0.5276420000000  0.5131080000000  0.5398620000000 1.0
C      1  0.5964320000000  0.5662330000000  0.5610840000000 1.0
C      1  0.4866400000000  0.4156050000000  0.4881780000000 1.0
C      1  0.4583270000000  0.5350510000000  0.5419000000000 1.0
C      1  0.5642700000000  0.4171560000000  0.4457960000000 1.0
C      1  0.4292590000000  0.5243140000000  0.5315270000000 1.0
C      1  0.4730470000000  0.5104930000000  0.5508890000000 1.0
C      1  0.4255370000000  0.5085440000000  0.4234520000000 1.0
C      1  0.4385430000000  0.4769310000000  0.5904690000000 1.0
C      1  0.5795640000000  0.4421580000000  0.4892260000000 1.0
C      1  0.5773860000000  0.5151960000000  0.4865990000000 1.0
C      1  0.5303120000000  0.5527530000000  0.4020930000000 1.0
C      1  0.4709290000000  0.5044120000000  0.3884280000000 1.0
C      1  0.4355830000000  0.4172210000000  0.4767860000000 1.0
C      1  0.4205320000000  0.4474450000000  0.4730640000000 1.0
C      1  0.5209910000000  0.5950990000000  0.4910310000000 1.0
C      1  0.4924220000000  0.5115180000000  0.4736260000000 1.0
C      1  0.4169030000000  0.5527670000000  0.5208260000000 1.0
C      1  0.4005790000000  0.5419780000000  0.4648030000000 1.0
C      1  0.5011010000000  0.4352450000000  0.4719360000000 1.0
C      1  0.5552900000000  0.5349090000000  0.4158360000000 1.0
C      1  0.5158340000000  0.5959680000000  0.4427660000000 1.0
C      1  0.4245020000000  0.4460110000000  0.5533190000000 1.0
C      1  0.5057790000000  0.5362120000000  0.4022810000000 1.0
C      1  0.4578580000000  0.4362620000000  0.4645790000000 1.0
C      1  0.3893500000000  0.4930990000000  0.4649200000000 1.0
C      1  0.4778180000000  0.5358690000000  0.3929820000000 1.0
C      1  0.5508800000000  0.5967450000000  0.5168020000000 1.0
C      1  0.5155530000000  0.5652850000000  0.5640720000000 1.0
C      1  0.5364550000000  0.5751870000000  0.4577310000000 1.0
C      1  0.4341840000000  0.5753920000000  0.4822600000000 1.0
C      1  0.4111750000000  0.4686500000000  0.4980520000000 1.0
C      1  0.5169020000000  0.4762000000000  0.5964860000000 1.0
C      1  0.5363340000000  0.4071660000000  0.4447390000000 1.0
C      1  0.4734190000000  0.4647050000000  0.5098380000000 1.0
C      1  0.4538890000000  0.5316680000000  0.5827050000000 1.0
C      1  0.3881110000000  0.5210010000000  0.4792320000000 1.0
C      1  0.4481470000000  0.4924550000000  0.4107360000000 1.0
C      1  0.5466250000000  0.5647250000000  0.5539750000000 1.0
C      1  0.4902300000000  0.4615070000000  0.5955580000000 1.0
C      1  0.5548180000000  0.4453500000000  0.4082550000000 1.0
C      1  0.3919020000000  0.5120790000000  0.5242750000000 1.0
C      1  0.5020460000000  0.5220080000000  0.5265340000000 1.0
C      1  0.5124110000000  0.4461630000000  0.5304210000000 1.0
C      1  0.5207210000000  0.6021830000000  0.5238430000000 1.0
C      1  0.5270530000000  0.4851430000000  0.4008230000000 1.0
C      1  0.5213340000000  0.4997560000000  0.4749200000000 1.0
C      1  0.4481310000000  0.4629640000000  0.4255250000000 1.0
C      1  0.5218080000000  0.4062720000000  0.5507390000000 1.0
C      1  0.4750920000000  0.5317700000000  0.4571610000000 1.0
C      1  0.5504510000000  0.5019600000000  0.4146760000000 1.0
C      1  0.5900560000000  0.5097420000000  0.4559240000000 1.0
C      1  0.4697330000000  0.4613470000000  0.5655360000000 1.0
C      1  0.5067280000000  0.6114850000000  0.4699710000000 1.0
C      1  0.4988490000000  0.4040100000000  0.5331890000000 1.0
C      1  0.5643030000000  0.4342530000000  0.5561900000000 1.0
C      1  0.5730800000000  0.4386220000000  0.4288890000000 1.0
C      1  0.4416710000000  0.4820440000000  0.4928960000000 1.0
C      1  0.5947390000000  0.4783560000000  0.4662150000000 1.0
C      1  0.5223520000000  0.4722190000000  0.4551170000000 1.0
C      1  0.4354020000000  0.5033590000000  0.4698360000000 1.0
C      1  0.4975920000000  0.4287700000000  0.5897160000000 1.0
C      1  0.5223550000000  0.5236890000000  0.4504970000000 1.0
C      1  0.4393000000000  0.4325870000000  0.5338590000000 1.0
C      1  0.5699260000000  0.4757260000000  0.5762220000000 1.0
C      1  0.5218440000000  0.5071520000000  0.5705880000000 1.0
C      1  0.5392090000000  0.4464360000000  0.4674330000000 1.0
C      1  0.4504100000000  0.4865190000000  0.5532490000000 1.0
C      1  0.5036860000000  0.5197770000000  0.4265100000000 1.0
C      1  0.4339470000000  0.4441990000000  0.5046580000000 1.0
C      1  0.5905740000000  0.4772280000000  0.5333540000000 1.0
C      1  0.5139670000000  0.4267090000000  0.4439750000000 1.0
C      1  0.4591860000000  0.5655730000000  0.4892850000000 1.0
C      1  0.5631630000000  0.5515470000000  0.4782490000000 1.0
C      1  0.5530580000000  0.5216320000000  0.4650750000000 1.0
C      1  0.4295690000000  0.4474700000000  0.5820460000000 1.0
C      1  0.4684960000000  0.4172230000000  0.5337130000000 1.0
C      1  0.5622390000000  0.5324860000000  0.5912020000000 1.0
C      1  0.5300570000000  0.3975240000000  0.4924360000000 1.0
C      1  0.4712980000000  0.4321300000000  0.5768250000000 1.0
C      1  0.5792820000000  0.4598540000000  0.5536690000000 1.0
C      1  0.5384170000000  0.5491990000000  0.4403200000000 1.0
C      1  0.4794800000000  0.4499710000000  0.4205230000000 1.0
C      1  0.3914600000000  0.4926000000000  0.4989680000000 1.0
C      1  0.4143750000000  0.4715600000000  0.5447260000000 1.0
C      1  0.5319330000000  0.3866840000000  0.4645480000000 1.0
C      1  0.5313290000000  0.4659930000000  0.5743660000000 1.0
C      1  0.5742830000000  0.5519690000000  0.5591510000000 1.0
C      1  0.5156910000000  0.5012890000000  0.6095830000000 1.0
C      1  0.4092570000000  0.5661920000000  0.4764370000000 1.0
C      1  0.4758980000000  0.6101710000000  0.4717890000000 1.0
C      1  0.4366740000000  0.5402100000000  0.4202770000000 1.0
C      1  0.3915830000000  0.5388810000000  0.5164820000000 1.0
C      1  0.4883160000000  0.5737990000000  0.4823210000000 1.0
C      1  0.4895460000000  0.4795760000000  0.4621080000000 1.0
C      1  0.4910050000000  0.5304410000000  0.4976880000000 1.0
C      1  0.5769780000000  0.4889480000000  0.4320950000000 1.0
C      1  0.5938050000000  0.5520480000000  0.4764060000000 1.0
C      1  0.4620120000000  0.5487230000000  0.4131940000000 1.0
C      1  0.4809970000000  0.5553780000000  0.4367300000000 1.0
C      1  0.4827370000000  0.5357010000000  0.5970320000000 1.0
C      1  0.5202490000000  0.5616710000000  0.4834110000000 1.0
C      1  0.4623120000000  0.5400280000000  0.4993960000000 1.0
C      1  0.5520980000000  0.4542000000000  0.5042400000000 1.0
C      1  0.5890910000000  0.5063450000000  0.5379080000000 1.0
C      1  0.4834610000000  0.4955130000000  0.5153420000000 1.0
C      1  0.4547540000000  0.5976340000000  0.5198960000000 1.0
C      1  0.5366910000000  0.4873330000000  0.5251450000000 1.0
C      1  0.5742940000000  0.5206190000000  0.5613760000000 1.0
C      1  0.4984010000000  0.5511640000000  0.5382600000000 1.0
C      1  0.4793750000000  0.5042110000000  0.4209230000000 1.0
C      1  0.5106960000000  0.4784280000000  0.5070020000000 1.0
C      1  0.5642990000000  0.5863830000000  0.5380610000000 1.0
C      1  0.4851840000000  0.5838190000000  0.4516620000000 1.0
C      1  0.4153160000000  0.4908510000000  0.4489750000000 1.0
C      1  0.5184140000000  0.4713030000000  0.5471540000000 1.0
C      1  0.4133840000000  0.5350210000000  0.4411870000000 1.0
C      1  0.5032420000000  0.4939040000000  0.3905840000000 1.0
C      1  0.5289960000000  0.4568620000000  0.4071380000000 1.0
C      1  0.4697270000000  0.4869910000000  0.5962140000000 1.0
C      1  0.5048190000000  0.4012480000000  0.5051210000000 1.0
C      1  0.4587670000000  0.4207810000000  0.5013190000000 1.0
C      1  0.4576270000000  0.5125850000000  0.5090720000000 1.0
C      1  0.4766760000000  0.5902750000000  0.5417180000000 1.0
C      1  0.5546540000000  0.4983580000000  0.5728600000000 1.0
C      1  0.4378590000000  0.5142580000000  0.5692000000000 1.0
C      1  0.4358940000000  0.5727920000000  0.5220940000000 1.0
C      1  0.5272540000000  0.5630000000000  0.5260850000000 1.0
C      1  0.5894140000000  0.4601240000000  0.4376620000000 1.0
END
