TITL C-2778427-5640-298 -0.00288467910420093 125000 -854.237137398919 0 0 146 (C1) n - 1
REM
REM in /home/nfs/bkarasulu/CARBON/AIRSS/Generating-Clusters/REBO/Only-C1/SD-CG/HFTN-CG
REM
REM
REM
REM
REM
REM ./C.cell (11c1c37f851c82e70ff6c80c92926a4b)
REM
REM compiler GCC version 9.2.1 20190827 (Red Hat 9.2.1-1)
REM options -cpp -mtune=generic -march=x86-64 -g -O0 -fpre-include=/usr/include/finclude/math-vector-fortran.h
REM seed 543206821 -1497385779 1926984567 913047403 35000500 -1434733843 1589045309 1612825495 1582368046 1326424931 -306346575 -589335085 14157685 -1341015154 841807436 -184211880 2142273024 17000376 25243185 -1741799193 -302011768 1021619072 -74251938 1371240588 -148948433 563779098 -1632662318 -249687000 1571801373 -406644006 -1820583201 -1240345796 517813519
REM
CELL 1.54180   50.00000   50.00000   50.00000   90.00000   90.00000   90.00000
LATT -1
SFAC C  
C      1  0.4389610000000  0.4079070000000  0.4969090000000 1.0
C      1  0.4806580000000  0.4969810000000  0.4047750000000 1.0
C      1  0.5194090000000  0.5442440000000  0.4603010000000 1.0
C      1  0.4616390000000  0.5041760000000  0.5763310000000 1.0
C      1  0.5573050000000  0.4685280000000  0.3997870000000 1.0
C      1  0.5162680000000  0.5140810000000  0.4925950000000 1.0
C      1  0.4602430000000  0.4775200000000  0.5465400000000 1.0
C      1  0.4549110000000  0.5473980000000  0.4613960000000 1.0
C      1  0.5306210000000  0.4124290000000  0.4553820000000 1.0
C      1  0.5144760000000  0.6028930000000  0.4463410000000 1.0
C      1  0.5241970000000  0.4786670000000  0.4381330000000 1.0
C      1  0.5440040000000  0.4454370000000  0.5593480000000 1.0
C      1  0.4218490000000  0.4452280000000  0.5304380000000 1.0
C      1  0.4760520000000  0.4983260000000  0.4520290000000 1.0
C      1  0.4431460000000  0.5560520000000  0.5374800000000 1.0
C      1  0.4796580000000  0.4944550000000  0.5415970000000 1.0
C      1  0.5389300000000  0.4038100000000  0.5199360000000 1.0
C      1  0.4281740000000  0.5073320000000  0.5504760000000 1.0
C      1  0.5150990000000  0.4473860000000  0.5732830000000 1.0
C      1  0.5059990000000  0.5217470000000  0.4401130000000 1.0
C      1  0.4148800000000  0.4539630000000  0.4981310000000 1.0
C      1  0.5119380000000  0.5667830000000  0.5126960000000 1.0
C      1  0.4804820000000  0.4790580000000  0.4934850000000 1.0
C      1  0.4583020000000  0.4712240000000  0.4066300000000 1.0
C      1  0.4575920000000  0.5261430000000  0.5313180000000 1.0
C      1  0.4720500000000  0.4666250000000  0.4466150000000 1.0
C      1  0.5121200000000  0.4386930000000  0.4665360000000 1.0
C      1  0.3880100000000  0.4965130000000  0.5037010000000 1.0
C      1  0.5548470000000  0.5105540000000  0.4637330000000 1.0
C      1  0.4878970000000  0.4384320000000  0.3888020000000 1.0
C      1  0.5055420000000  0.4643730000000  0.5123340000000 1.0
C      1  0.4403330000000  0.5009120000000  0.5210340000000 1.0
C      1  0.4433240000000  0.5926780000000  0.4871880000000 1.0
C      1  0.4620860000000  0.4475900000000  0.3916320000000 1.0
C      1  0.5094390000000  0.4145190000000  0.5333850000000 1.0
C      1  0.4309880000000  0.5060090000000  0.4179340000000 1.0
C      1  0.5388210000000  0.6004150000000  0.4612940000000 1.0
C      1  0.5211040000000  0.4447630000000  0.5339150000000 1.0
C      1  0.5555690000000  0.5826380000000  0.5028920000000 1.0
C      1  0.4570380000000  0.5175920000000  0.4044000000000 1.0
C      1  0.6098460000000  0.5405220000000  0.5062730000000 1.0
C      1  0.5593670000000  0.5646480000000  0.4805100000000 1.0
C      1  0.5060120000000  0.4681960000000  0.5977070000000 1.0
C      1  0.3965770000000  0.4736030000000  0.5190190000000 1.0
C      1  0.5127920000000  0.5061530000000  0.4114410000000 1.0
C      1  0.5480730000000  0.5327290000000  0.5354630000000 1.0
C      1  0.5155670000000  0.6075400000000  0.5086760000000 1.0
C      1  0.4371340000000  0.4238650000000  0.5442630000000 1.0
C      1  0.5395850000000  0.6042190000000  0.4911490000000 1.0
C      1  0.5628160000000  0.4998000000000  0.5827950000000 1.0
C      1  0.4762980000000  0.5975510000000  0.5321730000000 1.0
C      1  0.5402430000000  0.5434760000000  0.4803300000000 1.0
C      1  0.5352920000000  0.5263380000000  0.4021210000000 1.0
C      1  0.5511770000000  0.4364680000000  0.5044730000000 1.0
C      1  0.4322290000000  0.4688790000000  0.4495360000000 1.0
C      1  0.4737690000000  0.5296870000000  0.4385820000000 1.0
C      1  0.5062720000000  0.4528540000000  0.4019890000000 1.0
C      1  0.5784750000000  0.4511660000000  0.5187050000000 1.0
C      1  0.5617540000000  0.5291500000000  0.5845860000000 1.0
C      1  0.5559590000000  0.5368910000000  0.4149510000000 1.0
C      1  0.5057880000000  0.5010560000000  0.4653480000000 1.0
C      1  0.5754640000000  0.4638890000000  0.4198680000000 1.0
C      1  0.4709610000000  0.4227990000000  0.5457200000000 1.0
C      1  0.5544820000000  0.5081540000000  0.5147530000000 1.0
C      1  0.4719060000000  0.5903990000000  0.5012340000000 1.0
C      1  0.5853440000000  0.4757620000000  0.4958800000000 1.0
C      1  0.4758740000000  0.4806810000000  0.5946500000000 1.0
C      1  0.4244310000000  0.4789340000000  0.4782350000000 1.0
C      1  0.4768250000000  0.5679540000000  0.4492510000000 1.0
C      1  0.4805140000000  0.4371590000000  0.4594400000000 1.0
C      1  0.5252740000000  0.4835470000000  0.4952760000000 1.0
C      1  0.4190780000000  0.5282760000000  0.4360460000000 1.0
C      1  0.5022620000000  0.5660770000000  0.4645500000000 1.0
C      1  0.5656560000000  0.5598940000000  0.4343400000000 1.0
C      1  0.5293090000000  0.5386700000000  0.5094480000000 1.0
C      1  0.4434170000000  0.4677770000000  0.5222340000000 1.0
C      1  0.4759870000000  0.4204070000000  0.5849170000000 1.0
C      1  0.4829970000000  0.5108870000000  0.5143210000000 1.0
C      1  0.5190360000000  0.5555820000000  0.5498640000000 1.0
C      1  0.4333020000000  0.5624090000000  0.4764490000000 1.0
C      1  0.5044400000000  0.6045180000000  0.5354400000000 1.0
C      1  0.4894340000000  0.5935960000000  0.4386750000000 1.0
C      1  0.4543900000000  0.4059460000000  0.5212820000000 1.0
C      1  0.5096400000000  0.3953000000000  0.4678380000000 1.0
C      1  0.5435050000000  0.4681430000000  0.5273070000000 1.0
C      1  0.5055270000000  0.4685580000000  0.4725860000000 1.0
C      1  0.4915330000000  0.5364530000000  0.4966020000000 1.0
C      1  0.4994080000000  0.5292480000000  0.5389080000000 1.0
C      1  0.5141030000000  0.3926370000000  0.5005030000000 1.0
C      1  0.5306120000000  0.5198640000000  0.5617320000000 1.0
C      1  0.4069760000000  0.5589550000000  0.4686240000000 1.0
C      1  0.4637430000000  0.5260100000000  0.5614650000000 1.0
C      1  0.5945330000000  0.5014740000000  0.5439920000000 1.0
C      1  0.4890320000000  0.5105020000000  0.6044800000000 1.0
C      1  0.5946200000000  0.5127400000000  0.4629270000000 1.0
C      1  0.4847030000000  0.4036670000000  0.5135560000000 1.0
C      1  0.4253850000000  0.5343390000000  0.5540830000000 1.0
C      1  0.5585930000000  0.5483290000000  0.5613320000000 1.0
C      1  0.4523720000000  0.4656210000000  0.5750020000000 1.0
C      1  0.5235420000000  0.4792540000000  0.5647600000000 1.0
C      1  0.5503830000000  0.5772740000000  0.5604960000000 1.0
C      1  0.4750250000000  0.5567270000000  0.4990320000000 1.0
C      1  0.5346790000000  0.4868310000000  0.5946980000000 1.0
C      1  0.4245780000000  0.4821850000000  0.5639870000000 1.0
C      1  0.4954570000000  0.5398670000000  0.5915730000000 1.0
C      1  0.5913710000000  0.4840230000000  0.4661970000000 1.0
C      1  0.5969990000000  0.4963620000000  0.5172820000000 1.0
C      1  0.4442270000000  0.5623640000000  0.5079330000000 1.0
C      1  0.4464040000000  0.5419210000000  0.4232320000000 1.0
C      1  0.4369220000000  0.4337970000000  0.4851970000000 1.0
C      1  0.5728260000000  0.4722650000000  0.4468510000000 1.0
C      1  0.5690470000000  0.4614250000000  0.5487390000000 1.0
C      1  0.5593870000000  0.4074990000000  0.4930230000000 1.0
C      1  0.4520220000000  0.4352560000000  0.5724790000000 1.0
C      1  0.4935280000000  0.4741040000000  0.4252860000000 1.0
C      1  0.5417800000000  0.5713930000000  0.5282750000000 1.0
C      1  0.4062030000000  0.4666710000000  0.5483350000000 1.0
C      1  0.4858360000000  0.4120380000000  0.4804450000000 1.0
C      1  0.5294130000000  0.5380740000000  0.5896210000000 1.0
C      1  0.5777860000000  0.4872480000000  0.5621840000000 1.0
C      1  0.4494070000000  0.4929100000000  0.4917120000000 1.0
C      1  0.4492460000000  0.4442950000000  0.4589120000000 1.0
C      1  0.5655580000000  0.5141870000000  0.4903130000000 1.0
C      1  0.4564300000000  0.5158990000000  0.4713250000000 1.0
C      1  0.4768730000000  0.5488460000000  0.5720300000000 1.0
C      1  0.5021570000000  0.5033350000000  0.5596620000000 1.0
C      1  0.5729780000000  0.5276560000000  0.4425010000000 1.0
C      1  0.4362050000000  0.4786190000000  0.4238080000000 1.0
C      1  0.5586120000000  0.5783730000000  0.4542180000000 1.0
C      1  0.5469110000000  0.4852060000000  0.4525020000000 1.0
C      1  0.4897470000000  0.5602840000000  0.5359590000000 1.0
C      1  0.5280680000000  0.4762890000000  0.4055950000000 1.0
C      1  0.5194380000000  0.5894730000000  0.5554830000000 1.0
C      1  0.4023470000000  0.5007710000000  0.4790170000000 1.0
C      1  0.5192520000000  0.5116290000000  0.6058890000000 1.0
C      1  0.4045730000000  0.5202930000000  0.4588320000000 1.0
C      1  0.4582690000000  0.4545460000000  0.4987280000000 1.0
C      1  0.4881440000000  0.4404010000000  0.4984920000000 1.0
C      1  0.5351760000000  0.4954500000000  0.5386580000000 1.0
C      1  0.4656810000000  0.5735270000000  0.5519410000000 1.0
C      1  0.5936910000000  0.5268890000000  0.4900620000000 1.0
C      1  0.5022480000000  0.5838880000000  0.4884860000000 1.0
C      1  0.5563560000000  0.4059220000000  0.4656530000000 1.0
C      1  0.5196540000000  0.4264280000000  0.4961510000000 1.0
C      1  0.4989410000000  0.4244320000000  0.5641950000000 1.0
C      1  0.5529710000000  0.4698490000000  0.4965040000000 1.0
END
