TITL C-2778432-5617-761 -0.00105594236584846 125000 -399.187265604811 0 0 70 (C1) n - 1
REM
REM in /home/nfs/bkarasulu/CARBON/AIRSS/Generating-Clusters/REBO/Only-C1/SD-CG/HFTN-CG
REM
REM
REM
REM
REM
REM ./C.cell (11c1c37f851c82e70ff6c80c92926a4b)
REM
REM compiler GCC version 9.2.1 20190827 (Red Hat 9.2.1-1)
REM options -cpp -mtune=generic -march=x86-64 -g -O0 -fpre-include=/usr/include/finclude/math-vector-fortran.h
REM seed -1594586384 409029863 1734835660 -845775296 -1249606867 1085168840 711781903 -789621540 1991409619 -1599219522 83644137 1673699524 1263608914 216431573 -2052517161 1494398458 -2115006342 -1386231488 -534823297 -1012428030 -828008124 -1076591592 915987703 1987413552 -1234551482 -2012741051 2054359391 59098117 -317755246 -1758585641 -819641035 -1628461316 -37378316
REM
CELL 1.54180   50.00000   50.00000   50.00000   90.00000   90.00000   90.00000
LATT -1
SFAC C  
C      1  0.4825540000000  0.4280370000000  0.4818490000000 1.0
C      1  0.4999740000000  0.4473390000000  0.4391090000000 1.0
C      1  0.4724390000000  0.4733760000000  0.5714930000000 1.0
C      1  0.5479870000000  0.5448090000000  0.4823350000000 1.0
C      1  0.5486520000000  0.4703810000000  0.4407800000000 1.0
C      1  0.5018240000000  0.4257510000000  0.4569860000000 1.0
C      1  0.4532820000000  0.5315060000000  0.4690350000000 1.0
C      1  0.5220020000000  0.4785940000000  0.5749730000000 1.0
C      1  0.4225900000000  0.5488070000000  0.5014680000000 1.0
C      1  0.5484750000000  0.4715390000000  0.5691380000000 1.0
C      1  0.4729660000000  0.4614540000000  0.4333990000000 1.0
C      1  0.4771190000000  0.5538030000000  0.4648270000000 1.0
C      1  0.5190810000000  0.4713000000000  0.4470470000000 1.0
C      1  0.4983560000000  0.5176600000000  0.4174430000000 1.0
C      1  0.4955190000000  0.4852820000000  0.4277040000000 1.0
C      1  0.5558620000000  0.5232830000000  0.5416370000000 1.0
C      1  0.4855150000000  0.5462290000000  0.5608230000000 1.0
C      1  0.5475200000000  0.4560240000000  0.5203540000000 1.0
C      1  0.5133110000000  0.5415390000000  0.5698630000000 1.0
C      1  0.4605140000000  0.4757130000000  0.5269990000000 1.0
C      1  0.5254000000000  0.5490200000000  0.5303570000000 1.0
C      1  0.5700750000000  0.4988300000000  0.5352160000000 1.0
C      1  0.5212350000000  0.5244540000000  0.4422630000000 1.0
C      1  0.5106740000000  0.5716280000000  0.5297300000000 1.0
C      1  0.5188650000000  0.4374160000000  0.5207350000000 1.0
C      1  0.4536710000000  0.4667480000000  0.5515840000000 1.0
C      1  0.4341980000000  0.4925370000000  0.4548830000000 1.0
C      1  0.5334980000000  0.4558290000000  0.4889560000000 1.0
C      1  0.4880020000000  0.5378400000000  0.5218510000000 1.0
C      1  0.4951600000000  0.5054710000000  0.4548140000000 1.0
C      1  0.4862090000000  0.4357670000000  0.5436660000000 1.0
C      1  0.4692120000000  0.5230870000000  0.5548190000000 1.0
C      1  0.5390320000000  0.5319870000000  0.5637920000000 1.0
C      1  0.4212460000000  0.4985720000000  0.4857380000000 1.0
C      1  0.5144380000000  0.4788790000000  0.4771270000000 1.0
C      1  0.4832540000000  0.5351770000000  0.4429550000000 1.0
C      1  0.4610070000000  0.5103030000000  0.4901600000000 1.0
C      1  0.5156280000000  0.4288610000000  0.4879810000000 1.0
C      1  0.5236110000000  0.5267850000000  0.4973810000000 1.0
C      1  0.4908960000000  0.4812600000000  0.5195560000000 1.0
C      1  0.4442710000000  0.4865490000000  0.5065750000000 1.0
C      1  0.4815950000000  0.4888550000000  0.4787470000000 1.0
C      1  0.4863170000000  0.4478330000000  0.5148140000000 1.0
C      1  0.4457810000000  0.5165930000000  0.4434240000000 1.0
C      1  0.4831980000000  0.5675010000000  0.5396630000000 1.0
C      1  0.5841860000000  0.4991300000000  0.5102650000000 1.0
C      1  0.4590250000000  0.5203520000000  0.5226760000000 1.0
C      1  0.5629620000000  0.4918180000000  0.4492430000000 1.0
C      1  0.4543170000000  0.4654570000000  0.4568180000000 1.0
C      1  0.5606430000000  0.4729710000000  0.5438060000000 1.0
C      1  0.5700900000000  0.4977270000000  0.4813730000000 1.0
C      1  0.5657850000000  0.5271380000000  0.4664010000000 1.0
C      1  0.4683390000000  0.5752900000000  0.4890520000000 1.0
C      1  0.5161660000000  0.5435950000000  0.4699310000000 1.0
C      1  0.5120280000000  0.5005150000000  0.5014490000000 1.0
C      1  0.5285710000000  0.4906560000000  0.5279760000000 1.0
C      1  0.5089720000000  0.5022090000000  0.5643720000000 1.0
C      1  0.4642710000000  0.5206780000000  0.4193940000000 1.0
C      1  0.5126910000000  0.5195560000000  0.5365170000000 1.0
C      1  0.4986640000000  0.4560240000000  0.5680460000000 1.0
C      1  0.5506340000000  0.5396380000000  0.5145340000000 1.0
C      1  0.4701300000000  0.4576980000000  0.4862300000000 1.0
C      1  0.4937680000000  0.5530290000000  0.4939720000000 1.0
C      1  0.4422710000000  0.5589210000000  0.4833550000000 1.0
C      1  0.5132780000000  0.4645330000000  0.5388170000000 1.0
C      1  0.5512590000000  0.5189640000000  0.4402150000000 1.0
C      1  0.5484170000000  0.4840300000000  0.5009140000000 1.0
C      1  0.4280330000000  0.5226130000000  0.5088580000000 1.0
C      1  0.4803570000000  0.5007400000000  0.5686680000000 1.0
C      1  0.4331280000000  0.4665110000000  0.4830670000000 1.0
END
