TITL C-2778424-3986-20 0.00194898613524355 125000 -841.816833716489 0 0 146 (C1) n - 1
REM
REM in /home/nfs/bkarasulu/CARBON/AIRSS/Generating-Clusters/REBO/Only-C1/SD-CG/HFTN-CG
REM
REM
REM
REM
REM
REM ./C.cell (11c1c37f851c82e70ff6c80c92926a4b)
REM
REM compiler GCC version 9.2.1 20190827 (Red Hat 9.2.1-1)
REM options -cpp -mtune=generic -march=x86-64 -g -O0 -fpre-include=/usr/include/finclude/math-vector-fortran.h
REM seed 174271264 911012791 -422043248 -148663234 1602802370 -570112201 -1930723206 -724826953 -678134444 1389060454 1719693720 1972263519 1812017986 1665190600 -158070064 355539447 1538169519 -1833672784 -506173884 941063030 -541177244 1323980449 -1768421105 -1969606655 -1852979937 1968236567 -218338605 -895270519 584522075 -357686927 2106682836 -194555503 1264110934
REM
CELL 1.54180   50.00000   50.00000   50.00000   90.00000   90.00000   90.00000
LATT -1
SFAC C  
C      1  0.4754400000000  0.5661540000000  0.5134490000000 1.0
C      1  0.5038100000000  0.5543650000000  0.5573950000000 1.0
C      1  0.4527150000000  0.5619990000000  0.5543860000000 1.0
C      1  0.4495220000000  0.5797460000000  0.4635100000000 1.0
C      1  0.5370310000000  0.4553430000000  0.4532740000000 1.0
C      1  0.5535810000000  0.4509030000000  0.5516690000000 1.0
C      1  0.4790140000000  0.5391080000000  0.4167360000000 1.0
C      1  0.5487870000000  0.5696960000000  0.5624800000000 1.0
C      1  0.4798330000000  0.4754320000000  0.5019420000000 1.0
C      1  0.5673510000000  0.4914900000000  0.4473340000000 1.0
C      1  0.4929360000000  0.4278100000000  0.4366080000000 1.0
C      1  0.5254960000000  0.4612840000000  0.5347230000000 1.0
C      1  0.5997920000000  0.5087290000000  0.4748070000000 1.0
C      1  0.4272560000000  0.4653750000000  0.5567300000000 1.0
C      1  0.4169070000000  0.5332390000000  0.5596750000000 1.0
C      1  0.5774300000000  0.4733970000000  0.4982840000000 1.0
C      1  0.4991770000000  0.5915430000000  0.5387910000000 1.0
C      1  0.4418990000000  0.4408470000000  0.5379720000000 1.0
C      1  0.4526920000000  0.5154530000000  0.5881310000000 1.0
C      1  0.4117560000000  0.4999890000000  0.5057280000000 1.0
C      1  0.4947820000000  0.4791430000000  0.4650660000000 1.0
C      1  0.5851720000000  0.5325520000000  0.4665330000000 1.0
C      1  0.5302500000000  0.4328860000000  0.5691170000000 1.0
C      1  0.5250980000000  0.5155080000000  0.5005380000000 1.0
C      1  0.5930700000000  0.4849310000000  0.4585440000000 1.0
C      1  0.4270930000000  0.5627440000000  0.4557230000000 1.0
C      1  0.5390320000000  0.4206850000000  0.5112590000000 1.0
C      1  0.5357690000000  0.4261650000000  0.4351670000000 1.0
C      1  0.4696580000000  0.4114450000000  0.4426370000000 1.0
C      1  0.4389190000000  0.4980580000000  0.4302580000000 1.0
C      1  0.4653100000000  0.4750040000000  0.5896960000000 1.0
C      1  0.4594190000000  0.5691830000000  0.5864120000000 1.0
C      1  0.5156730000000  0.5140520000000  0.4031680000000 1.0
C      1  0.5027930000000  0.5565880000000  0.4207300000000 1.0
C      1  0.5003010000000  0.5259420000000  0.4819950000000 1.0
C      1  0.4194560000000  0.4540650000000  0.4614910000000 1.0
C      1  0.5364870000000  0.4640900000000  0.4018650000000 1.0
C      1  0.4747050000000  0.4486040000000  0.5718470000000 1.0
C      1  0.5614140000000  0.5442070000000  0.4500520000000 1.0
C      1  0.5825010000000  0.5553780000000  0.5313400000000 1.0
C      1  0.5314800000000  0.5655800000000  0.5133420000000 1.0
C      1  0.4728700000000  0.4564500000000  0.4750590000000 1.0
C      1  0.4945990000000  0.6010130000000  0.5109410000000 1.0
C      1  0.4883130000000  0.4798180000000  0.6094630000000 1.0
C      1  0.5219540000000  0.4662910000000  0.4813480000000 1.0
C      1  0.4494510000000  0.5004350000000  0.4803090000000 1.0
C      1  0.5304230000000  0.4030670000000  0.5565400000000 1.0
C      1  0.4968930000000  0.5950190000000  0.4602630000000 1.0
C      1  0.4719610000000  0.5786540000000  0.4867740000000 1.0
C      1  0.5533660000000  0.4201280000000  0.5394190000000 1.0
C      1  0.4671410000000  0.5179370000000  0.5294830000000 1.0
C      1  0.4510110000000  0.4558540000000  0.4527620000000 1.0
C      1  0.4406280000000  0.5419000000000  0.5785190000000 1.0
C      1  0.4321010000000  0.5980970000000  0.5114280000000 1.0
C      1  0.4262250000000  0.5060130000000  0.4576480000000 1.0
C      1  0.4960610000000  0.5174750000000  0.4536700000000 1.0
C      1  0.5258030000000  0.5474530000000  0.4890790000000 1.0
C      1  0.4598960000000  0.4719190000000  0.5555700000000 1.0
C      1  0.4120960000000  0.5490140000000  0.5348920000000 1.0
C      1  0.5088240000000  0.5062050000000  0.5788560000000 1.0
C      1  0.5654110000000  0.5414970000000  0.4897460000000 1.0
C      1  0.5064520000000  0.3963990000000  0.5411350000000 1.0
C      1  0.5521690000000  0.4461840000000  0.4162020000000 1.0
C      1  0.5328530000000  0.4923130000000  0.5096190000000 1.0
C      1  0.5533870000000  0.4077030000000  0.4910360000000 1.0
C      1  0.4677140000000  0.4242090000000  0.5413400000000 1.0
C      1  0.5892710000000  0.4616320000000  0.4756260000000 1.0
C      1  0.4467860000000  0.4944810000000  0.5374280000000 1.0
C      1  0.5901790000000  0.4316360000000  0.5048150000000 1.0
C      1  0.5069110000000  0.4648640000000  0.3991280000000 1.0
C      1  0.5373990000000  0.4952810000000  0.5940210000000 1.0
C      1  0.5198010000000  0.4487240000000  0.5068990000000 1.0
C      1  0.4116370000000  0.5714990000000  0.5090770000000 1.0
C      1  0.4274320000000  0.4778470000000  0.4154990000000 1.0
C      1  0.4966720000000  0.4106820000000  0.4855390000000 1.0
C      1  0.5456640000000  0.5211110000000  0.5764850000000 1.0
C      1  0.5075200000000  0.6032840000000  0.4860560000000 1.0
C      1  0.5224930000000  0.4843430000000  0.4460480000000 1.0
C      1  0.5411560000000  0.5591330000000  0.4635520000000 1.0
C      1  0.4900090000000  0.5135080000000  0.5514340000000 1.0
C      1  0.5490640000000  0.4177650000000  0.4641360000000 1.0
C      1  0.4965010000000  0.4911260000000  0.5261940000000 1.0
C      1  0.4950570000000  0.4366320000000  0.5274680000000 1.0
C      1  0.4551830000000  0.4532870000000  0.5105270000000 1.0
C      1  0.4175800000000  0.4538520000000  0.4935330000000 1.0
C      1  0.4132920000000  0.5323120000000  0.4578530000000 1.0
C      1  0.5315300000000  0.4910890000000  0.4166090000000 1.0
C      1  0.5094400000000  0.4106780000000  0.5127320000000 1.0
C      1  0.5598790000000  0.5125230000000  0.5534060000000 1.0
C      1  0.4275740000000  0.4539000000000  0.4292060000000 1.0
C      1  0.5450470000000  0.4899440000000  0.4716030000000 1.0
C      1  0.5126680000000  0.4836770000000  0.6115780000000 1.0
C      1  0.4133390000000  0.4835930000000  0.4769330000000 1.0
C      1  0.5281850000000  0.5640500000000  0.5401500000000 1.0
C      1  0.5925240000000  0.5003980000000  0.5070670000000 1.0
C      1  0.4998030000000  0.5787690000000  0.4383850000000 1.0
C      1  0.4913460000000  0.4505870000000  0.4207270000000 1.0
C      1  0.4629450000000  0.5965460000000  0.5226200000000 1.0
C      1  0.4791830000000  0.4823510000000  0.4215370000000 1.0
C      1  0.5775010000000  0.5310650000000  0.5426640000000 1.0
C      1  0.4322780000000  0.5748920000000  0.5364230000000 1.0
C      1  0.4676200000000  0.4046700000000  0.4693790000000 1.0
C      1  0.4936090000000  0.4942510000000  0.3934870000000 1.0
C      1  0.4298900000000  0.5548170000000  0.4250460000000 1.0
C      1  0.4691350000000  0.4295580000000  0.4908340000000 1.0
C      1  0.4835980000000  0.5090340000000  0.5010800000000 1.0
C      1  0.4525240000000  0.5471900000000  0.4123870000000 1.0
C      1  0.4461100000000  0.5219150000000  0.5042910000000 1.0
C      1  0.5669180000000  0.4844100000000  0.5808290000000 1.0
C      1  0.4200230000000  0.5042560000000  0.5555690000000 1.0
C      1  0.4794170000000  0.4000930000000  0.5504770000000 1.0
C      1  0.5317980000000  0.5455030000000  0.5749310000000 1.0
C      1  0.5504850000000  0.5876400000000  0.5053130000000 1.0
C      1  0.4164460000000  0.4537460000000  0.5203950000000 1.0
C      1  0.5149190000000  0.4192520000000  0.4605940000000 1.0
C      1  0.4799630000000  0.5137260000000  0.5901070000000 1.0
C      1  0.5856310000000  0.4817250000000  0.5600370000000 1.0
C      1  0.5794640000000  0.4314460000000  0.4724190000000 1.0
C      1  0.4089920000000  0.4822920000000  0.5333470000000 1.0
C      1  0.5964670000000  0.4785850000000  0.5328690000000 1.0
C      1  0.4842080000000  0.5139580000000  0.4297160000000 1.0
C      1  0.5424980000000  0.5873360000000  0.4599500000000 1.0
C      1  0.4776000000000  0.5532440000000  0.5395730000000 1.0
C      1  0.4639390000000  0.4877230000000  0.4520100000000 1.0
C      1  0.5786360000000  0.4127870000000  0.5214960000000 1.0
C      1  0.5486680000000  0.4840920000000  0.5453350000000 1.0
C      1  0.4634170000000  0.6005000000000  0.5536270000000 1.0
C      1  0.5218090000000  0.4659410000000  0.5684020000000 1.0
C      1  0.5200180000000  0.4983260000000  0.5481860000000 1.0
C      1  0.4161250000000  0.5319560000000  0.5077200000000 1.0
C      1  0.5636600000000  0.5102510000000  0.4916320000000 1.0
C      1  0.4098260000000  0.5528910000000  0.4833270000000 1.0
C      1  0.5708400000000  0.5639720000000  0.5069410000000 1.0
C      1  0.5680830000000  0.4470250000000  0.4451240000000 1.0
C      1  0.5254940000000  0.5390050000000  0.4140500000000 1.0
C      1  0.4411510000000  0.4826180000000  0.5080790000000 1.0
C      1  0.5516560000000  0.4729020000000  0.5071360000000 1.0
C      1  0.4998320000000  0.4420370000000  0.5585640000000 1.0
C      1  0.5368390000000  0.6018930000000  0.4840030000000 1.0
C      1  0.4494750000000  0.6021280000000  0.4855820000000 1.0
C      1  0.4855570000000  0.5801520000000  0.5680100000000 1.0
C      1  0.4347740000000  0.4879860000000  0.5815880000000 1.0
C      1  0.5574310000000  0.5045220000000  0.4247310000000 1.0
C      1  0.6029180000000  0.4525050000000  0.5206400000000 1.0
C      1  0.5522250000000  0.5327670000000  0.4258430000000 1.0
C      1  0.4790560000000  0.5005560000000  0.3708830000000 1.0
END
