TITL C-2778437-8639-130 -0.00813139704755726 125000 -713.474903771393 0 0 121 (C1) n - 1
REM
REM in /home/nfs/bkarasulu/CARBON/AIRSS/Generating-Clusters/REBO/Only-C1/SD-CG/HFTN-CG
REM
REM
REM
REM
REM
REM ./C.cell (11c1c37f851c82e70ff6c80c92926a4b)
REM
REM compiler GCC version 9.2.1 20190827 (Red Hat 9.2.1-1)
REM options -cpp -mtune=generic -march=x86-64 -g -O0 -fpre-include=/usr/include/finclude/math-vector-fortran.h
REM seed 826656305 1006678739 -802803520 1844980770 591693887 -408297558 -1536448623 -1158592400 -715291352 505257308 -877640907 -909043252 -2066966098 -1765778535 -400578833 1162734951 -2131004226 1402750765 -701199476 1311843144 821679996 1169426238 1030242258 312064422 -1867390369 708695674 -80897825 -776480422 -1908759163 892212847 598119854 -2084005014 1093424920
REM
CELL 1.54180   50.00000   50.00000   50.00000   90.00000   90.00000   90.00000
LATT -1
SFAC C  
C      1  0.4640430000000  0.4393610000000  0.5151620000000 1.0
C      1  0.5031590000000  0.4960810000000  0.5113530000000 1.0
C      1  0.5359360000000  0.4231430000000  0.5473450000000 1.0
C      1  0.5915190000000  0.5293630000000  0.5062430000000 1.0
C      1  0.5880590000000  0.4781170000000  0.5026170000000 1.0
C      1  0.4883700000000  0.4596340000000  0.5411880000000 1.0
C      1  0.4729510000000  0.5404230000000  0.4149360000000 1.0
C      1  0.4667910000000  0.5604390000000  0.4799600000000 1.0
C      1  0.4998870000000  0.5595140000000  0.4238290000000 1.0
C      1  0.5156580000000  0.4721540000000  0.4739150000000 1.0
C      1  0.5084810000000  0.5278180000000  0.4776440000000 1.0
C      1  0.5422660000000  0.4653220000000  0.5707040000000 1.0
C      1  0.4953300000000  0.4684520000000  0.4390160000000 1.0
C      1  0.5742370000000  0.5400880000000  0.5317420000000 1.0
C      1  0.5222580000000  0.5628860000000  0.4489580000000 1.0
C      1  0.5128400000000  0.4512400000000  0.4913110000000 1.0
C      1  0.4779830000000  0.5007630000000  0.4931960000000 1.0
C      1  0.5161570000000  0.5518860000000  0.5086440000000 1.0
C      1  0.5037780000000  0.5066210000000  0.5415890000000 1.0
C      1  0.5088120000000  0.4691880000000  0.5267680000000 1.0
C      1  0.4051890000000  0.5300110000000  0.5136480000000 1.0
C      1  0.5352020000000  0.5638740000000  0.5539630000000 1.0
C      1  0.5227670000000  0.5100000000000  0.5680630000000 1.0
C      1  0.4404540000000  0.4986600000000  0.5513480000000 1.0
C      1  0.4858280000000  0.4079250000000  0.4969440000000 1.0
C      1  0.5162160000000  0.4317110000000  0.4565810000000 1.0
C      1  0.4511970000000  0.5265810000000  0.5260980000000 1.0
C      1  0.4294670000000  0.5538560000000  0.4460250000000 1.0
C      1  0.5730940000000  0.4560470000000  0.5180590000000 1.0
C      1  0.5231400000000  0.5351070000000  0.4204480000000 1.0
C      1  0.5138710000000  0.4615760000000  0.5729950000000 1.0
C      1  0.4737440000000  0.5057480000000  0.5513710000000 1.0
C      1  0.4370610000000  0.5667950000000  0.5058090000000 1.0
C      1  0.4216480000000  0.5243330000000  0.5381980000000 1.0
C      1  0.5639220000000  0.5394780000000  0.4936940000000 1.0
C      1  0.5563280000000  0.4426440000000  0.5621500000000 1.0
C      1  0.4765630000000  0.5766860000000  0.4370790000000 1.0
C      1  0.4609180000000  0.4895360000000  0.4220810000000 1.0
C      1  0.4473130000000  0.4682880000000  0.4450080000000 1.0
C      1  0.4701880000000  0.4871160000000  0.5864310000000 1.0
C      1  0.5446660000000  0.4934280000000  0.4913890000000 1.0
C      1  0.4836630000000  0.4476970000000  0.4982350000000 1.0
C      1  0.5197550000000  0.5853320000000  0.5089400000000 1.0
C      1  0.4590680000000  0.5515640000000  0.5187560000000 1.0
C      1  0.5360980000000  0.5082560000000  0.5304750000000 1.0
C      1  0.4431520000000  0.5111360000000  0.4759410000000 1.0
C      1  0.4519340000000  0.5890190000000  0.4914710000000 1.0
C      1  0.5398180000000  0.4608730000000  0.4235060000000 1.0
C      1  0.4044140000000  0.5073150000000  0.4961990000000 1.0
C      1  0.4403980000000  0.4713430000000  0.5799420000000 1.0
C      1  0.5507690000000  0.5569760000000  0.4490150000000 1.0
C      1  0.4352350000000  0.4527950000000  0.4729020000000 1.0
C      1  0.5126230000000  0.5564800000000  0.4748960000000 1.0
C      1  0.5890040000000  0.4694470000000  0.4697410000000 1.0
C      1  0.5792670000000  0.4464700000000  0.5476820000000 1.0
C      1  0.5602020000000  0.5320560000000  0.4328230000000 1.0
C      1  0.4833540000000  0.5816950000000  0.4646520000000 1.0
C      1  0.4789850000000  0.5195500000000  0.5793080000000 1.0
C      1  0.5113340000000  0.4066170000000  0.5112080000000 1.0
C      1  0.4941020000000  0.5204180000000  0.4289050000000 1.0
C      1  0.5262490000000  0.5401230000000  0.5756220000000 1.0
C      1  0.4642660000000  0.4535720000000  0.5899690000000 1.0
C      1  0.5342760000000  0.5187710000000  0.4486090000000 1.0
C      1  0.4253940000000  0.4928060000000  0.4530790000000 1.0
C      1  0.5119820000000  0.5008090000000  0.4073690000000 1.0
C      1  0.5447300000000  0.5095830000000  0.4115960000000 1.0
C      1  0.5804270000000  0.4804490000000  0.4386290000000 1.0
C      1  0.5350600000000  0.4526900000000  0.5298110000000 1.0
C      1  0.5679900000000  0.5021820000000  0.5425450000000 1.0
C      1  0.5758760000000  0.5357860000000  0.5627080000000 1.0
C      1  0.4547430000000  0.5170040000000  0.4226540000000 1.0
C      1  0.4868300000000  0.4293360000000  0.4703070000000 1.0
C      1  0.4686230000000  0.4304820000000  0.5695510000000 1.0
C      1  0.4491260000000  0.4361400000000  0.5448360000000 1.0
C      1  0.5168410000000  0.4510460000000  0.4366190000000 1.0
C      1  0.6157500000000  0.5357570000000  0.4951500000000 1.0
C      1  0.5866870000000  0.5016170000000  0.5198840000000 1.0
C      1  0.5130050000000  0.5753780000000  0.5408190000000 1.0
C      1  0.5089980000000  0.4081400000000  0.5431790000000 1.0
C      1  0.5403820000000  0.4306740000000  0.4710820000000 1.0
C      1  0.5592620000000  0.5655860000000  0.5418990000000 1.0
C      1  0.5613150000000  0.4490540000000  0.4666860000000 1.0
C      1  0.4882700000000  0.4831700000000  0.4157780000000 1.0
C      1  0.5242080000000  0.4942630000000  0.4559610000000 1.0
C      1  0.5325860000000  0.4255600000000  0.5005290000000 1.0
C      1  0.5479010000000  0.4788860000000  0.5177860000000 1.0
C      1  0.4894480000000  0.5656190000000  0.5553060000000 1.0
C      1  0.4885800000000  0.5151130000000  0.4574770000000 1.0
C      1  0.4988530000000  0.4357520000000  0.5601900000000 1.0
C      1  0.4635650000000  0.4765740000000  0.5395630000000 1.0
C      1  0.4487970000000  0.5704760000000  0.4340500000000 1.0
C      1  0.5582230000000  0.4808470000000  0.4717160000000 1.0
C      1  0.5599420000000  0.5620330000000  0.4766800000000 1.0
C      1  0.5019730000000  0.5977490000000  0.4833580000000 1.0
C      1  0.4650280000000  0.4088350000000  0.5203530000000 1.0
C      1  0.4358300000000  0.5234060000000  0.4449130000000 1.0
C      1  0.4303590000000  0.4904200000000  0.4996950000000 1.0
C      1  0.4686900000000  0.5307610000000  0.4794090000000 1.0
C      1  0.4043040000000  0.5151200000000  0.4680200000000 1.0
C      1  0.4633470000000  0.4385140000000  0.4495870000000 1.0
C      1  0.4942850000000  0.5440100000000  0.5753080000000 1.0
C      1  0.4763660000000  0.4057180000000  0.5474260000000 1.0
C      1  0.5475620000000  0.5839730000000  0.4909520000000 1.0
C      1  0.5581360000000  0.4825690000000  0.4225010000000 1.0
C      1  0.5564970000000  0.4278120000000  0.5206020000000 1.0
C      1  0.4848610000000  0.5633360000000  0.5154140000000 1.0
C      1  0.5414030000000  0.5358700000000  0.5157940000000 1.0
C      1  0.4111410000000  0.5443870000000  0.4682720000000 1.0
C      1  0.4283370000000  0.4611790000000  0.4982050000000 1.0
C      1  0.4135370000000  0.5526100000000  0.4969940000000 1.0
C      1  0.4555560000000  0.4192860000000  0.4325060000000 1.0
C      1  0.5009050000000  0.4871240000000  0.5766480000000 1.0
C      1  0.5222820000000  0.5092470000000  0.4929550000000 1.0
C      1  0.4294210000000  0.4606000000000  0.5559280000000 1.0
C      1  0.5581090000000  0.5406580000000  0.5797550000000 1.0
C      1  0.4803850000000  0.5895910000000  0.5036590000000 1.0
C      1  0.4866180000000  0.4844220000000  0.4651040000000 1.0
C      1  0.4563140000000  0.4986120000000  0.5146870000000 1.0
C      1  0.5490300000000  0.4928750000000  0.5649310000000 1.0
C      1  0.4142010000000  0.5083250000000  0.5672740000000 1.0
C      1  0.4268640000000  0.4507820000000  0.5240100000000 1.0
END
