TITL C-2778430-5657-1118 -0.00589368383526326 125000 -394.544339753915 0 0 69 (C1) n - 1
REM
REM in /home/nfs/bkarasulu/CARBON/AIRSS/Generating-Clusters/REBO/Only-C1/SD-CG/HFTN-CG
REM
REM
REM
REM
REM
REM ./C.cell (11c1c37f851c82e70ff6c80c92926a4b)
REM
REM compiler GCC version 9.2.1 20190827 (Red Hat 9.2.1-1)
REM options -cpp -mtune=generic -march=x86-64 -g -O0 -fpre-include=/usr/include/finclude/math-vector-fortran.h
REM seed 1662117371 -1575806851 -978659374 1061108428 -1594177223 513973872 -1447790987 1660303973 -1632396411 -1541813526 1239524120 816753657 -1663778721 -307178185 2065086034 737989403 48197701 1752378899 86058793 1027847339 -417402268 1069445241 1997217105 -1012303943 -1562344366 1183623212 491917149 921122710 -2064574559 -1224434505 -452774692 953755276 -1155959432
REM
CELL 1.54180   50.00000   50.00000   50.00000   90.00000   90.00000   90.00000
LATT -1
SFAC C  
C      1  0.4435080000000  0.4973330000000  0.5724840000000 1.0
C      1  0.4916270000000  0.5147700000000  0.5814430000000 1.0
C      1  0.4365190000000  0.4552750000000  0.4789750000000 1.0
C      1  0.4933590000000  0.4658360000000  0.4791030000000 1.0
C      1  0.4579220000000  0.4404410000000  0.4918300000000 1.0
C      1  0.4891240000000  0.4823140000000  0.5791230000000 1.0
C      1  0.4597910000000  0.5025480000000  0.5089630000000 1.0
C      1  0.4481650000000  0.5468210000000  0.4641420000000 1.0
C      1  0.4693860000000  0.4537340000000  0.5193530000000 1.0
C      1  0.4840520000000  0.5550820000000  0.5564830000000 1.0
C      1  0.5164360000000  0.5946780000000  0.4815840000000 1.0
C      1  0.5407180000000  0.4425440000000  0.4640700000000 1.0
C      1  0.4463860000000  0.5256870000000  0.5684520000000 1.0
C      1  0.4688610000000  0.4815960000000  0.5316090000000 1.0
C      1  0.5087700000000  0.4310470000000  0.4669720000000 1.0
C      1  0.5646340000000  0.4831660000000  0.4521760000000 1.0
C      1  0.4576360000000  0.5312340000000  0.4910780000000 1.0
C      1  0.5227400000000  0.5676000000000  0.5253400000000 1.0
C      1  0.4924030000000  0.5061110000000  0.5313360000000 1.0
C      1  0.5581840000000  0.5626610000000  0.4773010000000 1.0
C      1  0.5340910000000  0.5016680000000  0.4976090000000 1.0
C      1  0.4973760000000  0.5537010000000  0.4466570000000 1.0
C      1  0.4349310000000  0.5355530000000  0.5444170000000 1.0
C      1  0.5585830000000  0.4659770000000  0.5214560000000 1.0
C      1  0.5424740000000  0.4435200000000  0.5339670000000 1.0
C      1  0.5210250000000  0.5896580000000  0.5079320000000 1.0
C      1  0.5539400000000  0.5084260000000  0.4496270000000 1.0
C      1  0.5043090000000  0.4957220000000  0.4821980000000 1.0
C      1  0.5026240000000  0.4317110000000  0.5578500000000 1.0
C      1  0.5319260000000  0.5224180000000  0.4714490000000 1.0
C      1  0.5521870000000  0.4770350000000  0.4974730000000 1.0
C      1  0.4901270000000  0.4327070000000  0.5330530000000 1.0
C      1  0.5469180000000  0.5494950000000  0.5232470000000 1.0
C      1  0.4948660000000  0.5301250000000  0.5162950000000 1.0
C      1  0.4921530000000  0.5134020000000  0.4109920000000 1.0
C      1  0.4796680000000  0.4536800000000  0.4503650000000 1.0
C      1  0.4972570000000  0.4468460000000  0.5024610000000 1.0
C      1  0.4730620000000  0.5355540000000  0.5744970000000 1.0
C      1  0.5576580000000  0.5293800000000  0.5483750000000 1.0
C      1  0.5256450000000  0.4486950000000  0.5583170000000 1.0
C      1  0.4116170000000  0.4450810000000  0.4754410000000 1.0
C      1  0.4773970000000  0.4300400000000  0.4722400000000 1.0
C      1  0.5091720000000  0.5069530000000  0.5557690000000 1.0
C      1  0.4320610000000  0.4955750000000  0.4498470000000 1.0
C      1  0.4195520000000  0.5101800000000  0.4320420000000 1.0
C      1  0.4809890000000  0.5417620000000  0.4688950000000 1.0
C      1  0.5186560000000  0.4523370000000  0.4440410000000 1.0
C      1  0.5137520000000  0.5805170000000  0.4591410000000 1.0
C      1  0.5405520000000  0.5009200000000  0.5529830000000 1.0
C      1  0.5226400000000  0.4309360000000  0.5098710000000 1.0
C      1  0.5458620000000  0.4121900000000  0.5209620000000 1.0
C      1  0.4705570000000  0.4898710000000  0.4823730000000 1.0
C      1  0.4922690000000  0.5386220000000  0.4203840000000 1.0
C      1  0.5393120000000  0.5163460000000  0.5225190000000 1.0
C      1  0.4967770000000  0.4623820000000  0.4260470000000 1.0
C      1  0.5203810000000  0.4767760000000  0.5663150000000 1.0
C      1  0.4939970000000  0.4864690000000  0.4121290000000 1.0
C      1  0.5932470000000  0.5627620000000  0.5112140000000 1.0
C      1  0.5295280000000  0.5521140000000  0.4544560000000 1.0
C      1  0.4987000000000  0.5536140000000  0.5320130000000 1.0
C      1  0.5018510000000  0.5272830000000  0.4871540000000 1.0
C      1  0.5576000000000  0.4644900000000  0.4723940000000 1.0
C      1  0.4293280000000  0.5562570000000  0.4495930000000 1.0
C      1  0.4936670000000  0.4179860000000  0.5794370000000 1.0
C      1  0.5671010000000  0.5586990000000  0.5031850000000 1.0
C      1  0.4645680000000  0.4803830000000  0.5629690000000 1.0
C      1  0.4423560000000  0.5289980000000  0.5198570000000 1.0
C      1  0.4452400000000  0.4801880000000  0.4686040000000 1.0
C      1  0.5502330000000  0.5345180000000  0.4380680000000 1.0
END
