TITL C-2778436-5916-566 -0.0111268617635802 125000 -1051.12602474533 0 0 178 (C1) n - 1
REM
REM in /home/nfs/bkarasulu/CARBON/AIRSS/Generating-Clusters/REBO/Only-C1/SD-CG/HFTN-CG
REM
REM
REM
REM
REM
REM ./C.cell (11c1c37f851c82e70ff6c80c92926a4b)
REM
REM compiler GCC version 9.2.1 20190827 (Red Hat 9.2.1-1)
REM options -cpp -mtune=generic -march=x86-64 -g -O0 -fpre-include=/usr/include/finclude/math-vector-fortran.h
REM seed 1359854186 -1483070182 1891775082 -1078111167 -582382379 -1758958883 2034890163 -1015678878 -1940086083 -2049825938 240035879 1289913859 -1645157108 -864214090 1222729997 -2040048937 115294099 -848795025 -724815223 888209862 -1356632963 -312928722 2024510974 1451906980 925738095 -209583296 -560957409 -1783366866 -1670510783 -1389705778 -14032453 72910995 2104472663
REM
CELL 1.54180   50.00000   50.00000   50.00000   90.00000   90.00000   90.00000
LATT -1
SFAC C  
C      1  0.3817850000000  0.5382510000000  0.4806350000000 1.0
C      1  0.5808300000000  0.5073580000000  0.5800520000000 1.0
C      1  0.4792970000000  0.4630710000000  0.5219090000000 1.0
C      1  0.5795090000000  0.4298580000000  0.5351160000000 1.0
C      1  0.4973310000000  0.4355230000000  0.5443660000000 1.0
C      1  0.5373240000000  0.4672740000000  0.4076660000000 1.0
C      1  0.5658170000000  0.4469420000000  0.5613580000000 1.0
C      1  0.5000000000000  0.4870510000000  0.5603680000000 1.0
C      1  0.4526830000000  0.4728560000000  0.4105390000000 1.0
C      1  0.4826100000000  0.5734930000000  0.5559180000000 1.0
C      1  0.4617630000000  0.5946230000000  0.5401290000000 1.0
C      1  0.5331340000000  0.5276250000000  0.5928780000000 1.0
C      1  0.5809550000000  0.4655990000000  0.4869880000000 1.0
C      1  0.4798090000000  0.4540510000000  0.4109820000000 1.0
C      1  0.4556270000000  0.4161690000000  0.4564860000000 1.0
C      1  0.5157600000000  0.5779450000000  0.4817940000000 1.0
C      1  0.4922590000000  0.5687960000000  0.4220060000000 1.0
C      1  0.5422440000000  0.5080930000000  0.4870410000000 1.0
C      1  0.5193050000000  0.5827530000000  0.4376380000000 1.0
C      1  0.3870090000000  0.4893400000000  0.4627660000000 1.0
C      1  0.5653290000000  0.5332480000000  0.4890940000000 1.0
C      1  0.5286760000000  0.5775510000000  0.5728190000000 1.0
C      1  0.4242730000000  0.5192060000000  0.4607570000000 1.0
C      1  0.5066210000000  0.3896770000000  0.5252430000000 1.0
C      1  0.4593770000000  0.5578000000000  0.5755560000000 1.0
C      1  0.4931560000000  0.3864960000000  0.4990180000000 1.0
C      1  0.4771790000000  0.5279530000000  0.4445250000000 1.0
C      1  0.4827230000000  0.4906130000000  0.5343180000000 1.0
C      1  0.4275770000000  0.5515440000000  0.5377320000000 1.0
C      1  0.4546740000000  0.5021800000000  0.5418590000000 1.0
C      1  0.5231800000000  0.5077560000000  0.5673290000000 1.0
C      1  0.5791640000000  0.5034640000000  0.4262830000000 1.0
C      1  0.5450350000000  0.4632830000000  0.5102550000000 1.0
C      1  0.4898710000000  0.4498880000000  0.5892620000000 1.0
C      1  0.5993830000000  0.4922790000000  0.4456080000000 1.0
C      1  0.5720680000000  0.4492970000000  0.4437430000000 1.0
C      1  0.5104450000000  0.4734980000000  0.5963400000000 1.0
C      1  0.4794200000000  0.4075330000000  0.5351740000000 1.0
C      1  0.5936490000000  0.5468530000000  0.5414830000000 1.0
C      1  0.4645640000000  0.5867050000000  0.4661200000000 1.0
C      1  0.5883650000000  0.5795460000000  0.4854160000000 1.0
C      1  0.4875380000000  0.5919850000000  0.4460500000000 1.0
C      1  0.4611610000000  0.4847960000000  0.4482940000000 1.0
C      1  0.5399120000000  0.4191370000000  0.4297970000000 1.0
C      1  0.5696720000000  0.4056940000000  0.5134960000000 1.0
C      1  0.5719890000000  0.5475160000000  0.5644280000000 1.0
C      1  0.4225840000000  0.5871490000000  0.4999520000000 1.0
C      1  0.4528180000000  0.5309420000000  0.5287640000000 1.0
C      1  0.4022780000000  0.4728080000000  0.4874200000000 1.0
C      1  0.5076060000000  0.5258480000000  0.4960410000000 1.0
C      1  0.5200510000000  0.5950900000000  0.5276400000000 1.0
C      1  0.4319950000000  0.4847360000000  0.5303760000000 1.0
C      1  0.4909680000000  0.4848630000000  0.4336450000000 1.0
C      1  0.5232000000000  0.5051560000000  0.5334690000000 1.0
C      1  0.5155160000000  0.4081940000000  0.5519160000000 1.0
C      1  0.4619320000000  0.4087620000000  0.5101550000000 1.0
C      1  0.5835950000000  0.5349750000000  0.4646050000000 1.0
C      1  0.5505180000000  0.4976960000000  0.4114220000000 1.0
C      1  0.4651640000000  0.4547870000000  0.5758610000000 1.0
C      1  0.4960520000000  0.5398490000000  0.5750890000000 1.0
C      1  0.4581360000000  0.4895430000000  0.4795810000000 1.0
C      1  0.5134130000000  0.4180010000000  0.4748670000000 1.0
C      1  0.5076660000000  0.4575350000000  0.4742250000000 1.0
C      1  0.5995930000000  0.4492870000000  0.5181240000000 1.0
C      1  0.5402020000000  0.4573470000000  0.4813890000000 1.0
C      1  0.4323380000000  0.4683790000000  0.4738140000000 1.0
C      1  0.5036570000000  0.5190460000000  0.4639300000000 1.0
C      1  0.5041660000000  0.4737980000000  0.4037430000000 1.0
C      1  0.5554690000000  0.5087080000000  0.5279280000000 1.0
C      1  0.5919120000000  0.5656860000000  0.4604620000000 1.0
C      1  0.4310290000000  0.5200570000000  0.4276970000000 1.0
C      1  0.4894840000000  0.5724820000000  0.4809180000000 1.0
C      1  0.5675160000000  0.4836800000000  0.5130840000000 1.0
C      1  0.4670490000000  0.4541320000000  0.4427580000000 1.0
C      1  0.5514940000000  0.5844160000000  0.5196500000000 1.0
C      1  0.4309850000000  0.4185450000000  0.4992240000000 1.0
C      1  0.5039350000000  0.5081760000000  0.4041680000000 1.0
C      1  0.5487910000000  0.5264260000000  0.5550380000000 1.0
C      1  0.4378600000000  0.3868320000000  0.5090040000000 1.0
C      1  0.3936470000000  0.5425840000000  0.5062090000000 1.0
C      1  0.4332480000000  0.4889450000000  0.4333910000000 1.0
C      1  0.5360680000000  0.5558850000000  0.5252710000000 1.0
C      1  0.4320620000000  0.4459190000000  0.5399490000000 1.0
C      1  0.4373910000000  0.4702900000000  0.5074080000000 1.0
C      1  0.4641830000000  0.5683720000000  0.5211980000000 1.0
C      1  0.4494630000000  0.5112190000000  0.5010200000000 1.0
C      1  0.5468440000000  0.4136790000000  0.5500360000000 1.0
C      1  0.4428540000000  0.5716470000000  0.5547480000000 1.0
C      1  0.5607630000000  0.5302460000000  0.4162730000000 1.0
C      1  0.4785900000000  0.4081180000000  0.5664270000000 1.0
C      1  0.5053810000000  0.4231250000000  0.5812550000000 1.0
C      1  0.6035420000000  0.5236260000000  0.5605690000000 1.0
C      1  0.6065060000000  0.5129810000000  0.4647060000000 1.0
C      1  0.4065830000000  0.5656420000000  0.5182840000000 1.0
C      1  0.4717560000000  0.6064110000000  0.5121580000000 1.0
C      1  0.5874540000000  0.5353090000000  0.5117150000000 1.0
C      1  0.4059310000000  0.4819300000000  0.5456040000000 1.0
C      1  0.4821320000000  0.4911620000000  0.5860220000000 1.0
C      1  0.5374560000000  0.4326420000000  0.5745280000000 1.0
C      1  0.5411640000000  0.5790010000000  0.4718170000000 1.0
C      1  0.4648840000000  0.4439340000000  0.5435290000000 1.0
C      1  0.5051150000000  0.5411530000000  0.4307420000000 1.0
C      1  0.5248910000000  0.4644700000000  0.4391140000000 1.0
C      1  0.5319650000000  0.5306940000000  0.4489500000000 1.0
C      1  0.4973910000000  0.4855100000000  0.4651580000000 1.0
C      1  0.5476780000000  0.4366610000000  0.5249550000000 1.0
C      1  0.4828990000000  0.4123660000000  0.4851600000000 1.0
C      1  0.5145130000000  0.5031800000000  0.6060070000000 1.0
C      1  0.4253200000000  0.4960260000000  0.5679790000000 1.0
C      1  0.4107830000000  0.4720800000000  0.4485250000000 1.0
C      1  0.4407040000000  0.5698850000000  0.4246230000000 1.0
C      1  0.4808360000000  0.5542340000000  0.5001470000000 1.0
C      1  0.3960990000000  0.4544570000000  0.5099870000000 1.0
C      1  0.5724230000000  0.4965020000000  0.4760040000000 1.0
C      1  0.4716070000000  0.4404300000000  0.4723140000000 1.0
C      1  0.5633220000000  0.5304580000000  0.5918730000000 1.0
C      1  0.5757550000000  0.4973740000000  0.5495450000000 1.0
C      1  0.4180000000000  0.5195310000000  0.5443630000000 1.0
C      1  0.4380230000000  0.4646040000000  0.5643150000000 1.0
C      1  0.4519430000000  0.5377650000000  0.4590160000000 1.0
C      1  0.5371440000000  0.4835520000000  0.4637660000000 1.0
C      1  0.5097790000000  0.5867870000000  0.5534270000000 1.0
C      1  0.5200660000000  0.5444150000000  0.5523200000000 1.0
C      1  0.5387680000000  0.3980880000000  0.5210180000000 1.0
C      1  0.5134730000000  0.4599230000000  0.5492390000000 1.0
C      1  0.4174010000000  0.4373680000000  0.5178640000000 1.0
C      1  0.4708160000000  0.4093600000000  0.4335180000000 1.0
C      1  0.5541120000000  0.4432550000000  0.4219650000000 1.0
C      1  0.4548930000000  0.5067750000000  0.5755490000000 1.0
C      1  0.5221280000000  0.4234900000000  0.5064970000000 1.0
C      1  0.5496380000000  0.5662060000000  0.5547870000000 1.0
C      1  0.4191350000000  0.4408240000000  0.4480880000000 1.0
C      1  0.5126550000000  0.6096070000000  0.4576770000000 1.0
C      1  0.4456320000000  0.5673600000000  0.4524610000000 1.0
C      1  0.4811450000000  0.5413250000000  0.5445560000000 1.0
C      1  0.6012330000000  0.4829360000000  0.5166340000000 1.0
C      1  0.4558620000000  0.5378670000000  0.4887960000000 1.0
C      1  0.5820860000000  0.5685220000000  0.5173520000000 1.0
C      1  0.4405580000000  0.4411300000000  0.4291090000000 1.0
C      1  0.5631840000000  0.4785590000000  0.5742010000000 1.0
C      1  0.5801790000000  0.4326010000000  0.4954330000000 1.0
C      1  0.5549410000000  0.5089540000000  0.4495230000000 1.0
C      1  0.5963840000000  0.5081340000000  0.4968550000000 1.0
C      1  0.4520960000000  0.6002620000000  0.4915000000000 1.0
C      1  0.4189860000000  0.5023250000000  0.4901740000000 1.0
C      1  0.5036800000000  0.4939360000000  0.4950050000000 1.0
C      1  0.4289960000000  0.4228340000000  0.4690460000000 1.0
C      1  0.3857810000000  0.4682280000000  0.5324720000000 1.0
C      1  0.4567970000000  0.5012360000000  0.4036190000000 1.0
C      1  0.5402280000000  0.4151960000000  0.4575930000000 1.0
C      1  0.5699680000000  0.5508420000000  0.4386500000000 1.0
C      1  0.5336650000000  0.4653100000000  0.5761320000000 1.0
C      1  0.4647030000000  0.5325000000000  0.6165520000000 1.0
C      1  0.5356310000000  0.5379700000000  0.5022180000000 1.0
C      1  0.4412360000000  0.5405130000000  0.4116990000000 1.0
C      1  0.5012130000000  0.6077480000000  0.5087500000000 1.0
C      1  0.5602680000000  0.5872580000000  0.4897820000000 1.0
C      1  0.5908560000000  0.4675570000000  0.4556860000000 1.0
C      1  0.5090730000000  0.4378100000000  0.4474490000000 1.0
C      1  0.5111820000000  0.6175880000000  0.4835030000000 1.0
C      1  0.5028480000000  0.4484250000000  0.5037970000000 1.0
C      1  0.4528880000000  0.5345990000000  0.5892400000000 1.0
C      1  0.3926330000000  0.5176840000000  0.4643400000000 1.0
C      1  0.5192530000000  0.5572770000000  0.5900460000000 1.0
C      1  0.5171360000000  0.4758300000000  0.5203110000000 1.0
C      1  0.4421920000000  0.5630040000000  0.5019000000000 1.0
C      1  0.5288100000000  0.5308510000000  0.4091420000000 1.0
C      1  0.4905110000000  0.4271120000000  0.4255090000000 1.0
C      1  0.4664350000000  0.5629360000000  0.4072390000000 1.0
C      1  0.5596180000000  0.4362970000000  0.4701550000000 1.0
C      1  0.4072450000000  0.5185600000000  0.5154570000000 1.0
C      1  0.4767000000000  0.5167350000000  0.4138910000000 1.0
C      1  0.5419910000000  0.5628470000000  0.4455730000000 1.0
C      1  0.4665440000000  0.4609920000000  0.4929030000000 1.0
C      1  0.4891480000000  0.5208540000000  0.5980330000000 1.0
C      1  0.4945820000000  0.5198460000000  0.5249410000000 1.0
C      1  0.5868980000000  0.4676630000000  0.5440730000000 1.0
C      1  0.5228040000000  0.4971910000000  0.4295000000000 1.0
END
