TITL C-2778422-5617-87 0.00112545523730014 125000 -1011.07882124966 0 0 174 (C1) n - 1
REM
REM in /home/nfs/bkarasulu/CARBON/AIRSS/Generating-Clusters/REBO/Only-C1/SD-CG/HFTN-CG
REM
REM
REM
REM
REM
REM ./C.cell (11c1c37f851c82e70ff6c80c92926a4b)
REM
REM compiler GCC version 9.2.1 20190827 (Red Hat 9.2.1-1)
REM options -cpp -mtune=generic -march=x86-64 -g -O0 -fpre-include=/usr/include/finclude/math-vector-fortran.h
REM seed -750921755 -972398125 -1719558146 1112324924 -776277793 410425092 477455586 -965288356 1303872257 -181968861 -1128145279 -1903189914 1612033865 -162140386 763192221 -1861514340 -1501094249 804645435 -1522688273 -959405455 1720972835 1075020687 1844387405 1907921021 812054657 -891494021 581150635 2113985868 1293444905 -482771484 702039815 82763512 409346345
REM
CELL 1.54180   50.00000   50.00000   50.00000   90.00000   90.00000   90.00000
LATT -1
SFAC C  
C      1  0.5241370000000  0.5611880000000  0.5871690000000 1.0
C      1  0.4401130000000  0.5308790000000  0.5270660000000 1.0
C      1  0.5081950000000  0.5445840000000  0.3869250000000 1.0
C      1  0.5963900000000  0.4614480000000  0.4660360000000 1.0
C      1  0.4793090000000  0.5908820000000  0.5497920000000 1.0
C      1  0.4151800000000  0.5919380000000  0.4638300000000 1.0
C      1  0.4958610000000  0.4000280000000  0.5465850000000 1.0
C      1  0.4649550000000  0.5780990000000  0.4743500000000 1.0
C      1  0.5458160000000  0.4679410000000  0.5957610000000 1.0
C      1  0.6041370000000  0.4995430000000  0.4566470000000 1.0
C      1  0.5595060000000  0.4285050000000  0.5387950000000 1.0
C      1  0.5382000000000  0.4249820000000  0.5642250000000 1.0
C      1  0.4705860000000  0.4754050000000  0.3921450000000 1.0
C      1  0.5646480000000  0.4307850000000  0.4936570000000 1.0
C      1  0.5394530000000  0.5109470000000  0.4065240000000 1.0
C      1  0.4448410000000  0.4874010000000  0.3965450000000 1.0
C      1  0.5499830000000  0.5371570000000  0.4245080000000 1.0
C      1  0.6158680000000  0.4466770000000  0.5129390000000 1.0
C      1  0.4123820000000  0.4991070000000  0.4362330000000 1.0
C      1  0.4890970000000  0.5111060000000  0.4552360000000 1.0
C      1  0.5075380000000  0.5286760000000  0.5273620000000 1.0
C      1  0.5077890000000  0.5376240000000  0.5945620000000 1.0
C      1  0.4041610000000  0.4787700000000  0.5543740000000 1.0
C      1  0.4723500000000  0.5714000000000  0.4418410000000 1.0
C      1  0.4394610000000  0.5452490000000  0.4988620000000 1.0
C      1  0.4417260000000  0.4943990000000  0.5871060000000 1.0
C      1  0.5493560000000  0.4965030000000  0.4556630000000 1.0
C      1  0.4806180000000  0.5212580000000  0.4861870000000 1.0
C      1  0.5177470000000  0.4959500000000  0.5937380000000 1.0
C      1  0.6065930000000  0.4941810000000  0.5051640000000 1.0
C      1  0.4358200000000  0.5316230000000  0.5746610000000 1.0
C      1  0.4778100000000  0.4844040000000  0.5240900000000 1.0
C      1  0.5419040000000  0.5157990000000  0.5688620000000 1.0
C      1  0.5521790000000  0.5536270000000  0.5809700000000 1.0
C      1  0.5470220000000  0.4556550000000  0.5651910000000 1.0
C      1  0.4931520000000  0.4976930000000  0.3904240000000 1.0
C      1  0.4333930000000  0.5244930000000  0.4754300000000 1.0
C      1  0.5578520000000  0.4535790000000  0.5176320000000 1.0
C      1  0.4770470000000  0.4216090000000  0.4789250000000 1.0
C      1  0.4559570000000  0.5860830000000  0.5250810000000 1.0
C      1  0.4779930000000  0.4529640000000  0.4114460000000 1.0
C      1  0.5212750000000  0.4172430000000  0.5388730000000 1.0
C      1  0.4548170000000  0.4521690000000  0.4991820000000 1.0
C      1  0.4239150000000  0.4694800000000  0.5718650000000 1.0
C      1  0.4997020000000  0.5978400000000  0.4748900000000 1.0
C      1  0.5073400000000  0.5764910000000  0.5634000000000 1.0
C      1  0.4855150000000  0.5034100000000  0.5580310000000 1.0
C      1  0.5332910000000  0.5354710000000  0.4784040000000 1.0
C      1  0.3882280000000  0.4810320000000  0.5243940000000 1.0
C      1  0.4290290000000  0.4538440000000  0.5179000000000 1.0
C      1  0.6080290000000  0.5178410000000  0.5263070000000 1.0
C      1  0.3979290000000  0.4698960000000  0.4450130000000 1.0
C      1  0.5672080000000  0.5665560000000  0.4673580000000 1.0
C      1  0.4590520000000  0.4853210000000  0.4529520000000 1.0
C      1  0.4825880000000  0.4775630000000  0.5942330000000 1.0
C      1  0.5014030000000  0.5786690000000  0.4945680000000 1.0
C      1  0.4775870000000  0.4473620000000  0.5094780000000 1.0
C      1  0.4880380000000  0.4750180000000  0.4783110000000 1.0
C      1  0.5251100000000  0.5367520000000  0.5556840000000 1.0
C      1  0.5080620000000  0.4605600000000  0.4203710000000 1.0
C      1  0.5760730000000  0.4277720000000  0.4428860000000 1.0
C      1  0.4808220000000  0.4120080000000  0.4472880000000 1.0
C      1  0.5376390000000  0.5934080000000  0.5022870000000 1.0
C      1  0.5146530000000  0.5168840000000  0.3890790000000 1.0
C      1  0.5124380000000  0.4623260000000  0.5904260000000 1.0
C      1  0.4015040000000  0.5589510000000  0.5348660000000 1.0
C      1  0.6021380000000  0.5066010000000  0.5533150000000 1.0
C      1  0.3869750000000  0.5149720000000  0.4769290000000 1.0
C      1  0.4310810000000  0.4990940000000  0.4971250000000 1.0
C      1  0.4590010000000  0.5217460000000  0.5977060000000 1.0
C      1  0.5553430000000  0.4356310000000  0.4271610000000 1.0
C      1  0.4695960000000  0.5495610000000  0.4908460000000 1.0
C      1  0.6075530000000  0.4525590000000  0.5389320000000 1.0
C      1  0.3923270000000  0.5089550000000  0.5433240000000 1.0
C      1  0.4989510000000  0.4405910000000  0.5352700000000 1.0
C      1  0.4997680000000  0.6076050000000  0.5306380000000 1.0
C      1  0.5447930000000  0.4912770000000  0.5185930000000 1.0
C      1  0.5140930000000  0.4143470000000  0.4919620000000 1.0
C      1  0.5877670000000  0.5373660000000  0.4846200000000 1.0
C      1  0.4482480000000  0.4219850000000  0.4452070000000 1.0
C      1  0.4340970000000  0.5050290000000  0.5568860000000 1.0
C      1  0.5294840000000  0.5632780000000  0.4943430000000 1.0
C      1  0.4253390000000  0.4249220000000  0.4676100000000 1.0
C      1  0.5319370000000  0.5082810000000  0.4762690000000 1.0
C      1  0.4591390000000  0.4560980000000  0.6007700000000 1.0
C      1  0.5981510000000  0.5429140000000  0.5156380000000 1.0
C      1  0.5117980000000  0.4139090000000  0.4614880000000 1.0
C      1  0.4957010000000  0.5080340000000  0.5109050000000 1.0
C      1  0.4765130000000  0.5052660000000  0.4178640000000 1.0
C      1  0.4263210000000  0.5299590000000  0.4306840000000 1.0
C      1  0.5260290000000  0.4655190000000  0.5196620000000 1.0
C      1  0.4950410000000  0.5283810000000  0.5667360000000 1.0
C      1  0.4699450000000  0.4135000000000  0.5394640000000 1.0
C      1  0.5313820000000  0.5532000000000  0.4558300000000 1.0
C      1  0.5098430000000  0.4940030000000  0.4860910000000 1.0
C      1  0.3720720000000  0.4622840000000  0.4324900000000 1.0
C      1  0.4645260000000  0.4395310000000  0.5553800000000 1.0
C      1  0.5816260000000  0.4770040000000  0.5207590000000 1.0
C      1  0.4666280000000  0.5992970000000  0.4973050000000 1.0
C      1  0.5330850000000  0.5681250000000  0.5426860000000 1.0
C      1  0.5410170000000  0.5815240000000  0.4594860000000 1.0
C      1  0.5678660000000  0.5539610000000  0.5562090000000 1.0
C      1  0.5258260000000  0.5974330000000  0.5276220000000 1.0
C      1  0.4450120000000  0.5090230000000  0.4154050000000 1.0
C      1  0.4367700000000  0.5783310000000  0.4578390000000 1.0
C      1  0.4596240000000  0.5073340000000  0.5371520000000 1.0
C      1  0.4807920000000  0.4508480000000  0.4650280000000 1.0
C      1  0.4607120000000  0.4933590000000  0.4860340000000 1.0
C      1  0.4210870000000  0.5035340000000  0.5275400000000 1.0
C      1  0.4968010000000  0.5289920000000  0.4281620000000 1.0
C      1  0.4069850000000  0.5231790000000  0.4580350000000 1.0
C      1  0.5776580000000  0.4999500000000  0.4430060000000 1.0
C      1  0.4647680000000  0.4478280000000  0.4402410000000 1.0
C      1  0.4058420000000  0.4655200000000  0.5007140000000 1.0
C      1  0.4411300000000  0.5585610000000  0.4331560000000 1.0
C      1  0.5687390000000  0.5471970000000  0.4431990000000 1.0
C      1  0.4415830000000  0.4544760000000  0.4717990000000 1.0
C      1  0.4905150000000  0.5530900000000  0.5440520000000 1.0
C      1  0.6057320000000  0.4722800000000  0.4378640000000 1.0
C      1  0.4981490000000  0.4299540000000  0.4277920000000 1.0
C      1  0.5585550000000  0.5264830000000  0.5929560000000 1.0
C      1  0.5760750000000  0.4255230000000  0.4702960000000 1.0
C      1  0.6108230000000  0.4650380000000  0.4917840000000 1.0
C      1  0.5653210000000  0.5710900000000  0.5309640000000 1.0
C      1  0.5094080000000  0.4432610000000  0.5041260000000 1.0
C      1  0.5679260000000  0.4869640000000  0.5773310000000 1.0
C      1  0.5592680000000  0.4838620000000  0.4004480000000 1.0
C      1  0.5774000000000  0.4538820000000  0.5528950000000 1.0
C      1  0.5746460000000  0.5258460000000  0.5467200000000 1.0
C      1  0.4216020000000  0.4240560000000  0.5207720000000 1.0
C      1  0.5403580000000  0.4180350000000  0.5122060000000 1.0
C      1  0.5409520000000  0.4635120000000  0.4517170000000 1.0
C      1  0.5181260000000  0.5484550000000  0.4283670000000 1.0
C      1  0.5009870000000  0.5778600000000  0.4300850000000 1.0
C      1  0.4649530000000  0.5538170000000  0.5903690000000 1.0
C      1  0.4851920000000  0.4081930000000  0.5091130000000 1.0
C      1  0.4889870000000  0.4815320000000  0.4379020000000 1.0
C      1  0.5653410000000  0.4934280000000  0.5458650000000 1.0
C      1  0.5389080000000  0.4599690000000  0.4120720000000 1.0
C      1  0.4591080000000  0.3962550000000  0.4911560000000 1.0
C      1  0.4638850000000  0.4798720000000  0.5657090000000 1.0
C      1  0.5825520000000  0.4844610000000  0.4167520000000 1.0
C      1  0.5058700000000  0.4790330000000  0.5436010000000 1.0
C      1  0.6008440000000  0.4786000000000  0.5562600000000 1.0
C      1  0.4078280000000  0.4539040000000  0.4712850000000 1.0
C      1  0.5334200000000  0.4890380000000  0.4297220000000 1.0
C      1  0.5643830000000  0.4834970000000  0.4920690000000 1.0
C      1  0.4861220000000  0.6169620000000  0.5071260000000 1.0
C      1  0.5305060000000  0.4855400000000  0.5635790000000 1.0
C      1  0.4941890000000  0.4539280000000  0.5637250000000 1.0
C      1  0.5276870000000  0.4353240000000  0.4439710000000 1.0
C      1  0.4470780000000  0.4036050000000  0.5212240000000 1.0
C      1  0.5681060000000  0.4646660000000  0.4699510000000 1.0
C      1  0.5674470000000  0.5146070000000  0.4935600000000 1.0
C      1  0.5160310000000  0.5947170000000  0.4516890000000 1.0
C      1  0.4436790000000  0.4481010000000  0.5786990000000 1.0
C      1  0.3970200000000  0.4973190000000  0.4964220000000 1.0
C      1  0.5338270000000  0.5432280000000  0.5175480000000 1.0
C      1  0.4815580000000  0.5673720000000  0.5161010000000 1.0
C      1  0.4678010000000  0.5393810000000  0.4366930000000 1.0
C      1  0.4533060000000  0.4646780000000  0.5371220000000 1.0
C      1  0.5768170000000  0.5650540000000  0.5000910000000 1.0
C      1  0.6055790000000  0.5121400000000  0.4805330000000 1.0
C      1  0.4638240000000  0.5634770000000  0.5631580000000 1.0
C      1  0.5029340000000  0.5690670000000  0.3978530000000 1.0
C      1  0.4296650000000  0.5687750000000  0.5215300000000 1.0
C      1  0.4377580000000  0.5532150000000  0.5506640000000 1.0
C      1  0.5479660000000  0.5002690000000  0.6052140000000 1.0
C      1  0.5551200000000  0.5229240000000  0.5209770000000 1.0
C      1  0.4552190000000  0.5183930000000  0.4557030000000 1.0
C      1  0.4886850000000  0.5102390000000  0.6017300000000 1.0
C      1  0.3889940000000  0.5391780000000  0.5430480000000 1.0
C      1  0.4283860000000  0.4075430000000  0.4920310000000 1.0
C      1  0.4317130000000  0.4736210000000  0.4461140000000 1.0
END
