TITL C-2778433-5640-402 0.00299794483412733 125000 -480.003660496894 0 0 84 (C1) n - 1
REM
REM in /home/nfs/bkarasulu/CARBON/AIRSS/Generating-Clusters/REBO/Only-C1/SD-CG/HFTN-CG
REM
REM
REM
REM
REM
REM ./C.cell (11c1c37f851c82e70ff6c80c92926a4b)
REM
REM compiler GCC version 9.2.1 20190827 (Red Hat 9.2.1-1)
REM options -cpp -mtune=generic -march=x86-64 -g -O0 -fpre-include=/usr/include/finclude/math-vector-fortran.h
REM seed -286249025 -513354626 725983810 2037072935 1473035584 -720285407 318344005 1267887958 1529983881 -684546377 310938647 -1339196957 -1684985354 665623513 1740425768 2115253905 327971857 1120316119 -1477643951 -1070370975 -1248109162 -1900111293 -1570743498 -2044378756 -2052256469 549162347 960879175 1632437393 -589388331 1239853019 -1382417746 793872801 -394629535
REM
CELL 1.54180   50.00000   50.00000   50.00000   90.00000   90.00000   90.00000
LATT -1
SFAC C  
C      1  0.5255400000000  0.5582670000000  0.5532450000000 1.0
C      1  0.4211580000000  0.5319570000000  0.5260250000000 1.0
C      1  0.5653320000000  0.4919390000000  0.4828130000000 1.0
C      1  0.4399430000000  0.5292890000000  0.4989500000000 1.0
C      1  0.5344220000000  0.4928560000000  0.4682410000000 1.0
C      1  0.4416630000000  0.5568970000000  0.5182870000000 1.0
C      1  0.5681940000000  0.5313110000000  0.5224090000000 1.0
C      1  0.4669370000000  0.5606720000000  0.5349310000000 1.0
C      1  0.5009540000000  0.4973330000000  0.5591710000000 1.0
C      1  0.4453100000000  0.5405910000000  0.4585220000000 1.0
C      1  0.4770960000000  0.5540240000000  0.4587470000000 1.0
C      1  0.4471190000000  0.4620750000000  0.4542730000000 1.0
C      1  0.4351990000000  0.4823200000000  0.5326360000000 1.0
C      1  0.5804390000000  0.5125190000000  0.5056910000000 1.0
C      1  0.4895340000000  0.4668140000000  0.4645400000000 1.0
C      1  0.4466170000000  0.4431160000000  0.5016170000000 1.0
C      1  0.5742990000000  0.4705450000000  0.5429720000000 1.0
C      1  0.4620920000000  0.5018860000000  0.5291540000000 1.0
C      1  0.5207060000000  0.4665490000000  0.4594990000000 1.0
C      1  0.5626860000000  0.4374100000000  0.4987730000000 1.0
C      1  0.4796690000000  0.5210100000000  0.4551870000000 1.0
C      1  0.5483140000000  0.5460170000000  0.5081540000000 1.0
C      1  0.4841260000000  0.4950950000000  0.4967900000000 1.0
C      1  0.4984960000000  0.4487180000000  0.5196760000000 1.0
C      1  0.5038050000000  0.5766250000000  0.5364670000000 1.0
C      1  0.5024560000000  0.4541500000000  0.5536350000000 1.0
C      1  0.5285250000000  0.4519780000000  0.5352930000000 1.0
C      1  0.5483720000000  0.4772800000000  0.4330340000000 1.0
C      1  0.4308480000000  0.5134620000000  0.4636340000000 1.0
C      1  0.5290710000000  0.4755200000000  0.4971290000000 1.0
C      1  0.4722270000000  0.4930240000000  0.4108810000000 1.0
C      1  0.4863930000000  0.5124060000000  0.5370030000000 1.0
C      1  0.5254780000000  0.4914180000000  0.5716980000000 1.0
C      1  0.4330500000000  0.4681950000000  0.5054020000000 1.0
C      1  0.5638430000000  0.5218950000000  0.4563840000000 1.0
C      1  0.5211410000000  0.5228320000000  0.4907420000000 1.0
C      1  0.4467380000000  0.5198090000000  0.5648800000000 1.0
C      1  0.5625190000000  0.5204200000000  0.5538660000000 1.0
C      1  0.4357690000000  0.4836810000000  0.4763970000000 1.0
C      1  0.5160360000000  0.5366900000000  0.5773860000000 1.0
C      1  0.4272370000000  0.5123630000000  0.5454490000000 1.0
C      1  0.4984800000000  0.4825880000000  0.4211800000000 1.0
C      1  0.4566390000000  0.4731570000000  0.5562680000000 1.0
C      1  0.5318940000000  0.4423770000000  0.4966500000000 1.0
C      1  0.5092420000000  0.4897330000000  0.5127030000000 1.0
C      1  0.4483290000000  0.5594000000000  0.4855600000000 1.0
C      1  0.5227640000000  0.5159700000000  0.5207690000000 1.0
C      1  0.4539390000000  0.4382680000000  0.4736930000000 1.0
C      1  0.4772050000000  0.5743970000000  0.4862420000000 1.0
C      1  0.4528260000000  0.5019030000000  0.4970420000000 1.0
C      1  0.5104380000000  0.4345080000000  0.4537740000000 1.0
C      1  0.4918310000000  0.5395730000000  0.5293710000000 1.0
C      1  0.4938770000000  0.5597050000000  0.5644680000000 1.0
C      1  0.5233080000000  0.4931150000000  0.4298030000000 1.0
C      1  0.4458900000000  0.4877780000000  0.4318030000000 1.0
C      1  0.4827100000000  0.4264270000000  0.4717410000000 1.0
C      1  0.4999260000000  0.4497740000000  0.4889910000000 1.0
C      1  0.5394240000000  0.5152170000000  0.5775890000000 1.0
C      1  0.5775920000000  0.4645490000000  0.4990000000000 1.0
C      1  0.4634310000000  0.4960100000000  0.5722010000000 1.0
C      1  0.5486900000000  0.5328710000000  0.4794960000000 1.0
C      1  0.4681940000000  0.5214140000000  0.4013840000000 1.0
C      1  0.5778250000000  0.4931840000000  0.5528620000000 1.0
C      1  0.4800040000000  0.5844800000000  0.5161160000000 1.0
C      1  0.5502680000000  0.5326600000000  0.4306800000000 1.0
C      1  0.5247200000000  0.5198530000000  0.4495440000000 1.0
C      1  0.4680270000000  0.4335850000000  0.5217060000000 1.0
C      1  0.4882040000000  0.4141970000000  0.5023830000000 1.0
C      1  0.5334650000000  0.5305570000000  0.5417630000000 1.0
C      1  0.5181350000000  0.5551050000000  0.5140980000000 1.0
C      1  0.4642980000000  0.5467420000000  0.5641870000000 1.0
C      1  0.4735550000000  0.4916440000000  0.4510610000000 1.0
C      1  0.5381210000000  0.4471660000000  0.4385160000000 1.0
C      1  0.4976730000000  0.5128300000000  0.4787420000000 1.0
C      1  0.5953030000000  0.4876020000000  0.5087630000000 1.0
C      1  0.5103730000000  0.5455090000000  0.4596850000000 1.0
C      1  0.4752770000000  0.4611760000000  0.4346630000000 1.0
C      1  0.4850660000000  0.5224200000000  0.5756290000000 1.0
C      1  0.5160390000000  0.4152890000000  0.5067950000000 1.0
C      1  0.4725180000000  0.4511820000000  0.5496030000000 1.0
C      1  0.5691700000000  0.4913500000000  0.4491820000000 1.0
C      1  0.5059870000000  0.5594700000000  0.4855500000000 1.0
C      1  0.5557980000000  0.4532480000000  0.5267850000000 1.0
C      1  0.4541920000000  0.5210570000000  0.4323730000000 1.0
END
