TITL C-2778424-3986-828 0.0994246260494943 125000 -457.367203092193 0 0 81 (C1) n - 1
REM
REM in /home/nfs/bkarasulu/CARBON/AIRSS/Generating-Clusters/REBO/Only-C1/SD-CG/HFTN-CG
REM
REM
REM
REM
REM
REM ./C.cell (11c1c37f851c82e70ff6c80c92926a4b)
REM
REM compiler GCC version 9.2.1 20190827 (Red Hat 9.2.1-1)
REM options -cpp -mtune=generic -march=x86-64 -g -O0 -fpre-include=/usr/include/finclude/math-vector-fortran.h
REM seed -1292557794 -147399639 1496941964 1146075080 1689554542 1282965578 1721894156 1725277910 -442722879 1312113674 1246323790 145229906 -1239113635 713333057 -1850995729 1608381868 -607985943 -862324384 -978277223 1795595270 238670214 787110380 1801911282 -2144092089 -1301264947 -815200352 1902593866 -1574439543 2013852787 1067820237 1013822596 -1448174642 1668645634
REM
CELL 1.54180   50.00000   50.00000   50.00000   90.00000   90.00000   90.00000
LATT -1
SFAC C  
C      1  0.5833100000000  0.5247650000000  0.4915160000000 1.0
C      1  0.4747400000000  0.4418010000000  0.4448580000000 1.0
C      1  0.5267860000000  0.4769490000000  0.4169190000000 1.0
C      1  0.4691260000000  0.5453330000000  0.5876200000000 1.0
C      1  0.4567630000000  0.4340640000000  0.5248600000000 1.0
C      1  0.4608800000000  0.5712420000000  0.4907760000000 1.0
C      1  0.4308420000000  0.5323130000000  0.5272450000000 1.0
C      1  0.4634960000000  0.5113630000000  0.4298250000000 1.0
C      1  0.4842380000000  0.4155690000000  0.4814380000000 1.0
C      1  0.4505420000000  0.6036850000000  0.5256500000000 1.0
C      1  0.5775220000000  0.5077520000000  0.5135190000000 1.0
C      1  0.4683930000000  0.4686160000000  0.5829750000000 1.0
C      1  0.4623450000000  0.4282180000000  0.4673630000000 1.0
C      1  0.4835330000000  0.4833720000000  0.4753880000000 1.0
C      1  0.5529210000000  0.4595420000000  0.4899630000000 1.0
C      1  0.5067140000000  0.5710200000000  0.4758090000000 1.0
C      1  0.5439620000000  0.5490710000000  0.5675220000000 1.0
C      1  0.4363900000000  0.5110960000000  0.4462020000000 1.0
C      1  0.5567360000000  0.4322880000000  0.5103730000000 1.0
C      1  0.4774800000000  0.4715640000000  0.4439650000000 1.0
C      1  0.5472250000000  0.4902040000000  0.4296870000000 1.0
C      1  0.5294840000000  0.5285050000000  0.4341520000000 1.0
C      1  0.5092000000000  0.4248280000000  0.4742520000000 1.0
C      1  0.4656680000000  0.4634530000000  0.5307120000000 1.0
C      1  0.4953490000000  0.4329020000000  0.5615050000000 1.0
C      1  0.4828190000000  0.4660310000000  0.5013670000000 1.0
C      1  0.4357930000000  0.4852840000000  0.4882980000000 1.0
C      1  0.5080000000000  0.4462780000000  0.4480730000000 1.0
C      1  0.5694130000000  0.4573350000000  0.5262870000000 1.0
C      1  0.4839450000000  0.5551090000000  0.4473490000000 1.0
C      1  0.5361920000000  0.4124370000000  0.5235240000000 1.0
C      1  0.5056980000000  0.4496110000000  0.5054020000000 1.0
C      1  0.5864610000000  0.5119030000000  0.4672070000000 1.0
C      1  0.5085500000000  0.5585560000000  0.5011780000000 1.0
C      1  0.5209800000000  0.5483370000000  0.5442190000000 1.0
C      1  0.4877120000000  0.5215100000000  0.4489890000000 1.0
C      1  0.4472450000000  0.5062550000000  0.5018320000000 1.0
C      1  0.4364920000000  0.4579050000000  0.5003230000000 1.0
C      1  0.4514810000000  0.5779300000000  0.5167930000000 1.0
C      1  0.5133850000000  0.4778200000000  0.4600730000000 1.0
C      1  0.5220290000000  0.5026560000000  0.5717900000000 1.0
C      1  0.5304740000000  0.4519600000000  0.5221170000000 1.0
C      1  0.5114980000000  0.4168370000000  0.5453400000000 1.0
C      1  0.5617400000000  0.5627590000000  0.5178230000000 1.0
C      1  0.5118760000000  0.5053700000000  0.4405390000000 1.0
C      1  0.5458420000000  0.4931730000000  0.5551940000000 1.0
C      1  0.4464330000000  0.5555610000000  0.5359280000000 1.0
C      1  0.5561450000000  0.5151970000000  0.5336150000000 1.0
C      1  0.4536330000000  0.5403360000000  0.4417880000000 1.0
C      1  0.4600680000000  0.5405200000000  0.4863550000000 1.0
C      1  0.4772340000000  0.4544830000000  0.5609200000000 1.0
C      1  0.4285500000000  0.4869850000000  0.4600160000000 1.0
C      1  0.4786180000000  0.5795020000000  0.4700050000000 1.0
C      1  0.5483950000000  0.5401170000000  0.4588930000000 1.0
C      1  0.5085980000000  0.5186760000000  0.4993470000000 1.0
C      1  0.4283810000000  0.5045240000000  0.5369780000000 1.0
C      1  0.4952950000000  0.5454830000000  0.5658660000000 1.0
C      1  0.4632230000000  0.5533770000000  0.5579360000000 1.0
C      1  0.5069630000000  0.4206730000000  0.5138720000000 1.0
C      1  0.4375490000000  0.4409670000000  0.4756120000000 1.0
C      1  0.5419740000000  0.5212080000000  0.4933240000000 1.0
C      1  0.4255700000000  0.4581050000000  0.4542060000000 1.0
C      1  0.5297730000000  0.4519930000000  0.4734290000000 1.0
C      1  0.4312040000000  0.5322460000000  0.4965760000000 1.0
C      1  0.4842500000000  0.5403120000000  0.5094670000000 1.0
C      1  0.4803780000000  0.4934760000000  0.5358660000000 1.0
C      1  0.5622900000000  0.5482180000000  0.4882760000000 1.0
C      1  0.5239070000000  0.5079400000000  0.5253880000000 1.0
C      1  0.5606530000000  0.5437490000000  0.5429310000000 1.0
C      1  0.5182840000000  0.5546050000000  0.4512510000000 1.0
C      1  0.5467620000000  0.4672970000000  0.5443400000000 1.0
C      1  0.5070120000000  0.4974170000000  0.5455250000000 1.0
C      1  0.5773620000000  0.4783160000000  0.5049040000000 1.0
C      1  0.4970120000000  0.4807760000000  0.4239890000000 1.0
C      1  0.5552330000000  0.4932100000000  0.4837450000000 1.0
C      1  0.5326030000000  0.5465400000000  0.5147700000000 1.0
C      1  0.4816650000000  0.5151820000000  0.4788620000000 1.0
C      1  0.5210820000000  0.5305000000000  0.5793620000000 1.0
C      1  0.5574380000000  0.5075530000000  0.4530690000000 1.0
C      1  0.4352770000000  0.4781410000000  0.5276380000000 1.0
C      1  0.4699120000000  0.5122430000000  0.5181370000000 1.0
END
