TITL C-2778430-5657-1383 -0.000607842262121985 125000 -526.451538932807 0 0 91 (C1) n - 1
REM
REM in /home/nfs/bkarasulu/CARBON/AIRSS/Generating-Clusters/REBO/Only-C1/SD-CG/HFTN-CG
REM
REM
REM
REM
REM
REM ./C.cell (11c1c37f851c82e70ff6c80c92926a4b)
REM
REM compiler GCC version 9.2.1 20190827 (Red Hat 9.2.1-1)
REM options -cpp -mtune=generic -march=x86-64 -g -O0 -fpre-include=/usr/include/finclude/math-vector-fortran.h
REM seed -806856528 -222891074 917834907 -848628593 -2108096674 855255658 76502380 -1146039594 -1203979685 -1310425738 1611995747 -711142218 -1295520834 724758516 -800149231 -540848505 1610996136 -952442131 -382646481 439216187 693250595 932908761 519975300 1266545479 1129778902 -1764604023 -456313592 519326323 812448649 1055237252 571341626 966325314 -1881437799
REM
CELL 1.54180   50.00000   50.00000   50.00000   90.00000   90.00000   90.00000
LATT -1
SFAC C  
C      1  0.4986840000000  0.4741890000000  0.4637850000000 1.0
C      1  0.4951490000000  0.5049020000000  0.5419730000000 1.0
C      1  0.5536510000000  0.4725710000000  0.4985970000000 1.0
C      1  0.5366190000000  0.4827830000000  0.5471170000000 1.0
C      1  0.4236190000000  0.4633930000000  0.4848780000000 1.0
C      1  0.5374480000000  0.5108280000000  0.5616700000000 1.0
C      1  0.4975830000000  0.4495270000000  0.5654900000000 1.0
C      1  0.5569810000000  0.4463360000000  0.4686010000000 1.0
C      1  0.4364110000000  0.4864690000000  0.5055160000000 1.0
C      1  0.5820320000000  0.4574310000000  0.4870180000000 1.0
C      1  0.4581260000000  0.5484610000000  0.4460560000000 1.0
C      1  0.4946630000000  0.5133320000000  0.4069420000000 1.0
C      1  0.5083280000000  0.4481170000000  0.4808930000000 1.0
C      1  0.4283060000000  0.5555910000000  0.5064670000000 1.0
C      1  0.5713740000000  0.5208860000000  0.4941110000000 1.0
C      1  0.4780600000000  0.4270540000000  0.4484260000000 1.0
C      1  0.4308420000000  0.5108100000000  0.5229110000000 1.0
C      1  0.5537520000000  0.5324280000000  0.5513710000000 1.0
C      1  0.4292690000000  0.5101340000000  0.5521370000000 1.0
C      1  0.5115850000000  0.5518170000000  0.5625970000000 1.0
C      1  0.5379600000000  0.5829400000000  0.5000840000000 1.0
C      1  0.4130850000000  0.5343370000000  0.5144950000000 1.0
C      1  0.5614680000000  0.4409120000000  0.5087060000000 1.0
C      1  0.4804510000000  0.5391190000000  0.5260230000000 1.0
C      1  0.4440540000000  0.5691090000000  0.5261290000000 1.0
C      1  0.4661400000000  0.4852760000000  0.5783090000000 1.0
C      1  0.4430050000000  0.4287490000000  0.4890480000000 1.0
C      1  0.5672950000000  0.4967270000000  0.4329880000000 1.0
C      1  0.5363710000000  0.4952980000000  0.4216480000000 1.0
C      1  0.5388670000000  0.5576020000000  0.5544180000000 1.0
C      1  0.5085230000000  0.4726820000000  0.5025150000000 1.0
C      1  0.4647540000000  0.5704490000000  0.4718880000000 1.0
C      1  0.4441290000000  0.5026660000000  0.5785380000000 1.0
C      1  0.4690340000000  0.5898800000000  0.4925730000000 1.0
C      1  0.5080820000000  0.5207400000000  0.5665560000000 1.0
C      1  0.4649920000000  0.4584170000000  0.5634240000000 1.0
C      1  0.4766200000000  0.5786690000000  0.5234550000000 1.0
C      1  0.4592390000000  0.4651820000000  0.4913750000000 1.0
C      1  0.5342280000000  0.4895030000000  0.4541650000000 1.0
C      1  0.4320080000000  0.4454940000000  0.5127370000000 1.0
C      1  0.4914540000000  0.4204640000000  0.5220440000000 1.0
C      1  0.4901010000000  0.4980570000000  0.5810150000000 1.0
C      1  0.4436060000000  0.5479630000000  0.4827190000000 1.0
C      1  0.5192030000000  0.4161000000000  0.5256460000000 1.0
C      1  0.4804440000000  0.4582480000000  0.5267410000000 1.0
C      1  0.5524140000000  0.5314600000000  0.4752410000000 1.0
C      1  0.5419980000000  0.5734930000000  0.5304640000000 1.0
C      1  0.4530240000000  0.4678060000000  0.4579880000000 1.0
C      1  0.4434210000000  0.4491470000000  0.5382130000000 1.0
C      1  0.4610690000000  0.5522750000000  0.5489720000000 1.0
C      1  0.5258510000000  0.5125780000000  0.4712010000000 1.0
C      1  0.5187460000000  0.4410680000000  0.5568790000000 1.0
C      1  0.4928440000000  0.5589290000000  0.5009250000000 1.0
C      1  0.5402720000000  0.5507570000000  0.5078550000000 1.0
C      1  0.4892490000000  0.4954780000000  0.4886310000000 1.0
C      1  0.4901520000000  0.5672930000000  0.5525210000000 1.0
C      1  0.4937930000000  0.5586490000000  0.4609910000000 1.0
C      1  0.5801490000000  0.4830190000000  0.5174200000000 1.0
C      1  0.4921720000000  0.4468530000000  0.4354130000000 1.0
C      1  0.5812410000000  0.4954670000000  0.4532640000000 1.0
C      1  0.5328960000000  0.5502730000000  0.4603680000000 1.0
C      1  0.4758100000000  0.4884110000000  0.5192520000000 1.0
C      1  0.4620950000000  0.5159800000000  0.5122880000000 1.0
C      1  0.4999980000000  0.5263260000000  0.4659680000000 1.0
C      1  0.4372900000000  0.4930880000000  0.4721230000000 1.0
C      1  0.4555400000000  0.4359830000000  0.4644990000000 1.0
C      1  0.4451900000000  0.5209220000000  0.4632240000000 1.0
C      1  0.4789150000000  0.5698120000000  0.4345870000000 1.0
C      1  0.4702010000000  0.4304710000000  0.5439840000000 1.0
C      1  0.4778260000000  0.5026190000000  0.4256760000000 1.0
C      1  0.5334600000000  0.5221010000000  0.5091990000000 1.0
C      1  0.5153940000000  0.4711230000000  0.4336820000000 1.0
C      1  0.5617030000000  0.4642150000000  0.5389780000000 1.0
C      1  0.5442570000000  0.4362090000000  0.5378930000000 1.0
C      1  0.5858710000000  0.4914480000000  0.4848580000000 1.0
C      1  0.4745950000000  0.5347890000000  0.4869890000000 1.0
C      1  0.4739560000000  0.5208970000000  0.4483710000000 1.0
C      1  0.4761320000000  0.4756260000000  0.4383290000000 1.0
C      1  0.5021530000000  0.5172200000000  0.5114120000000 1.0
C      1  0.4826200000000  0.4425140000000  0.4982400000000 1.0
C      1  0.5256270000000  0.5418680000000  0.4340180000000 1.0
C      1  0.5318200000000  0.4910440000000  0.4948520000000 1.0
C      1  0.5537020000000  0.5010040000000  0.5266560000000 1.0
C      1  0.5517390000000  0.4631050000000  0.4480180000000 1.0
C      1  0.5168480000000  0.5691670000000  0.4813980000000 1.0
C      1  0.5395510000000  0.4167670000000  0.5035760000000 1.0
C      1  0.5090170000000  0.4743890000000  0.5358960000000 1.0
C      1  0.4463430000000  0.5331300000000  0.5663530000000 1.0
C      1  0.5210830000000  0.5205030000000  0.4152960000000 1.0
C      1  0.5346190000000  0.4335530000000  0.4799940000000 1.0
C      1  0.5697600000000  0.5295270000000  0.5242460000000 1.0
END
