TITL C-2778427-5640-800 0.000290383888154661 125000 -1093.67621507576 0 0 185 (C1) n - 1
REM
REM in /home/nfs/bkarasulu/CARBON/AIRSS/Generating-Clusters/REBO/Only-C1/SD-CG/HFTN-CG
REM
REM
REM
REM
REM
REM ./C.cell (11c1c37f851c82e70ff6c80c92926a4b)
REM
REM compiler GCC version 9.2.1 20190827 (Red Hat 9.2.1-1)
REM options -cpp -mtune=generic -march=x86-64 -g -O0 -fpre-include=/usr/include/finclude/math-vector-fortran.h
REM seed 1115504614 2124620216 -1704743359 -64369516 -651297476 66767872 -101008614 535261469 883655409 538302569 -829443931 1661072042 1262960230 760964221 -1547730297 -1745704648 -1212301997 2047240233 -108665012 -1197472056 413016767 228547041 -144084838 758719027 -47606304 1810145616 459601242 -41336839 1630839301 -1855294464 1849895095 -53705125 -634501555
REM
CELL 1.54180   50.00000   50.00000   50.00000   90.00000   90.00000   90.00000
LATT -1
SFAC C  
C      1  0.4478730000000  0.4467020000000  0.4470820000000 1.0
C      1  0.5006120000000  0.4691440000000  0.5060970000000 1.0
C      1  0.4944650000000  0.5749210000000  0.5623080000000 1.0
C      1  0.4043820000000  0.4907740000000  0.5078710000000 1.0
C      1  0.5937510000000  0.5809280000000  0.5259430000000 1.0
C      1  0.6012440000000  0.4615800000000  0.4977670000000 1.0
C      1  0.4422810000000  0.4082610000000  0.5354280000000 1.0
C      1  0.4763520000000  0.4858500000000  0.3934280000000 1.0
C      1  0.4729470000000  0.4008780000000  0.4615190000000 1.0
C      1  0.5520130000000  0.5999070000000  0.5130530000000 1.0
C      1  0.5700100000000  0.4263140000000  0.5006490000000 1.0
C      1  0.4572650000000  0.5977230000000  0.5270980000000 1.0
C      1  0.4138240000000  0.5109950000000  0.5654490000000 1.0
C      1  0.4928910000000  0.5262920000000  0.4334880000000 1.0
C      1  0.4548840000000  0.4696710000000  0.4660930000000 1.0
C      1  0.5247490000000  0.4951430000000  0.4722740000000 1.0
C      1  0.5887640000000  0.4396640000000  0.4851000000000 1.0
C      1  0.4324880000000  0.5816150000000  0.5182470000000 1.0
C      1  0.5156470000000  0.5813010000000  0.4797050000000 1.0
C      1  0.4183720000000  0.4461320000000  0.5070430000000 1.0
C      1  0.4556460000000  0.4250290000000  0.5621810000000 1.0
C      1  0.4988740000000  0.5444510000000  0.5058130000000 1.0
C      1  0.4223790000000  0.5117940000000  0.4880610000000 1.0
C      1  0.5339850000000  0.4971880000000  0.3891220000000 1.0
C      1  0.4648190000000  0.5851940000000  0.5571170000000 1.0
C      1  0.4727750000000  0.4539530000000  0.4019060000000 1.0
C      1  0.4123190000000  0.5403680000000  0.4566930000000 1.0
C      1  0.4057720000000  0.5079480000000  0.4581850000000 1.0
C      1  0.4610350000000  0.5265870000000  0.4785930000000 1.0
C      1  0.4975980000000  0.5393990000000  0.4086910000000 1.0
C      1  0.5032780000000  0.4506330000000  0.4795310000000 1.0
C      1  0.4558260000000  0.5747780000000  0.4737690000000 1.0
C      1  0.4350660000000  0.5461280000000  0.4407640000000 1.0
C      1  0.4789910000000  0.5214040000000  0.5139000000000 1.0
C      1  0.4086320000000  0.5386140000000  0.5603730000000 1.0
C      1  0.5202520000000  0.4805940000000  0.5517890000000 1.0
C      1  0.5332810000000  0.4077250000000  0.4474850000000 1.0
C      1  0.4303910000000  0.5004960000000  0.4151320000000 1.0
C      1  0.4805860000000  0.5441160000000  0.5583180000000 1.0
C      1  0.5060030000000  0.4480840000000  0.4074580000000 1.0
C      1  0.5774280000000  0.5183100000000  0.4239670000000 1.0
C      1  0.4717010000000  0.3807150000000  0.4865090000000 1.0
C      1  0.4745150000000  0.4791880000000  0.4327150000000 1.0
C      1  0.3959640000000  0.5350750000000  0.5229160000000 1.0
C      1  0.5410210000000  0.5924060000000  0.4448610000000 1.0
C      1  0.5081920000000  0.4560040000000  0.5807470000000 1.0
C      1  0.4055540000000  0.4895000000000  0.5490500000000 1.0
C      1  0.5133200000000  0.5805390000000  0.5374590000000 1.0
C      1  0.5393440000000  0.5961870000000  0.5383460000000 1.0
C      1  0.4528420000000  0.4901580000000  0.5109380000000 1.0
C      1  0.4231810000000  0.5620440000000  0.5404140000000 1.0
C      1  0.4262950000000  0.4260230000000  0.4733890000000 1.0
C      1  0.5075000000000  0.3999000000000  0.5146550000000 1.0
C      1  0.4445890000000  0.5355310000000  0.5433830000000 1.0
C      1  0.5652970000000  0.4972300000000  0.5544190000000 1.0
C      1  0.4799700000000  0.6059370000000  0.5027320000000 1.0
C      1  0.4490020000000  0.5710490000000  0.4453210000000 1.0
C      1  0.4572560000000  0.5878260000000  0.4256680000000 1.0
C      1  0.5549720000000  0.5150810000000  0.5083120000000 1.0
C      1  0.5369680000000  0.4588290000000  0.5425020000000 1.0
C      1  0.5040230000000  0.4146420000000  0.5515690000000 1.0
C      1  0.4460520000000  0.4702720000000  0.4154940000000 1.0
C      1  0.5235110000000  0.5104070000000  0.5028880000000 1.0
C      1  0.4844550000000  0.4185260000000  0.4880880000000 1.0
C      1  0.5506350000000  0.5676310000000  0.4660830000000 1.0
C      1  0.5750310000000  0.5189060000000  0.5707430000000 1.0
C      1  0.5475740000000  0.5538660000000  0.5146680000000 1.0
C      1  0.5822370000000  0.4710190000000  0.4354710000000 1.0
C      1  0.4590720000000  0.4298230000000  0.4216800000000 1.0
C      1  0.5305270000000  0.4426490000000  0.4662820000000 1.0
C      1  0.4857280000000  0.5812250000000  0.5234740000000 1.0
C      1  0.4835930000000  0.4828710000000  0.6115900000000 1.0
C      1  0.5100500000000  0.5694070000000  0.4552420000000 1.0
C      1  0.5734550000000  0.5465710000000  0.5242100000000 1.0
C      1  0.5201310000000  0.5513930000000  0.5283400000000 1.0
C      1  0.5465750000000  0.5045450000000  0.4195930000000 1.0
C      1  0.4840200000000  0.3839270000000  0.5081000000000 1.0
C      1  0.4527380000000  0.4584590000000  0.5226880000000 1.0
C      1  0.4350190000000  0.4181180000000  0.5035340000000 1.0
C      1  0.5536760000000  0.4597410000000  0.5147720000000 1.0
C      1  0.5977500000000  0.5561330000000  0.5073310000000 1.0
C      1  0.4249790000000  0.4343600000000  0.5384130000000 1.0
C      1  0.5815670000000  0.5737500000000  0.5522150000000 1.0
C      1  0.5286850000000  0.4803460000000  0.4354710000000 1.0
C      1  0.4632510000000  0.5058940000000  0.4143110000000 1.0
C      1  0.5132610000000  0.4819570000000  0.6101300000000 1.0
C      1  0.4216140000000  0.4722560000000  0.5277670000000 1.0
C      1  0.4348920000000  0.4509750000000  0.5621060000000 1.0
C      1  0.5328160000000  0.4724000000000  0.4952930000000 1.0
C      1  0.5614860000000  0.4340380000000  0.5612920000000 1.0
C      1  0.4208400000000  0.5395770000000  0.5049420000000 1.0
C      1  0.5255570000000  0.5342660000000  0.5540140000000 1.0
C      1  0.4481600000000  0.4138790000000  0.4502170000000 1.0
C      1  0.4910410000000  0.4701280000000  0.5575070000000 1.0
C      1  0.5271820000000  0.4479190000000  0.4326490000000 1.0
C      1  0.5803100000000  0.6032650000000  0.5139340000000 1.0
C      1  0.4319750000000  0.5751860000000  0.4906630000000 1.0
C      1  0.4781550000000  0.4251000000000  0.5395070000000 1.0
C      1  0.5306820000000  0.3977160000000  0.5410420000000 1.0
C      1  0.4537930000000  0.5213700000000  0.4398750000000 1.0
C      1  0.5181760000000  0.4297950000000  0.5020100000000 1.0
C      1  0.5358400000000  0.5394810000000  0.4601830000000 1.0
C      1  0.5449330000000  0.4206510000000  0.4852530000000 1.0
C      1  0.4109410000000  0.5560830000000  0.4799510000000 1.0
C      1  0.5104450000000  0.5043680000000  0.5317200000000 1.0
C      1  0.5830380000000  0.5041980000000  0.5180760000000 1.0
C      1  0.5004210000000  0.4959530000000  0.4471060000000 1.0
C      1  0.4826010000000  0.5151280000000  0.5434990000000 1.0
C      1  0.5436000000000  0.5772010000000  0.4945820000000 1.0
C      1  0.4889490000000  0.5118380000000  0.4753510000000 1.0
C      1  0.4968430000000  0.5858780000000  0.4310480000000 1.0
C      1  0.4850720000000  0.4573160000000  0.4565850000000 1.0
C      1  0.3950500000000  0.4735470000000  0.4251580000000 1.0
C      1  0.5303490000000  0.5643170000000  0.4295420000000 1.0
C      1  0.5209250000000  0.4659320000000  0.3871490000000 1.0
C      1  0.5069920000000  0.4238840000000  0.5801560000000 1.0
C      1  0.5805580000000  0.5427060000000  0.5553840000000 1.0
C      1  0.4460740000000  0.4738170000000  0.5780160000000 1.0
C      1  0.5417280000000  0.5767280000000  0.5818430000000 1.0
C      1  0.5775260000000  0.5457250000000  0.4333920000000 1.0
C      1  0.4994340000000  0.6071110000000  0.4823000000000 1.0
C      1  0.5656420000000  0.4309120000000  0.5305740000000 1.0
C      1  0.5431660000000  0.5102480000000  0.5376650000000 1.0
C      1  0.4762730000000  0.5431650000000  0.4541140000000 1.0
C      1  0.4816180000000  0.5373770000000  0.6080920000000 1.0
C      1  0.5375720000000  0.4629380000000  0.5964220000000 1.0
C      1  0.4759130000000  0.5101100000000  0.6156230000000 1.0
C      1  0.5618840000000  0.4854340000000  0.4825780000000 1.0
C      1  0.5015550000000  0.4903770000000  0.3812360000000 1.0
C      1  0.5694870000000  0.4653530000000  0.5507110000000 1.0
C      1  0.5770470000000  0.4460080000000  0.4581610000000 1.0
C      1  0.5345340000000  0.3907950000000  0.4922480000000 1.0
C      1  0.4996950000000  0.4085750000000  0.4428560000000 1.0
C      1  0.4442450000000  0.5102700000000  0.5302350000000 1.0
C      1  0.5396020000000  0.4343020000000  0.5811630000000 1.0
C      1  0.5622480000000  0.5710620000000  0.4280170000000 1.0
C      1  0.5832940000000  0.4740580000000  0.5212490000000 1.0
C      1  0.4052560000000  0.4993900000000  0.4286620000000 1.0
C      1  0.5424540000000  0.3811320000000  0.5190630000000 1.0
C      1  0.5932960000000  0.4864760000000  0.4838430000000 1.0
C      1  0.4122830000000  0.4496910000000  0.4640690000000 1.0
C      1  0.5110700000000  0.4030950000000  0.4733070000000 1.0
C      1  0.5597650000000  0.4506760000000  0.4232090000000 1.0
C      1  0.5438630000000  0.4960080000000  0.6019470000000 1.0
C      1  0.5077560000000  0.5195560000000  0.5738850000000 1.0
C      1  0.6049120000000  0.5170040000000  0.5069200000000 1.0
C      1  0.5191170000000  0.4941100000000  0.5796240000000 1.0
C      1  0.5222220000000  0.5261600000000  0.3963700000000 1.0
C      1  0.5115940000000  0.5741780000000  0.5872280000000 1.0
C      1  0.5118820000000  0.6088680000000  0.4511920000000 1.0
C      1  0.4848250000000  0.4562280000000  0.5308380000000 1.0
C      1  0.4710750000000  0.4920120000000  0.5638010000000 1.0
C      1  0.4922180000000  0.5679990000000  0.4089390000000 1.0
C      1  0.4520490000000  0.5398850000000  0.5045660000000 1.0
C      1  0.4451600000000  0.5006590000000  0.4653780000000 1.0
C      1  0.4035500000000  0.4790500000000  0.4763620000000 1.0
C      1  0.5138410000000  0.5328390000000  0.4794920000000 1.0
C      1  0.5501100000000  0.4673870000000  0.4587150000000 1.0
C      1  0.4893140000000  0.4352490000000  0.4327860000000 1.0
C      1  0.5370020000000  0.5438160000000  0.5850090000000 1.0
C      1  0.5257980000000  0.4306980000000  0.5330300000000 1.0
C      1  0.5921730000000  0.4982300000000  0.4388130000000 1.0
C      1  0.6022450000000  0.5061930000000  0.4653140000000 1.0
C      1  0.5563590000000  0.5872310000000  0.5600200000000 1.0
C      1  0.4650070000000  0.4288490000000  0.5097560000000 1.0
C      1  0.6024400000000  0.5368440000000  0.4802380000000 1.0
C      1  0.4621000000000  0.5222620000000  0.5767380000000 1.0
C      1  0.5565970000000  0.4232150000000  0.4430090000000 1.0
C      1  0.4197840000000  0.4550300000000  0.4313100000000 1.0
C      1  0.4696450000000  0.4627060000000  0.5967350000000 1.0
C      1  0.4457620000000  0.5619480000000  0.5657230000000 1.0
C      1  0.4681440000000  0.5564210000000  0.5296270000000 1.0
C      1  0.4368560000000  0.5040140000000  0.5798860000000 1.0
C      1  0.5327270000000  0.5342640000000  0.4266850000000 1.0
C      1  0.4829850000000  0.4930730000000  0.4997470000000 1.0
C      1  0.5756240000000  0.5467920000000  0.4646310000000 1.0
C      1  0.4582270000000  0.5506030000000  0.5928070000000 1.0
C      1  0.4814860000000  0.5606850000000  0.4824710000000 1.0
C      1  0.5572250000000  0.5222190000000  0.5932340000000 1.0
C      1  0.3862330000000  0.5116080000000  0.5221380000000 1.0
C      1  0.5074620000000  0.5478490000000  0.6021410000000 1.0
C      1  0.4756810000000  0.4349830000000  0.5868250000000 1.0
C      1  0.4339830000000  0.4711480000000  0.4899090000000 1.0
C      1  0.5667380000000  0.5191090000000  0.4783730000000 1.0
C      1  0.5475010000000  0.5095880000000  0.4543760000000 1.0
END
