TITL C-2778424-3986-429 -0.00164318566785121 125000 -265.567110850701 0 0 46 (C1) n - 1
REM
REM in /home/nfs/bkarasulu/CARBON/AIRSS/Generating-Clusters/REBO/Only-C1/SD-CG/HFTN-CG
REM
REM
REM
REM
REM
REM ./C.cell (11c1c37f851c82e70ff6c80c92926a4b)
REM
REM compiler GCC version 9.2.1 20190827 (Red Hat 9.2.1-1)
REM options -cpp -mtune=generic -march=x86-64 -g -O0 -fpre-include=/usr/include/finclude/math-vector-fortran.h
REM seed -1899119570 -1008843238 16142859 -31522367 1707364876 -1568494168 -1872862968 -1852170838 1229722859 1664586481 -436624895 -1325552889 1964827013 -770863018 1726778186 1463941625 652559281 -875474073 452686765 -285835975 1063003824 -910421138 604700418 1636600076 1716428754 -1480626704 -2063066120 529392885 1173743952 -942957213 -1091893731 -227663531 111783723
REM
CELL 1.54180   50.00000   50.00000   50.00000   90.00000   90.00000   90.00000
LATT -1
SFAC C  
C      1  0.4317160000000  0.4594040000000  0.4656580000000 1.0
C      1  0.4539680000000  0.4501810000000  0.4521130000000 1.0
C      1  0.4304940000000  0.4752890000000  0.4888240000000 1.0
C      1  0.5058740000000  0.4778280000000  0.5467200000000 1.0
C      1  0.5015780000000  0.5573030000000  0.5284210000000 1.0
C      1  0.5064820000000  0.4422260000000  0.4576040000000 1.0
C      1  0.5562190000000  0.5240850000000  0.5112030000000 1.0
C      1  0.5229770000000  0.5072500000000  0.5461860000000 1.0
C      1  0.5311040000000  0.4509030000000  0.5080690000000 1.0
C      1  0.5711010000000  0.4859090000000  0.5383770000000 1.0
C      1  0.4580660000000  0.4906410000000  0.5317750000000 1.0
C      1  0.5594570000000  0.4931910000000  0.4860620000000 1.0
C      1  0.5065990000000  0.4934740000000  0.4822180000000 1.0
C      1  0.4760320000000  0.5586550000000  0.5107640000000 1.0
C      1  0.4385100000000  0.5253170000000  0.5337370000000 1.0
C      1  0.5060610000000  0.4317330000000  0.5041400000000 1.0
C      1  0.4499180000000  0.5455720000000  0.5106470000000 1.0
C      1  0.4844760000000  0.4430320000000  0.4985040000000 1.0
C      1  0.5470280000000  0.5654810000000  0.4888140000000 1.0
C      1  0.5238580000000  0.5095110000000  0.4377210000000 1.0
C      1  0.5233330000000  0.5670550000000  0.5124480000000 1.0
C      1  0.4530470000000  0.4909210000000  0.4308060000000 1.0
C      1  0.5163150000000  0.5678570000000  0.4795240000000 1.0
C      1  0.5451950000000  0.4825260000000  0.5488400000000 1.0
C      1  0.5276540000000  0.4468360000000  0.4741460000000 1.0
C      1  0.5285870000000  0.5213370000000  0.5186460000000 1.0
C      1  0.4726960000000  0.5217520000000  0.5328620000000 1.0
C      1  0.4121820000000  0.4843470000000  0.5089920000000 1.0
C      1  0.4817140000000  0.4733270000000  0.4864630000000 1.0
C      1  0.5335360000000  0.4770300000000  0.4863130000000 1.0
C      1  0.5492220000000  0.5169110000000  0.4440090000000 1.0
C      1  0.5018810000000  0.4996790000000  0.4518820000000 1.0
C      1  0.4806700000000  0.4541630000000  0.4604850000000 1.0
C      1  0.5289070000000  0.4599960000000  0.5365610000000 1.0
C      1  0.4997410000000  0.5321160000000  0.5471570000000 1.0
C      1  0.5724390000000  0.4982910000000  0.5132210000000 1.0
C      1  0.4767890000000  0.4951790000000  0.4410520000000 1.0
C      1  0.4967130000000  0.5463770000000  0.4903330000000 1.0
C      1  0.5084010000000  0.5205010000000  0.4980410000000 1.0
C      1  0.4843860000000  0.5113430000000  0.5693490000000 1.0
C      1  0.4597840000000  0.5163470000000  0.5015830000000 1.0
C      1  0.4250730000000  0.4981980000000  0.5304420000000 1.0
C      1  0.4576290000000  0.4856530000000  0.4980240000000 1.0
C      1  0.5612440000000  0.5169280000000  0.4694220000000 1.0
C      1  0.4799270000000  0.4873440000000  0.5546000000000 1.0
C      1  0.5614160000000  0.5409990000000  0.4872380000000 1.0
END
