TITL C-2778431-5191-1467 0.0345038199713144 125000 -570.172746179467 0 0 99 (C1) n - 1
REM
REM in /home/nfs/bkarasulu/CARBON/AIRSS/Generating-Clusters/REBO/Only-C1/SD-CG/HFTN-CG
REM
REM
REM
REM
REM
REM ./C.cell (11c1c37f851c82e70ff6c80c92926a4b)
REM
REM compiler GCC version 9.2.1 20190827 (Red Hat 9.2.1-1)
REM options -cpp -mtune=generic -march=x86-64 -g -O0 -fpre-include=/usr/include/finclude/math-vector-fortran.h
REM seed -386831243 -762539689 -698918556 -338289474 -1191545245 1191261310 1093227234 -2082446340 1834235535 -1308003310 -919422333 -697525284 2030625464 -1086232866 -2027507123 -174460694 1325246494 -2070674174 -1492754582 1200998224 1043499193 794270139 1138411345 -1375120162 1670354554 -1113079460 -1267436055 -537110018 -315962980 1704668842 -1941270457 -1269917879 -437424148
REM
CELL 1.54180   50.00000   50.00000   50.00000   90.00000   90.00000   90.00000
LATT -1
SFAC C  
C      1  0.4150500000000  0.4907610000000  0.4802090000000 1.0
C      1  0.5135430000000  0.4666730000000  0.4052570000000 1.0
C      1  0.4439590000000  0.4887740000000  0.4657930000000 1.0
C      1  0.4696230000000  0.4408030000000  0.5304150000000 1.0
C      1  0.4468540000000  0.4479930000000  0.5517220000000 1.0
C      1  0.4580080000000  0.5025340000000  0.5128800000000 1.0
C      1  0.5865880000000  0.5110660000000  0.4518830000000 1.0
C      1  0.4892790000000  0.4301440000000  0.4449200000000 1.0
C      1  0.5273500000000  0.5401030000000  0.5715010000000 1.0
C      1  0.4691630000000  0.5412710000000  0.4568020000000 1.0
C      1  0.4377870000000  0.5203120000000  0.4695600000000 1.0
C      1  0.4862520000000  0.4692120000000  0.4045260000000 1.0
C      1  0.5014810000000  0.5224640000000  0.4899850000000 1.0
C      1  0.5988480000000  0.5076550000000  0.5215930000000 1.0
C      1  0.5269500000000  0.5389170000000  0.5267700000000 1.0
C      1  0.4635520000000  0.5499440000000  0.5049780000000 1.0
C      1  0.4122050000000  0.5181390000000  0.4999250000000 1.0
C      1  0.4372950000000  0.5248310000000  0.3696110000000 1.0
C      1  0.4507780000000  0.5436860000000  0.5525170000000 1.0
C      1  0.4044960000000  0.5008290000000  0.5253130000000 1.0
C      1  0.4935730000000  0.5399660000000  0.5184130000000 1.0
C      1  0.4681310000000  0.4087420000000  0.5227070000000 1.0
C      1  0.5000950000000  0.4807560000000  0.5809120000000 1.0
C      1  0.4817830000000  0.4940140000000  0.4540100000000 1.0
C      1  0.5736190000000  0.5384530000000  0.5235250000000 1.0
C      1  0.5225570000000  0.5962150000000  0.5236930000000 1.0
C      1  0.4919710000000  0.5608980000000  0.5452690000000 1.0
C      1  0.4887390000000  0.5168420000000  0.5431700000000 1.0
C      1  0.4531010000000  0.4531960000000  0.5034050000000 1.0
C      1  0.4422780000000  0.5142730000000  0.4222780000000 1.0
C      1  0.5473430000000  0.4360510000000  0.4743180000000 1.0
C      1  0.5478520000000  0.5284410000000  0.5042160000000 1.0
C      1  0.4763120000000  0.5855440000000  0.5373980000000 1.0
C      1  0.4443730000000  0.5265470000000  0.4997550000000 1.0
C      1  0.4979790000000  0.4808170000000  0.4877700000000 1.0
C      1  0.5334840000000  0.5059870000000  0.5339920000000 1.0
C      1  0.5943890000000  0.5245020000000  0.4768620000000 1.0
C      1  0.5256020000000  0.4883790000000  0.5623390000000 1.0
C      1  0.4941250000000  0.4491040000000  0.4797890000000 1.0
C      1  0.4538490000000  0.5879600000000  0.4742710000000 1.0
C      1  0.4548690000000  0.5103990000000  0.5460070000000 1.0
C      1  0.4268270000000  0.4475120000000  0.4978590000000 1.0
C      1  0.5674020000000  0.5071820000000  0.5318020000000 1.0
C      1  0.3942920000000  0.5381800000000  0.4924340000000 1.0
C      1  0.5596160000000  0.5119920000000  0.4421900000000 1.0
C      1  0.4904680000000  0.4559020000000  0.5765980000000 1.0
C      1  0.4793070000000  0.4600090000000  0.4522890000000 1.0
C      1  0.4430950000000  0.5343240000000  0.4433800000000 1.0
C      1  0.4899560000000  0.4005840000000  0.5079250000000 1.0
C      1  0.6011150000000  0.4855460000000  0.4528720000000 1.0
C      1  0.4640460000000  0.4793880000000  0.4906820000000 1.0
C      1  0.5101470000000  0.5163250000000  0.5667420000000 1.0
C      1  0.5363030000000  0.4418100000000  0.4425110000000 1.0
C      1  0.5634980000000  0.5557430000000  0.5456440000000 1.0
C      1  0.5569000000000  0.4642860000000  0.4876340000000 1.0
C      1  0.5683160000000  0.4777370000000  0.5404340000000 1.0
C      1  0.4627950000000  0.4938490000000  0.5738990000000 1.0
C      1  0.5364470000000  0.4652970000000  0.4219860000000 1.0
C      1  0.5895910000000  0.4614010000000  0.4933810000000 1.0
C      1  0.5495380000000  0.4893250000000  0.4288660000000 1.0
C      1  0.5309940000000  0.5164020000000  0.4828030000000 1.0
C      1  0.5119950000000  0.4226760000000  0.4371460000000 1.0
C      1  0.4630030000000  0.5336120000000  0.5775460000000 1.0
C      1  0.5559920000000  0.5418760000000  0.5691700000000 1.0
C      1  0.5390550000000  0.4646440000000  0.5435280000000 1.0
C      1  0.5146320000000  0.4779790000000  0.5255300000000 1.0
C      1  0.4500470000000  0.4690460000000  0.5759710000000 1.0
C      1  0.4397160000000  0.5197020000000  0.3951980000000 1.0
C      1  0.5684640000000  0.4555690000000  0.5182500000000 1.0
C      1  0.4856690000000  0.5108850000000  0.5876220000000 1.0
C      1  0.5379900000000  0.4212170000000  0.5002050000000 1.0
C      1  0.5311630000000  0.4857150000000  0.4815820000000 1.0
C      1  0.5167400000000  0.5621360000000  0.5576870000000 1.0
C      1  0.4688740000000  0.5648500000000  0.4783740000000 1.0
C      1  0.5602980000000  0.5574210000000  0.4677580000000 1.0
C      1  0.4959030000000  0.6038170000000  0.5266350000000 1.0
C      1  0.4475150000000  0.4886830000000  0.4340930000000 1.0
C      1  0.4059580000000  0.4666660000000  0.4936150000000 1.0
C      1  0.4236870000000  0.4968330000000  0.5449790000000 1.0
C      1  0.4992740000000  0.5651950000000  0.4669600000000 1.0
C      1  0.4845430000000  0.5190770000000  0.4645940000000 1.0
C      1  0.4671730000000  0.4707970000000  0.4252770000000 1.0
C      1  0.3914840000000  0.4765050000000  0.5166690000000 1.0
C      1  0.5752940000000  0.5431660000000  0.4904570000000 1.0
C      1  0.4546370000000  0.5634210000000  0.5320160000000 1.0
C      1  0.5228870000000  0.5600940000000  0.4554870000000 1.0
C      1  0.5091430000000  0.4208260000000  0.5033760000000 1.0
C      1  0.4914100000000  0.5003130000000  0.5142240000000 1.0
C      1  0.5454340000000  0.4349140000000  0.5277680000000 1.0
C      1  0.5461210000000  0.5814000000000  0.4576540000000 1.0
C      1  0.6071210000000  0.5056980000000  0.4945680000000 1.0
C      1  0.4980300000000  0.4506360000000  0.5136320000000 1.0
C      1  0.5229720000000  0.4570540000000  0.4681480000000 1.0
C      1  0.4242820000000  0.4706400000000  0.5571550000000 1.0
C      1  0.4938730000000  0.4388740000000  0.5543600000000 1.0
C      1  0.5371060000000  0.5706930000000  0.5352630000000 1.0
C      1  0.5411960000000  0.5313960000000  0.4575120000000 1.0
C      1  0.6069080000000  0.4794350000000  0.4810890000000 1.0
C      1  0.5186780000000  0.4305470000000  0.5467140000000 1.0
END
