TITL C-2778422-5617-642 -0.00411537986522452 125000 -1048.60767486933 0 0 180 (C1) n - 1
REM
REM in /home/nfs/bkarasulu/CARBON/AIRSS/Generating-Clusters/REBO/Only-C1/SD-CG/HFTN-CG
REM
REM
REM
REM
REM
REM ./C.cell (11c1c37f851c82e70ff6c80c92926a4b)
REM
REM compiler GCC version 9.2.1 20190827 (Red Hat 9.2.1-1)
REM options -cpp -mtune=generic -march=x86-64 -g -O0 -fpre-include=/usr/include/finclude/math-vector-fortran.h
REM seed 682557269 -1095077645 1903232878 -1272804094 -1628444993 1204594500 -21735719 818049105 -204247485 -45561595 -418457839 -29498540 1208494009 1971343390 1910728529 -788391474 963472089 -2143517134 -775951083 327506669 -1310175214 -989353854 45842059 -857586523 -25559820 -348698890 -1691934852 -1235753928 637264205 1809737030 -1915637455 -1891453367 -72612072
REM
CELL 1.54180   50.00000   50.00000   50.00000   90.00000   90.00000   90.00000
LATT -1
SFAC C  
C      1  0.5772760000000  0.5718530000000  0.4538570000000 1.0
C      1  0.5171480000000  0.5626080000000  0.5038950000000 1.0
C      1  0.5172130000000  0.4818600000000  0.4302140000000 1.0
C      1  0.4799800000000  0.4231050000000  0.5744840000000 1.0
C      1  0.5125900000000  0.6002410000000  0.5449900000000 1.0
C      1  0.5618270000000  0.4760640000000  0.5135890000000 1.0
C      1  0.5416590000000  0.5998040000000  0.5246610000000 1.0
C      1  0.5136840000000  0.3976560000000  0.5167060000000 1.0
C      1  0.5577920000000  0.5438350000000  0.4530310000000 1.0
C      1  0.5517480000000  0.4523890000000  0.5335840000000 1.0
C      1  0.5399990000000  0.4980520000000  0.5065350000000 1.0
C      1  0.5950200000000  0.4869300000000  0.4591620000000 1.0
C      1  0.5082280000000  0.4191700000000  0.5773000000000 1.0
C      1  0.4020380000000  0.5143860000000  0.4726410000000 1.0
C      1  0.5539830000000  0.4385620000000  0.5721040000000 1.0
C      1  0.4136210000000  0.5325140000000  0.4462830000000 1.0
C      1  0.4587570000000  0.5932020000000  0.5333430000000 1.0
C      1  0.4197780000000  0.5583490000000  0.5326230000000 1.0
C      1  0.5506160000000  0.4661870000000  0.4766330000000 1.0
C      1  0.4242480000000  0.5591890000000  0.4807970000000 1.0
C      1  0.4706070000000  0.4829810000000  0.5572260000000 1.0
C      1  0.4872880000000  0.5700370000000  0.5838230000000 1.0
C      1  0.4745270000000  0.4623640000000  0.4860260000000 1.0
C      1  0.4906270000000  0.5976080000000  0.4707260000000 1.0
C      1  0.5660510000000  0.5834970000000  0.5072160000000 1.0
C      1  0.5033320000000  0.5988370000000  0.5145370000000 1.0
C      1  0.4472300000000  0.5453000000000  0.5415120000000 1.0
C      1  0.5811880000000  0.5371070000000  0.5447360000000 1.0
C      1  0.4688960000000  0.5629730000000  0.4249250000000 1.0
C      1  0.5450460000000  0.5506020000000  0.5156750000000 1.0
C      1  0.4422260000000  0.5207870000000  0.5591220000000 1.0
C      1  0.5006350000000  0.4923530000000  0.5107320000000 1.0
C      1  0.5457390000000  0.4755580000000  0.4036030000000 1.0
C      1  0.4774000000000  0.5147250000000  0.4871950000000 1.0
C      1  0.5203770000000  0.5850710000000  0.4366290000000 1.0
C      1  0.4792700000000  0.4850450000000  0.4604990000000 1.0
C      1  0.5010620000000  0.5019800000000  0.3887280000000 1.0
C      1  0.5235500000000  0.5287610000000  0.5309380000000 1.0
C      1  0.4110570000000  0.4983680000000  0.5017920000000 1.0
C      1  0.4312080000000  0.4815810000000  0.5901600000000 1.0
C      1  0.4664410000000  0.4401060000000  0.5030570000000 1.0
C      1  0.4463720000000  0.5371830000000  0.5117640000000 1.0
C      1  0.5669380000000  0.5083130000000  0.5884350000000 1.0
C      1  0.4063040000000  0.4592510000000  0.4774380000000 1.0
C      1  0.5118700000000  0.5576560000000  0.5923800000000 1.0
C      1  0.5800420000000  0.4810350000000  0.4230650000000 1.0
C      1  0.5798070000000  0.5584840000000  0.4232420000000 1.0
C      1  0.5713210000000  0.4893160000000  0.4833770000000 1.0
C      1  0.4746190000000  0.5087570000000  0.3937670000000 1.0
C      1  0.5830330000000  0.4414520000000  0.4739350000000 1.0
C      1  0.4534550000000  0.5326830000000  0.4456770000000 1.0
C      1  0.4398740000000  0.4327750000000  0.4158800000000 1.0
C      1  0.5328310000000  0.6026140000000  0.4735190000000 1.0
C      1  0.4544030000000  0.5580210000000  0.4910440000000 1.0
C      1  0.5365700000000  0.5798960000000  0.5517690000000 1.0
C      1  0.4035840000000  0.5393920000000  0.5188240000000 1.0
C      1  0.5172780000000  0.5100790000000  0.5761610000000 1.0
C      1  0.5136520000000  0.4742050000000  0.3913070000000 1.0
C      1  0.5405890000000  0.4013360000000  0.4960550000000 1.0
C      1  0.5220310000000  0.4719280000000  0.4936110000000 1.0
C      1  0.4855700000000  0.4116510000000  0.5032830000000 1.0
C      1  0.5265980000000  0.6184900000000  0.5011930000000 1.0
C      1  0.4534600000000  0.4108250000000  0.5267490000000 1.0
C      1  0.4942080000000  0.4698770000000  0.4392780000000 1.0
C      1  0.5018190000000  0.4296910000000  0.4165950000000 1.0
C      1  0.5620100000000  0.5340750000000  0.5728980000000 1.0
C      1  0.4887050000000  0.5461440000000  0.5057540000000 1.0
C      1  0.5361730000000  0.4698420000000  0.6051100000000 1.0
C      1  0.5052500000000  0.4324600000000  0.5336120000000 1.0
C      1  0.4979480000000  0.5405760000000  0.5591360000000 1.0
C      1  0.5865040000000  0.5433550000000  0.4896960000000 1.0
C      1  0.5609350000000  0.4166000000000  0.4743710000000 1.0
C      1  0.5096650000000  0.4027600000000  0.4829930000000 1.0
C      1  0.4864810000000  0.5143760000000  0.5754140000000 1.0
C      1  0.5607270000000  0.5652560000000  0.5641730000000 1.0
C      1  0.4630410000000  0.5897630000000  0.4686780000000 1.0
C      1  0.5134640000000  0.4356850000000  0.4606870000000 1.0
C      1  0.5790380000000  0.5706710000000  0.4849110000000 1.0
C      1  0.4637330000000  0.4046070000000  0.4621720000000 1.0
C      1  0.4253990000000  0.5600920000000  0.4521920000000 1.0
C      1  0.5496330000000  0.4401390000000  0.4957900000000 1.0
C      1  0.6011980000000  0.4718110000000  0.5172390000000 1.0
C      1  0.5022730000000  0.4556690000000  0.4756850000000 1.0
C      1  0.4640340000000  0.5309760000000  0.4132090000000 1.0
C      1  0.3629180000000  0.5099940000000  0.5299320000000 1.0
C      1  0.4916980000000  0.5208410000000  0.5238600000000 1.0
C      1  0.4024900000000  0.4622220000000  0.5264200000000 1.0
C      1  0.5444970000000  0.4403290000000  0.4563100000000 1.0
C      1  0.4062660000000  0.5407490000000  0.4912020000000 1.0
C      1  0.4828000000000  0.5761400000000  0.5186080000000 1.0
C      1  0.4370190000000  0.4405760000000  0.5517330000000 1.0
C      1  0.4278410000000  0.4571160000000  0.5705200000000 1.0
C      1  0.5799050000000  0.4584100000000  0.4482040000000 1.0
C      1  0.5304730000000  0.5398810000000  0.5703450000000 1.0
C      1  0.4392820000000  0.5121670000000  0.4987560000000 1.0
C      1  0.4535420000000  0.4166180000000  0.5602770000000 1.0
C      1  0.6134930000000  0.4988270000000  0.4821120000000 1.0
C      1  0.4249020000000  0.4958730000000  0.5612540000000 1.0
C      1  0.5540010000000  0.5246670000000  0.5024160000000 1.0
C      1  0.4079160000000  0.4869860000000  0.5399770000000 1.0
C      1  0.5019970000000  0.5672250000000  0.4211660000000 1.0
C      1  0.4478450000000  0.4837430000000  0.4545870000000 1.0
C      1  0.5787050000000  0.4344680000000  0.5411510000000 1.0
C      1  0.5411660000000  0.5012610000000  0.4599830000000 1.0
C      1  0.5248230000000  0.4474540000000  0.5150640000000 1.0
C      1  0.5873840000000  0.4669630000000  0.5434980000000 1.0
C      1  0.5073740000000  0.5068970000000  0.4810990000000 1.0
C      1  0.5087430000000  0.5469860000000  0.4664770000000 1.0
C      1  0.5864820000000  0.5113040000000  0.4377620000000 1.0
C      1  0.5293150000000  0.5381650000000  0.4410750000000 1.0
C      1  0.4395660000000  0.4479430000000  0.5224570000000 1.0
C      1  0.4904010000000  0.5372940000000  0.4324890000000 1.0
C      1  0.5326330000000  0.5255960000000  0.4786940000000 1.0
C      1  0.4504210000000  0.5114900000000  0.4682380000000 1.0
C      1  0.4193400000000  0.4813240000000  0.6149310000000 1.0
C      1  0.5318270000000  0.5030550000000  0.5477590000000 1.0
C      1  0.4841030000000  0.5897390000000  0.5561730000000 1.0
C      1  0.5031610000000  0.3936320000000  0.4321880000000 1.0
C      1  0.3375920000000  0.5091780000000  0.5329570000000 1.0
C      1  0.4750380000000  0.5429340000000  0.4702580000000 1.0
C      1  0.5722350000000  0.4625050000000  0.5717510000000 1.0
C      1  0.5061230000000  0.4714330000000  0.5945220000000 1.0
C      1  0.4508690000000  0.5744420000000  0.4465230000000 1.0
C      1  0.4338910000000  0.4729200000000  0.5026080000000 1.0
C      1  0.5630680000000  0.5047060000000  0.4061880000000 1.0
C      1  0.4718750000000  0.5141170000000  0.5447140000000 1.0
C      1  0.5531090000000  0.4522260000000  0.4277670000000 1.0
C      1  0.4988290000000  0.6216490000000  0.4821270000000 1.0
C      1  0.4615270000000  0.4508570000000  0.3985830000000 1.0
C      1  0.3935780000000  0.4824280000000  0.4696740000000 1.0
C      1  0.4893070000000  0.4511960000000  0.3971660000000 1.0
C      1  0.5267130000000  0.4464200000000  0.5546660000000 1.0
C      1  0.3929250000000  0.5109600000000  0.5263470000000 1.0
C      1  0.4591480000000  0.4970180000000  0.5861670000000 1.0
C      1  0.4579040000000  0.4421680000000  0.4502780000000 1.0
C      1  0.4831820000000  0.4446670000000  0.4361510000000 1.0
C      1  0.4853850000000  0.4803830000000  0.6083900000000 1.0
C      1  0.6036280000000  0.4983530000000  0.5078730000000 1.0
C      1  0.4440850000000  0.4157390000000  0.4412270000000 1.0
C      1  0.5619880000000  0.4175520000000  0.5168260000000 1.0
C      1  0.5274900000000  0.4470060000000  0.4072080000000 1.0
C      1  0.5512040000000  0.4153630000000  0.5487100000000 1.0
C      1  0.4050300000000  0.4452480000000  0.5028990000000 1.0
C      1  0.5678690000000  0.5642400000000  0.5325590000000 1.0
C      1  0.4741210000000  0.5587420000000  0.5465540000000 1.0
C      1  0.5757390000000  0.5323250000000  0.4164990000000 1.0
C      1  0.4350260000000  0.4879040000000  0.4276440000000 1.0
C      1  0.4643370000000  0.5545070000000  0.5908840000000 1.0
C      1  0.5019580000000  0.4878780000000  0.5438930000000 1.0
C      1  0.4285420000000  0.4210380000000  0.5055590000000 1.0
C      1  0.4499630000000  0.5889510000000  0.5000860000000 1.0
C      1  0.5141810000000  0.5609310000000  0.5381770000000 1.0
C      1  0.4627580000000  0.4886380000000  0.4984920000000 1.0
C      1  0.4524710000000  0.5304730000000  0.5883810000000 1.0
C      1  0.5142030000000  0.5762340000000  0.4751400000000 1.0
C      1  0.5953680000000  0.4523720000000  0.4961690000000 1.0
C      1  0.5187920000000  0.5239260000000  0.3908840000000 1.0
C      1  0.4947680000000  0.5127920000000  0.4513190000000 1.0
C      1  0.4953650000000  0.4079670000000  0.4551060000000 1.0
C      1  0.5184470000000  0.5096320000000  0.4283320000000 1.0
C      1  0.5223470000000  0.5324750000000  0.6087790000000 1.0
C      1  0.5623930000000  0.4817670000000  0.5902720000000 1.0
C      1  0.5417870000000  0.5758780000000  0.4452630000000 1.0
C      1  0.5283270000000  0.4386110000000  0.5934140000000 1.0
C      1  0.4356880000000  0.4655150000000  0.4111020000000 1.0
C      1  0.5856510000000  0.5225210000000  0.5147960000000 1.0
C      1  0.5541750000000  0.4887100000000  0.4438010000000 1.0
C      1  0.4744080000000  0.4518790000000  0.5598670000000 1.0
C      1  0.5215820000000  0.4073310000000  0.5483330000000 1.0
C      1  0.5043700000000  0.4638830000000  0.5657760000000 1.0
C      1  0.5820070000000  0.5069270000000  0.5514340000000 1.0
C      1  0.5752840000000  0.5200040000000  0.4687980000000 1.0
C      1  0.4761030000000  0.4355420000000  0.5336380000000 1.0
C      1  0.4547940000000  0.4033880000000  0.4931180000000 1.0
C      1  0.4298870000000  0.5158890000000  0.4270070000000 1.0
C      1  0.5591920000000  0.4901560000000  0.5436650000000 1.0
C      1  0.4273660000000  0.5853270000000  0.5251930000000 1.0
C      1  0.5215090000000  0.5439200000000  0.4085430000000 1.0
C      1  0.4375960000000  0.4600400000000  0.4708950000000 1.0
C      1  0.5281750000000  0.5029200000000  0.6049720000000 1.0
END
