TITL C-2778434-4341-1221 0.00629850249454103 125000 -111.319435605658 0 0 20 (C1) n - 1
REM
REM in /home/nfs/bkarasulu/CARBON/AIRSS/Generating-Clusters/REBO/Only-C1/SD-CG/HFTN-CG
REM
REM
REM
REM
REM
REM ./C.cell (11c1c37f851c82e70ff6c80c92926a4b)
REM
REM compiler GCC version 9.2.1 20190827 (Red Hat 9.2.1-1)
REM options -cpp -mtune=generic -march=x86-64 -g -O0 -fpre-include=/usr/include/finclude/math-vector-fortran.h
REM seed -330089123 -191624677 -191853131 694154070 -394590932 -1559031151 1925438846 -1855953023 -1811526577 1070738748 -935013586 529804076 -1790098427 855056333 695466236 -517240960 -634376218 -747440530 559888312 -1595844994 178224176 432816561 1606696466 -267354604 1453395351 1051771668 1482962006 -660273919 1877618727 -923526203 -1313870463 1468814553 -224510401
REM
CELL 1.54180   50.00000   50.00000   50.00000   90.00000   90.00000   90.00000
LATT -1
SFAC C  
C      1  0.4068040000000  0.4534470000000  0.4777000000000 1.0
C      1  0.5848730000000  0.5698800000000  0.4952210000000 1.0
C      1  0.5358560000000  0.4624270000000  0.4800840000000 1.0
C      1  0.4535850000000  0.4743160000000  0.5019300000000 1.0
C      1  0.5149190000000  0.5452960000000  0.5113820000000 1.0
C      1  0.5385960000000  0.4807330000000  0.5014640000000 1.0
C      1  0.5322180000000  0.5711610000000  0.5095980000000 1.0
C      1  0.4696450000000  0.4912640000000  0.5173200000000 1.0
C      1  0.4940640000000  0.4812410000000  0.5270680000000 1.0
C      1  0.4416560000000  0.5310910000000  0.5160230000000 1.0
C      1  0.5604330000000  0.5610240000000  0.5008330000000 1.0
C      1  0.4633610000000  0.4530180000000  0.4797050000000 1.0
C      1  0.5147830000000  0.4489970000000  0.4694500000000 1.0
C      1  0.5438130000000  0.5339100000000  0.5024070000000 1.0
C      1  0.5203350000000  0.4769610000000  0.5227500000000 1.0
C      1  0.4663510000000  0.5197330000000  0.5173340000000 1.0
C      1  0.4880230000000  0.4456650000000  0.4703900000000 1.0
C      1  0.5488100000000  0.5067780000000  0.4987260000000 1.0
C      1  0.4899620000000  0.5350010000000  0.5161920000000 1.0
C      1  0.4319120000000  0.4580550000000  0.4844230000000 1.0
END
