TITL C-2778429-3646-238 0.00405425857163443 125000 -856.717158483837 0 0 145 (C1) n - 1
REM
REM in /home/nfs/bkarasulu/CARBON/AIRSS/Generating-Clusters/REBO/Only-C1/SD-CG/HFTN-CG
REM
REM
REM
REM
REM
REM ./C.cell (11c1c37f851c82e70ff6c80c92926a4b)
REM
REM compiler GCC version 9.2.1 20190827 (Red Hat 9.2.1-1)
REM options -cpp -mtune=generic -march=x86-64 -g -O0 -fpre-include=/usr/include/finclude/math-vector-fortran.h
REM seed 441512087 -1149670224 -671883372 971772088 774554944 -1516444127 785057169 -152156658 -820929908 2002083334 -2124666343 -59550527 1024173842 1145898922 -159409610 -110328828 27547591 1551070443 800395863 177412792 -1107925512 -1618434932 -743910327 1188228576 820579733 1502390629 -13100126 -691641740 289479640 -1500290583 1327611963 -1687643110 516281558
REM
CELL 1.54180   50.00000   50.00000   50.00000   90.00000   90.00000   90.00000
LATT -1
SFAC C  
C      1  0.3877500000000  0.5290110000000  0.5281370000000 1.0
C      1  0.4389550000000  0.4953990000000  0.5959220000000 1.0
C      1  0.4897770000000  0.5221650000000  0.4001040000000 1.0
C      1  0.5493460000000  0.5865130000000  0.4640170000000 1.0
C      1  0.5079780000000  0.5248320000000  0.4830100000000 1.0
C      1  0.5746260000000  0.4368320000000  0.4720130000000 1.0
C      1  0.5403970000000  0.5076330000000  0.5671760000000 1.0
C      1  0.6113980000000  0.5102230000000  0.4987630000000 1.0
C      1  0.4226540000000  0.4889710000000  0.5502500000000 1.0
C      1  0.4159750000000  0.5247860000000  0.4535540000000 1.0
C      1  0.5250770000000  0.4047200000000  0.4796690000000 1.0
C      1  0.5560300000000  0.4495890000000  0.4285920000000 1.0
C      1  0.5458820000000  0.4690100000000  0.4105080000000 1.0
C      1  0.5109050000000  0.5533800000000  0.5712150000000 1.0
C      1  0.4903060000000  0.5419280000000  0.5895430000000 1.0
C      1  0.5710680000000  0.5135620000000  0.5238270000000 1.0
C      1  0.4013870000000  0.4836180000000  0.5301750000000 1.0
C      1  0.4248930000000  0.4851720000000  0.4170980000000 1.0
C      1  0.5517680000000  0.4995510000000  0.4892780000000 1.0
C      1  0.5033780000000  0.5462860000000  0.3992850000000 1.0
C      1  0.5402820000000  0.5437680000000  0.5842610000000 1.0
C      1  0.5297590000000  0.5736400000000  0.4348930000000 1.0
C      1  0.4718210000000  0.4939050000000  0.4011390000000 1.0
C      1  0.4946070000000  0.3811590000000  0.5120040000000 1.0
C      1  0.4579380000000  0.4830780000000  0.4606810000000 1.0
C      1  0.5163580000000  0.4304150000000  0.4958390000000 1.0
C      1  0.4410510000000  0.6001460000000  0.5333110000000 1.0
C      1  0.4392620000000  0.4603670000000  0.5552990000000 1.0
C      1  0.5248520000000  0.4108050000000  0.5311700000000 1.0
C      1  0.5391920000000  0.5714670000000  0.5642130000000 1.0
C      1  0.5073300000000  0.5705090000000  0.4589630000000 1.0
C      1  0.5894200000000  0.5263230000000  0.4695190000000 1.0
C      1  0.4370740000000  0.4630960000000  0.5235410000000 1.0
C      1  0.5811650000000  0.4195550000000  0.4996950000000 1.0
C      1  0.5297200000000  0.5159970000000  0.5953070000000 1.0
C      1  0.4479370000000  0.4779830000000  0.4023830000000 1.0
C      1  0.4955910000000  0.4462170000000  0.4845660000000 1.0
C      1  0.4625430000000  0.5288270000000  0.4738960000000 1.0
C      1  0.5552300000000  0.5439180000000  0.4337880000000 1.0
C      1  0.5470920000000  0.5195080000000  0.4034210000000 1.0
C      1  0.5086220000000  0.5971260000000  0.5105060000000 1.0
C      1  0.4762740000000  0.5050140000000  0.5853560000000 1.0
C      1  0.5590390000000  0.5745620000000  0.4924760000000 1.0
C      1  0.5083990000000  0.6113610000000  0.4859710000000 1.0
C      1  0.4050750000000  0.4996110000000  0.4825160000000 1.0
C      1  0.5212380000000  0.5984780000000  0.4648730000000 1.0
C      1  0.4728860000000  0.3978530000000  0.4956550000000 1.0
C      1  0.4536460000000  0.6162810000000  0.4502340000000 1.0
C      1  0.5725440000000  0.5051200000000  0.5682230000000 1.0
C      1  0.5468210000000  0.5479900000000  0.4807630000000 1.0
C      1  0.4628720000000  0.4622150000000  0.5073090000000 1.0
C      1  0.5202690000000  0.3931530000000  0.5096020000000 1.0
C      1  0.5304520000000  0.5479690000000  0.4120790000000 1.0
C      1  0.4092170000000  0.4610070000000  0.5133230000000 1.0
C      1  0.5036480000000  0.5453200000000  0.5387260000000 1.0
C      1  0.4889520000000  0.5704300000000  0.4000590000000 1.0
C      1  0.4637150000000  0.5667930000000  0.4862760000000 1.0
C      1  0.5021720000000  0.5166430000000  0.6014490000000 1.0
C      1  0.4984450000000  0.4889930000000  0.5342090000000 1.0
C      1  0.5542030000000  0.5155190000000  0.4423940000000 1.0
C      1  0.5200310000000  0.5485680000000  0.4757760000000 1.0
C      1  0.4754330000000  0.4011760000000  0.4674680000000 1.0
C      1  0.4756080000000  0.5538040000000  0.5517940000000 1.0
C      1  0.4018220000000  0.4660690000000  0.4860920000000 1.0
C      1  0.5385050000000  0.4414440000000  0.5093940000000 1.0
C      1  0.5378860000000  0.5840630000000  0.5136340000000 1.0
C      1  0.4418210000000  0.4292870000000  0.5443440000000 1.0
C      1  0.4188880000000  0.4539830000000  0.4633830000000 1.0
C      1  0.5226050000000  0.5104560000000  0.5382100000000 1.0
C      1  0.5598670000000  0.5235450000000  0.4810170000000 1.0
C      1  0.4636800000000  0.4715450000000  0.5677380000000 1.0
C      1  0.4867250000000  0.4493700000000  0.5915670000000 1.0
C      1  0.5349420000000  0.4949230000000  0.4140840000000 1.0
C      1  0.4076590000000  0.5493260000000  0.5278270000000 1.0
C      1  0.5775980000000  0.4555300000000  0.4474370000000 1.0
C      1  0.4448770000000  0.5539850000000  0.5025900000000 1.0
C      1  0.4628520000000  0.5910290000000  0.4429940000000 1.0
C      1  0.4265670000000  0.5080300000000  0.5745320000000 1.0
C      1  0.4708250000000  0.3950760000000  0.5292680000000 1.0
C      1  0.6032200000000  0.4948500000000  0.4748370000000 1.0
C      1  0.5056120000000  0.4755050000000  0.4848110000000 1.0
C      1  0.4413310000000  0.5289540000000  0.4167230000000 1.0
C      1  0.5849250000000  0.5523540000000  0.4917500000000 1.0
C      1  0.4296130000000  0.4837220000000  0.4645220000000 1.0
C      1  0.4684440000000  0.5173100000000  0.4238150000000 1.0
C      1  0.4298120000000  0.5531090000000  0.5464150000000 1.0
C      1  0.4867790000000  0.4775510000000  0.5078030000000 1.0
C      1  0.5485180000000  0.4684880000000  0.5485870000000 1.0
C      1  0.4777890000000  0.5739890000000  0.4644700000000 1.0
C      1  0.4480760000000  0.4363340000000  0.4962060000000 1.0
C      1  0.4215220000000  0.5115680000000  0.4284100000000 1.0
C      1  0.4726750000000  0.4596650000000  0.4686580000000 1.0
C      1  0.5657190000000  0.4838090000000  0.5232780000000 1.0
C      1  0.5141660000000  0.4468430000000  0.6057530000000 1.0
C      1  0.4532630000000  0.4140000000000  0.4545530000000 1.0
C      1  0.4159910000000  0.5523340000000  0.5001060000000 1.0
C      1  0.4641270000000  0.5349880000000  0.5736700000000 1.0
C      1  0.4645460000000  0.4135580000000  0.5500790000000 1.0
C      1  0.5493730000000  0.4188460000000  0.4641190000000 1.0
C      1  0.4397380000000  0.5441500000000  0.4636490000000 1.0
C      1  0.4727750000000  0.5087540000000  0.4526200000000 1.0
C      1  0.5606110000000  0.4255330000000  0.5215260000000 1.0
C      1  0.4723990000000  0.5252100000000  0.5005340000000 1.0
C      1  0.4386570000000  0.4337650000000  0.4688950000000 1.0
C      1  0.5734540000000  0.4376820000000  0.5443390000000 1.0
C      1  0.5761910000000  0.5155580000000  0.4156120000000 1.0
C      1  0.5909890000000  0.5273240000000  0.5094040000000 1.0
C      1  0.5399280000000  0.4271350000000  0.4378440000000 1.0
C      1  0.5270010000000  0.4998150000000  0.4438520000000 1.0
C      1  0.5267370000000  0.4785910000000  0.4669320000000 1.0
C      1  0.5217200000000  0.5724860000000  0.5381570000000 1.0
C      1  0.5633360000000  0.5722270000000  0.4405700000000 1.0
C      1  0.3930360000000  0.5050330000000  0.5139420000000 1.0
C      1  0.4329040000000  0.4238680000000  0.5175350000000 1.0
C      1  0.4746540000000  0.4972800000000  0.5522770000000 1.0
C      1  0.4375380000000  0.5566130000000  0.4190890000000 1.0
C      1  0.4484680000000  0.5083520000000  0.5394930000000 1.0
C      1  0.5394580000000  0.4441870000000  0.5987020000000 1.0
C      1  0.5018500000000  0.5089800000000  0.4602850000000 1.0
C      1  0.4914240000000  0.4592920000000  0.5598260000000 1.0
C      1  0.4542220000000  0.5756740000000  0.5384870000000 1.0
C      1  0.4435680000000  0.5663710000000  0.4451960000000 1.0
C      1  0.5193190000000  0.4639930000000  0.5445510000000 1.0
C      1  0.5500910000000  0.4692940000000  0.4990680000000 1.0
C      1  0.4663930000000  0.4756340000000  0.5996340000000 1.0
C      1  0.4876420000000  0.5810980000000  0.5320240000000 1.0
C      1  0.4061100000000  0.5327260000000  0.4819600000000 1.0
C      1  0.4353390000000  0.5341000000000  0.5670640000000 1.0
C      1  0.5138440000000  0.4150280000000  0.4336450000000 1.0
C      1  0.4868430000000  0.4270430000000  0.5653150000000 1.0
C      1  0.5905940000000  0.4626750000000  0.5324010000000 1.0
C      1  0.5704020000000  0.4391740000000  0.6022200000000 1.0
C      1  0.5791550000000  0.4785150000000  0.5602330000000 1.0
C      1  0.5802480000000  0.4537620000000  0.5012600000000 1.0
C      1  0.5144370000000  0.4303450000000  0.5462760000000 1.0
C      1  0.4517110000000  0.5295570000000  0.5215610000000 1.0
C      1  0.5934180000000  0.4786700000000  0.4503050000000 1.0
C      1  0.5518300000000  0.5270030000000  0.5420000000000 1.0
C      1  0.5591130000000  0.4459360000000  0.5709720000000 1.0
C      1  0.5646190000000  0.5526360000000  0.5577500000000 1.0
C      1  0.5841090000000  0.5299830000000  0.5655370000000 1.0
C      1  0.5022720000000  0.4027520000000  0.4575030000000 1.0
C      1  0.5018690000000  0.5236880000000  0.5146320000000 1.0
C      1  0.5931560000000  0.5093830000000  0.4401460000000 1.0
C      1  0.4768610000000  0.5888420000000  0.4154440000000 1.0
END
