TITL C-2778430-5657-866 0.00525371187195669 125000 -886.273401642272 0 0 153 (C1) n - 1
REM
REM in /home/nfs/bkarasulu/CARBON/AIRSS/Generating-Clusters/REBO/Only-C1/SD-CG/HFTN-CG
REM
REM
REM
REM
REM
REM ./C.cell (11c1c37f851c82e70ff6c80c92926a4b)
REM
REM compiler GCC version 9.2.1 20190827 (Red Hat 9.2.1-1)
REM options -cpp -mtune=generic -march=x86-64 -g -O0 -fpre-include=/usr/include/finclude/math-vector-fortran.h
REM seed 685084767 205425564 1204192689 -1349244023 -404875374 1164948539 347378708 607344490 -216613243 -289020681 -1661444345 1363997666 -851312545 -1678973857 1482715650 -1097615577 -1905799169 454587347 889625181 1326309290 1151092772 1344208370 1157929269 1400190291 -2135070410 -1171845239 193989089 508732405 -1111458986 -1419544436 1282293374 -995629172 775718585
REM
CELL 1.54180   50.00000   50.00000   50.00000   90.00000   90.00000   90.00000
LATT -1
SFAC C  
C      1  0.5241450000000  0.5326280000000  0.5311750000000 1.0
C      1  0.4264000000000  0.5442720000000  0.5519890000000 1.0
C      1  0.4895290000000  0.4452950000000  0.5441210000000 1.0
C      1  0.4680120000000  0.4193720000000  0.5488320000000 1.0
C      1  0.4844540000000  0.4314270000000  0.5071860000000 1.0
C      1  0.4693930000000  0.4923410000000  0.4726610000000 1.0
C      1  0.5866290000000  0.5032660000000  0.4480010000000 1.0
C      1  0.5432370000000  0.5152790000000  0.5008700000000 1.0
C      1  0.4151560000000  0.5362200000000  0.4981480000000 1.0
C      1  0.5307490000000  0.6211750000000  0.5074660000000 1.0
C      1  0.5183210000000  0.6095080000000  0.5348200000000 1.0
C      1  0.5428280000000  0.4555790000000  0.4522920000000 1.0
C      1  0.5241480000000  0.5509810000000  0.4602010000000 1.0
C      1  0.5358410000000  0.5023590000000  0.5378750000000 1.0
C      1  0.4899270000000  0.5933580000000  0.4648050000000 1.0
C      1  0.3948590000000  0.4886030000000  0.5120420000000 1.0
C      1  0.4505940000000  0.5681990000000  0.4536410000000 1.0
C      1  0.5058440000000  0.4715220000000  0.5878160000000 1.0
C      1  0.4285450000000  0.5160160000000  0.5714190000000 1.0
C      1  0.5370620000000  0.4268430000000  0.4878740000000 1.0
C      1  0.4466030000000  0.4865140000000  0.5749710000000 1.0
C      1  0.4293770000000  0.4317440000000  0.5053680000000 1.0
C      1  0.5720840000000  0.4239000000000  0.5154790000000 1.0
C      1  0.5246400000000  0.4332770000000  0.4252290000000 1.0
C      1  0.4774570000000  0.5767580000000  0.4445470000000 1.0
C      1  0.5840490000000  0.4748810000000  0.5570340000000 1.0
C      1  0.4759970000000  0.5459820000000  0.5345010000000 1.0
C      1  0.5026210000000  0.5148470000000  0.4246590000000 1.0
C      1  0.4126340000000  0.4437010000000  0.4808900000000 1.0
C      1  0.5324450000000  0.5122000000000  0.4339730000000 1.0
C      1  0.4702680000000  0.4965720000000  0.4099400000000 1.0
C      1  0.4648560000000  0.4898520000000  0.4428960000000 1.0
C      1  0.4479030000000  0.5145450000000  0.4852970000000 1.0
C      1  0.4060800000000  0.5056060000000  0.5365280000000 1.0
C      1  0.5682830000000  0.5625020000000  0.4449930000000 1.0
C      1  0.4090680000000  0.4639480000000  0.5400590000000 1.0
C      1  0.4699490000000  0.5278990000000  0.5970000000000 1.0
C      1  0.4416120000000  0.4282260000000  0.5674760000000 1.0
C      1  0.5497540000000  0.4231170000000  0.5387320000000 1.0
C      1  0.3992880000000  0.4752030000000  0.4809370000000 1.0
C      1  0.5103080000000  0.5870050000000  0.5107610000000 1.0
C      1  0.5275450000000  0.4253730000000  0.4576270000000 1.0
C      1  0.5180650000000  0.4046640000000  0.5053130000000 1.0
C      1  0.4751860000000  0.4636030000000  0.4850360000000 1.0
C      1  0.5006290000000  0.5100600000000  0.5787360000000 1.0
C      1  0.5374640000000  0.5999290000000  0.4837020000000 1.0
C      1  0.4521860000000  0.4623680000000  0.4271420000000 1.0
C      1  0.4157850000000  0.4180950000000  0.5543960000000 1.0
C      1  0.4783230000000  0.4997820000000  0.5953250000000 1.0
C      1  0.5151030000000  0.4448590000000  0.5133780000000 1.0
C      1  0.5254740000000  0.5451020000000  0.4127540000000 1.0
C      1  0.5517590000000  0.5460300000000  0.4772990000000 1.0
C      1  0.6026730000000  0.4949350000000  0.4776720000000 1.0
C      1  0.4407930000000  0.5783980000000  0.4787100000000 1.0
C      1  0.5172490000000  0.4614110000000  0.4715040000000 1.0
C      1  0.5485660000000  0.4911250000000  0.4126230000000 1.0
C      1  0.4515600000000  0.4228210000000  0.4505440000000 1.0
C      1  0.5177790000000  0.5966180000000  0.4597710000000 1.0
C      1  0.4869600000000  0.5131180000000  0.4924890000000 1.0
C      1  0.4937650000000  0.5224100000000  0.5246680000000 1.0
C      1  0.5355860000000  0.5270530000000  0.5867710000000 1.0
C      1  0.4713190000000  0.5846110000000  0.5256570000000 1.0
C      1  0.4387270000000  0.4997260000000  0.4229970000000 1.0
C      1  0.5183710000000  0.5852380000000  0.5585300000000 1.0
C      1  0.5156970000000  0.5292840000000  0.4923260000000 1.0
C      1  0.6127590000000  0.5189980000000  0.4917990000000 1.0
C      1  0.4828540000000  0.5864150000000  0.4949910000000 1.0
C      1  0.4838290000000  0.5281090000000  0.4419400000000 1.0
C      1  0.4742750000000  0.4913970000000  0.5553350000000 1.0
C      1  0.5242800000000  0.5743290000000  0.4426800000000 1.0
C      1  0.4543770000000  0.5275110000000  0.4292400000000 1.0
C      1  0.5549720000000  0.5781490000000  0.4678790000000 1.0
C      1  0.4680670000000  0.4126550000000  0.4714800000000 1.0
C      1  0.5224790000000  0.4996470000000  0.4799980000000 1.0
C      1  0.4902050000000  0.5931360000000  0.5447770000000 1.0
C      1  0.5476060000000  0.5229310000000  0.3991290000000 1.0
C      1  0.4683020000000  0.4379650000000  0.5840870000000 1.0
C      1  0.5066860000000  0.4684930000000  0.4256080000000 1.0
C      1  0.5491010000000  0.4015270000000  0.5144670000000 1.0
C      1  0.5389360000000  0.4639110000000  0.4203140000000 1.0
C      1  0.4977260000000  0.4897480000000  0.5230190000000 1.0
C      1  0.4546110000000  0.4171360000000  0.4987420000000 1.0
C      1  0.3975230000000  0.4555280000000  0.5092070000000 1.0
C      1  0.5595560000000  0.4744480000000  0.5782520000000 1.0
C      1  0.4802510000000  0.5576290000000  0.4820450000000 1.0
C      1  0.5632390000000  0.5377100000000  0.5083910000000 1.0
C      1  0.4644200000000  0.5387230000000  0.5029480000000 1.0
C      1  0.4590940000000  0.4971420000000  0.5277940000000 1.0
C      1  0.5053860000000  0.4123420000000  0.5601700000000 1.0
C      1  0.6008330000000  0.5448110000000  0.4788540000000 1.0
C      1  0.5750790000000  0.5232060000000  0.4731060000000 1.0
C      1  0.4934710000000  0.4432110000000  0.4681520000000 1.0
C      1  0.5017760000000  0.4126350000000  0.4764650000000 1.0
C      1  0.5765740000000  0.5036230000000  0.5712780000000 1.0
C      1  0.5291740000000  0.5625390000000  0.5696690000000 1.0
C      1  0.5913770000000  0.4663080000000  0.5332430000000 1.0
C      1  0.4062990000000  0.4967200000000  0.4600220000000 1.0
C      1  0.5076210000000  0.4930710000000  0.5537320000000 1.0
C      1  0.5474340000000  0.4535440000000  0.5052680000000 1.0
C      1  0.5326700000000  0.4711280000000  0.5846770000000 1.0
C      1  0.5436240000000  0.5838750000000  0.5130950000000 1.0
C      1  0.4431690000000  0.4814600000000  0.5093420000000 1.0
C      1  0.4376380000000  0.5438220000000  0.4468900000000 1.0
C      1  0.5147190000000  0.4758140000000  0.5006790000000 1.0
C      1  0.5519020000000  0.5402510000000  0.4337960000000 1.0
C      1  0.5764890000000  0.5323730000000  0.5560430000000 1.0
C      1  0.5129430000000  0.5557700000000  0.5087110000000 1.0
C      1  0.6095800000000  0.5196440000000  0.5189990000000 1.0
C      1  0.5478750000000  0.5568340000000  0.5278250000000 1.0
C      1  0.5010230000000  0.4034600000000  0.5304690000000 1.0
C      1  0.4704510000000  0.4032330000000  0.5226270000000 1.0
C      1  0.4584590000000  0.5209920000000  0.5595710000000 1.0
C      1  0.4941440000000  0.4420350000000  0.4373170000000 1.0
C      1  0.5936180000000  0.5665120000000  0.4995840000000 1.0
C      1  0.5219640000000  0.4349120000000  0.5435230000000 1.0
C      1  0.4473640000000  0.5616620000000  0.5314940000000 1.0
C      1  0.5707380000000  0.5138190000000  0.4235440000000 1.0
C      1  0.5668620000000  0.4656150000000  0.4632610000000 1.0
C      1  0.5009720000000  0.5675950000000  0.4213480000000 1.0
C      1  0.5196060000000  0.4880750000000  0.4502450000000 1.0
C      1  0.5455880000000  0.5101500000000  0.5676510000000 1.0
C      1  0.4722580000000  0.4681000000000  0.5877470000000 1.0
C      1  0.5076380000000  0.5421930000000  0.5805500000000 1.0
C      1  0.5856390000000  0.5303200000000  0.5292030000000 1.0
C      1  0.5959390000000  0.4704650000000  0.4477140000000 1.0
C      1  0.4124440000000  0.4187020000000  0.5294580000000 1.0
C      1  0.4366640000000  0.5580130000000  0.5017500000000 1.0
C      1  0.4920740000000  0.4794250000000  0.4037990000000 1.0
C      1  0.5815250000000  0.4525620000000  0.5074250000000 1.0
C      1  0.4373510000000  0.5189900000000  0.5326580000000 1.0
C      1  0.4210240000000  0.5246110000000  0.4667340000000 1.0
C      1  0.4911610000000  0.4197630000000  0.5840320000000 1.0
C      1  0.4250650000000  0.4366300000000  0.4544050000000 1.0
C      1  0.5693290000000  0.4911970000000  0.4837170000000 1.0
C      1  0.5537950000000  0.5510930000000  0.5584190000000 1.0
C      1  0.4659940000000  0.4381320000000  0.4306740000000 1.0
C      1  0.5515120000000  0.4859960000000  0.5123480000000 1.0
C      1  0.5756780000000  0.5794120000000  0.5102020000000 1.0
C      1  0.4026730000000  0.5376760000000  0.5284020000000 1.0
C      1  0.4240750000000  0.4587060000000  0.4351350000000 1.0
C      1  0.5957780000000  0.4616030000000  0.4811230000000 1.0
C      1  0.4556760000000  0.4499930000000  0.5453290000000 1.0
C      1  0.5005520000000  0.4108240000000  0.6081300000000 1.0
C      1  0.4144540000000  0.4860960000000  0.4349210000000 1.0
C      1  0.4777930000000  0.5449530000000  0.5684520000000 1.0
C      1  0.4867110000000  0.5535590000000  0.3966180000000 1.0
C      1  0.5947560000000  0.5562620000000  0.4498760000000 1.0
C      1  0.4803290000000  0.4638640000000  0.5170680000000 1.0
C      1  0.4760630000000  0.5279570000000  0.4029410000000 1.0
C      1  0.4211040000000  0.5026340000000  0.4997840000000 1.0
C      1  0.4949930000000  0.5444620000000  0.4619020000000 1.0
C      1  0.4355550000000  0.4561300000000  0.5237040000000 1.0
C      1  0.4153150000000  0.4862690000000  0.5615340000000 1.0
END
