TITL C-2778431-5191-1356 -0.00035747497413838 125000 -1113.1695494201 0 0 187 (C1) n - 1
REM
REM in /home/nfs/bkarasulu/CARBON/AIRSS/Generating-Clusters/REBO/Only-C1/SD-CG/HFTN-CG
REM
REM
REM
REM
REM
REM ./C.cell (11c1c37f851c82e70ff6c80c92926a4b)
REM
REM compiler GCC version 9.2.1 20190827 (Red Hat 9.2.1-1)
REM options -cpp -mtune=generic -march=x86-64 -g -O0 -fpre-include=/usr/include/finclude/math-vector-fortran.h
REM seed 4247390 -238817154 1974254806 1275101439 -21002895 420039556 -1806996205 159611525 -1398266528 1925999363 1865536250 2064989486 -8684111 24442715 -913504214 1948120373 -779958674 849712461 100377135 24986694 1634192013 1937638351 -184812933 -1143144931 -1132338840 -1709544711 794277988 1621485292 -1143930296 -365535499 1505754183 -664336883 1970023560
REM
CELL 1.54180   50.00000   50.00000   50.00000   90.00000   90.00000   90.00000
LATT -1
SFAC C  
C      1  0.5990100000000  0.5721120000000  0.4431720000000 1.0
C      1  0.4497780000000  0.4937800000000  0.4624650000000 1.0
C      1  0.4064470000000  0.5363140000000  0.5073600000000 1.0
C      1  0.5551910000000  0.4108230000000  0.5570810000000 1.0
C      1  0.4579980000000  0.5779810000000  0.4329060000000 1.0
C      1  0.4478720000000  0.6057650000000  0.4719350000000 1.0
C      1  0.4811090000000  0.5788100000000  0.5797500000000 1.0
C      1  0.5102580000000  0.4722020000000  0.5763130000000 1.0
C      1  0.4588050000000  0.5640890000000  0.5897520000000 1.0
C      1  0.4948750000000  0.5016030000000  0.6159290000000 1.0
C      1  0.5281230000000  0.3993710000000  0.5304150000000 1.0
C      1  0.4779650000000  0.5492650000000  0.5287030000000 1.0
C      1  0.4531470000000  0.5181460000000  0.4003470000000 1.0
C      1  0.5416090000000  0.5573470000000  0.4632780000000 1.0
C      1  0.4316550000000  0.5206880000000  0.5926850000000 1.0
C      1  0.4859070000000  0.4500990000000  0.5869050000000 1.0
C      1  0.5316090000000  0.4379050000000  0.5404060000000 1.0
C      1  0.4922850000000  0.4942650000000  0.5565410000000 1.0
C      1  0.5230890000000  0.4454040000000  0.4483030000000 1.0
C      1  0.4471820000000  0.4245060000000  0.5723400000000 1.0
C      1  0.5270940000000  0.5177960000000  0.4352310000000 1.0
C      1  0.4423090000000  0.4919820000000  0.4043670000000 1.0
C      1  0.4067540000000  0.4616390000000  0.4994340000000 1.0
C      1  0.4615590000000  0.4714260000000  0.4014600000000 1.0
C      1  0.5590830000000  0.4130580000000  0.5254460000000 1.0
C      1  0.4876070000000  0.4010280000000  0.4971840000000 1.0
C      1  0.6014680000000  0.5009550000000  0.5408570000000 1.0
C      1  0.5584920000000  0.4706610000000  0.5003120000000 1.0
C      1  0.4628900000000  0.4925540000000  0.4386100000000 1.0
C      1  0.4750440000000  0.5456050000000  0.4979980000000 1.0
C      1  0.4192180000000  0.4793630000000  0.4170500000000 1.0
C      1  0.5010480000000  0.5209770000000  0.4777440000000 1.0
C      1  0.4196130000000  0.4907990000000  0.4635020000000 1.0
C      1  0.4457280000000  0.4698060000000  0.4965640000000 1.0
C      1  0.4505210000000  0.4294510000000  0.5213590000000 1.0
C      1  0.4518490000000  0.4477990000000  0.4135300000000 1.0
C      1  0.5567360000000  0.4470130000000  0.5220490000000 1.0
C      1  0.5715380000000  0.4848800000000  0.5743920000000 1.0
C      1  0.5694770000000  0.4303290000000  0.4660840000000 1.0
C      1  0.5378880000000  0.6029080000000  0.4484710000000 1.0
C      1  0.5061900000000  0.5733030000000  0.4228750000000 1.0
C      1  0.5170860000000  0.5221120000000  0.5708940000000 1.0
C      1  0.4889380000000  0.4779490000000  0.3958170000000 1.0
C      1  0.5059260000000  0.4557670000000  0.4006540000000 1.0
C      1  0.5203370000000  0.5465980000000  0.6021530000000 1.0
C      1  0.5372630000000  0.6079910000000  0.5311170000000 1.0
C      1  0.6044070000000  0.4946860000000  0.5125610000000 1.0
C      1  0.4641020000000  0.5169470000000  0.5938480000000 1.0
C      1  0.4747700000000  0.4224090000000  0.5871770000000 1.0
C      1  0.4481880000000  0.5481170000000  0.5689810000000 1.0
C      1  0.5013600000000  0.4255960000000  0.5438920000000 1.0
C      1  0.4113420000000  0.5616160000000  0.4246700000000 1.0
C      1  0.4263140000000  0.5254330000000  0.4818700000000 1.0
C      1  0.5830090000000  0.5886410000000  0.4647950000000 1.0
C      1  0.5827810000000  0.4997380000000  0.4639860000000 1.0
C      1  0.5841500000000  0.4590350000000  0.5285720000000 1.0
C      1  0.5255880000000  0.4258810000000  0.5085830000000 1.0
C      1  0.3988050000000  0.5076380000000  0.5352910000000 1.0
C      1  0.4922320000000  0.6068510000000  0.4545730000000 1.0
C      1  0.5776060000000  0.4973640000000  0.4960000000000 1.0
C      1  0.4744100000000  0.4654110000000  0.5615380000000 1.0
C      1  0.4709200000000  0.4884910000000  0.4874270000000 1.0
C      1  0.5307000000000  0.4937770000000  0.5669760000000 1.0
C      1  0.4422010000000  0.4457520000000  0.4742780000000 1.0
C      1  0.5630780000000  0.6057830000000  0.4889790000000 1.0
C      1  0.5528530000000  0.5410950000000  0.5397070000000 1.0
C      1  0.5174700000000  0.5170030000000  0.6105040000000 1.0
C      1  0.4389460000000  0.5185140000000  0.5214840000000 1.0
C      1  0.4296520000000  0.4212840000000  0.5031510000000 1.0
C      1  0.5387210000000  0.5460510000000  0.5653800000000 1.0
C      1  0.5083550000000  0.5506340000000  0.5032570000000 1.0
C      1  0.4788980000000  0.5562110000000  0.4261770000000 1.0
C      1  0.4481510000000  0.3894920000000  0.5188030000000 1.0
C      1  0.4981830000000  0.4761060000000  0.5214700000000 1.0
C      1  0.4357540000000  0.5609130000000  0.4684320000000 1.0
C      1  0.5507880000000  0.5008240000000  0.3958710000000 1.0
C      1  0.4590430000000  0.5077170000000  0.5389020000000 1.0
C      1  0.5652190000000  0.5438470000000  0.4202690000000 1.0
C      1  0.5433000000000  0.4390290000000  0.5721620000000 1.0
C      1  0.4867110000000  0.4329130000000  0.4584650000000 1.0
C      1  0.4142290000000  0.4586590000000  0.4659240000000 1.0
C      1  0.4342720000000  0.4907460000000  0.5947720000000 1.0
C      1  0.4204070000000  0.5376200000000  0.5707070000000 1.0
C      1  0.4841190000000  0.6045190000000  0.5082890000000 1.0
C      1  0.5090120000000  0.3839240000000  0.5097170000000 1.0
C      1  0.4439620000000  0.4545630000000  0.5652280000000 1.0
C      1  0.5546190000000  0.4803460000000  0.4685570000000 1.0
C      1  0.5040470000000  0.6146560000000  0.4825520000000 1.0
C      1  0.5559900000000  0.5816440000000  0.4514780000000 1.0
C      1  0.4854650000000  0.4491510000000  0.5360390000000 1.0
C      1  0.4704250000000  0.4601810000000  0.4670500000000 1.0
C      1  0.5247230000000  0.5719310000000  0.5644190000000 1.0
C      1  0.5427700000000  0.5396030000000  0.4396160000000 1.0
C      1  0.5746660000000  0.5133690000000  0.5791650000000 1.0
C      1  0.5236020000000  0.4859160000000  0.5145450000000 1.0
C      1  0.5843220000000  0.5469600000000  0.5012270000000 1.0
C      1  0.4069160000000  0.5190980000000  0.4559800000000 1.0
C      1  0.5219840000000  0.4065520000000  0.5631760000000 1.0
C      1  0.5012260000000  0.4271900000000  0.4888260000000 1.0
C      1  0.5201490000000  0.5812220000000  0.5350400000000 1.0
C      1  0.5449500000000  0.3803990000000  0.4734850000000 1.0
C      1  0.4703620000000  0.4244050000000  0.4229890000000 1.0
C      1  0.5950250000000  0.5261650000000  0.4569740000000 1.0
C      1  0.5149560000000  0.4800740000000  0.4304800000000 1.0
C      1  0.4246080000000  0.4767180000000  0.5722770000000 1.0
C      1  0.5163150000000  0.3787520000000  0.4805100000000 1.0
C      1  0.5422010000000  0.4991730000000  0.5974610000000 1.0
C      1  0.3956490000000  0.4950760000000  0.4178490000000 1.0
C      1  0.4425460000000  0.4220760000000  0.4422310000000 1.0
C      1  0.4863500000000  0.5201410000000  0.5769010000000 1.0
C      1  0.4656060000000  0.6003450000000  0.4499800000000 1.0
C      1  0.4827030000000  0.5316460000000  0.4028780000000 1.0
C      1  0.4715170000000  0.4041460000000  0.4495930000000 1.0
C      1  0.5463170000000  0.4832730000000  0.4387610000000 1.0
C      1  0.3921790000000  0.5176040000000  0.4335170000000 1.0
C      1  0.5733880000000  0.5565630000000  0.5292450000000 1.0
C      1  0.4319660000000  0.5517850000000  0.5228300000000 1.0
C      1  0.4809660000000  0.4080160000000  0.5603980000000 1.0
C      1  0.4492300000000  0.5656020000000  0.6150260000000 1.0
C      1  0.5223100000000  0.4694520000000  0.4680810000000 1.0
C      1  0.5808550000000  0.5773590000000  0.4949370000000 1.0
C      1  0.4752710000000  0.5895420000000  0.5534170000000 1.0
C      1  0.4888810000000  0.5087430000000  0.5010550000000 1.0
C      1  0.3976400000000  0.4875360000000  0.4877370000000 1.0
C      1  0.5623310000000  0.6044350000000  0.5205650000000 1.0
C      1  0.3917110000000  0.5073200000000  0.5061160000000 1.0
C      1  0.4448560000000  0.5768080000000  0.5138180000000 1.0
C      1  0.4917080000000  0.4995160000000  0.4357630000000 1.0
C      1  0.4528340000000  0.4074710000000  0.5447230000000 1.0
C      1  0.5335190000000  0.4526090000000  0.4178950000000 1.0
C      1  0.4415460000000  0.4132890000000  0.4739240000000 1.0
C      1  0.5119510000000  0.5495840000000  0.4050750000000 1.0
C      1  0.4979890000000  0.4376410000000  0.4266650000000 1.0
C      1  0.5092300000000  0.5491750000000  0.5355240000000 1.0
C      1  0.4992410000000  0.5049890000000  0.3969410000000 1.0
C      1  0.4676270000000  0.4834080000000  0.5269940000000 1.0
C      1  0.4726330000000  0.4502630000000  0.5054560000000 1.0
C      1  0.4391370000000  0.5829310000000  0.4864860000000 1.0
C      1  0.5948680000000  0.5222500000000  0.5599290000000 1.0
C      1  0.5624260000000  0.5245120000000  0.4990270000000 1.0
C      1  0.5122260000000  0.5960320000000  0.4377710000000 1.0
C      1  0.5020420000000  0.3961350000000  0.4602440000000 1.0
C      1  0.5899420000000  0.5455230000000  0.4360060000000 1.0
C      1  0.5608760000000  0.4427080000000  0.4355380000000 1.0
C      1  0.5211190000000  0.5030000000000  0.4623260000000 1.0
C      1  0.5153850000000  0.5714010000000  0.4778850000000 1.0
C      1  0.5221000000000  0.4537570000000  0.6025010000000 1.0
C      1  0.4967710000000  0.5485790000000  0.4652770000000 1.0
C      1  0.4462740000000  0.4579430000000  0.5342330000000 1.0
C      1  0.5862990000000  0.4772570000000  0.5505150000000 1.0
C      1  0.4930480000000  0.4688510000000  0.6121820000000 1.0
C      1  0.6053410000000  0.5376290000000  0.4802170000000 1.0
C      1  0.5501240000000  0.4670250000000  0.5890700000000 1.0
C      1  0.5218130000000  0.4222960000000  0.5927280000000 1.0
C      1  0.5927820000000  0.4720710000000  0.4543500000000 1.0
C      1  0.4325080000000  0.5670430000000  0.4404900000000 1.0
C      1  0.4256260000000  0.4508880000000  0.4348240000000 1.0
C      1  0.4098490000000  0.5356070000000  0.5429250000000 1.0
C      1  0.5774890000000  0.5843150000000  0.5340270000000 1.0
C      1  0.4773220000000  0.5288940000000  0.4466430000000 1.0
C      1  0.5258320000000  0.5099220000000  0.4065160000000 1.0
C      1  0.5232290000000  0.4146050000000  0.4521270000000 1.0
C      1  0.4643630000000  0.4873280000000  0.6102960000000 1.0
C      1  0.5497000000000  0.5313960000000  0.5920910000000 1.0
C      1  0.4985330000000  0.4597370000000  0.4852160000000 1.0
C      1  0.5346410000000  0.5051930000000  0.4924030000000 1.0
C      1  0.5494550000000  0.4046210000000  0.4581480000000 1.0
C      1  0.5347790000000  0.5387940000000  0.4896390000000 1.0
C      1  0.5130470000000  0.5902540000000  0.5048580000000 1.0
C      1  0.5074110000000  0.5689650000000  0.5869210000000 1.0
C      1  0.5801820000000  0.4639920000000  0.4301280000000 1.0
C      1  0.4632490000000  0.5356740000000  0.5481830000000 1.0
C      1  0.5363530000000  0.5207900000000  0.5289000000000 1.0
C      1  0.5401430000000  0.4918020000000  0.5389560000000 1.0
C      1  0.4573650000000  0.5369650000000  0.4733690000000 1.0
C      1  0.5405560000000  0.5465530000000  0.4004080000000 1.0
C      1  0.4659080000000  0.5921720000000  0.5262100000000 1.0
C      1  0.5025540000000  0.5153190000000  0.5315310000000 1.0
C      1  0.5913750000000  0.4530740000000  0.4759060000000 1.0
C      1  0.5366160000000  0.6154910000000  0.4751160000000 1.0
C      1  0.5658440000000  0.4861050000000  0.4149870000000 1.0
C      1  0.4094230000000  0.4836440000000  0.5471180000000 1.0
C      1  0.5984790000000  0.4638770000000  0.5022350000000 1.0
C      1  0.5551800000000  0.4223200000000  0.4929500000000 1.0
C      1  0.4169450000000  0.4645330000000  0.5255760000000 1.0
C      1  0.4338100000000  0.4993690000000  0.4997240000000 1.0
C      1  0.4602090000000  0.3968900000000  0.4951480000000 1.0
END
