TITL C-2778437-8639-1006 -6.32118308675931e-08 125000 -56.3466559927762 0 0 11 (Cs) n - 1
REM
REM in /home/nfs/bkarasulu/CARBON/AIRSS/Generating-Clusters/REBO/Only-C1/SD-CG/HFTN-CG
REM
REM
REM
REM
REM
REM ./C.cell (11c1c37f851c82e70ff6c80c92926a4b)
REM
REM compiler GCC version 9.2.1 20190827 (Red Hat 9.2.1-1)
REM options -cpp -mtune=generic -march=x86-64 -g -O0 -fpre-include=/usr/include/finclude/math-vector-fortran.h
REM seed 1342126263 -2053208624 -2075410468 -74025871 495171997 -1933101965 1657048876 36006775 1282261084 1024526458 754362878 -1351258588 -1540796462 -1326154401 -1065786700 134059892 -635444124 -1824199382 1948351637 -715488081 247491122 -790232690 1852207286 882560520 -392691282 -172811841 -1681286919 227336364 1115326367 1412863358 135075929 -470807843 -26368947
REM
CELL 1.54180   50.00000   50.00000   50.00000   90.00000   90.00000   90.00000
LATT -1
SFAC C  
C      1  0.5030770000000  0.4589030000000  0.5624380000000 1.0
C      1  0.4643460000000  0.5246250000000  0.4523490000000 1.0
C      1  0.4294080000000  0.5415170000000  0.4164890000000 1.0
C      1  0.5356700000000  0.4901410000000  0.5255570000000 1.0
C      1  0.5330960000000  0.4574260000000  0.5737380000000 1.0
C      1  0.4995630000000  0.5075980000000  0.4884960000000 1.0
C      1  0.5270270000000  0.4744230000000  0.5464630000000 1.0
C      1  0.5619510000000  0.4970320000000  0.5232030000000 1.0
C      1  0.4467370000000  0.5331390000000  0.4342750000000 1.0
C      1  0.4819540000000  0.5161120000000  0.4704220000000 1.0
C      1  0.5171710000000  0.4990850000000  0.5065700000000 1.0
END
