TITL C-2778434-4341-1009 -0.0104412378753913 125000 -1091.2051849813 0 0 187 (C1) n - 1
REM
REM in /home/nfs/bkarasulu/CARBON/AIRSS/Generating-Clusters/REBO/Only-C1/SD-CG/HFTN-CG
REM
REM
REM
REM
REM
REM ./C.cell (11c1c37f851c82e70ff6c80c92926a4b)
REM
REM compiler GCC version 9.2.1 20190827 (Red Hat 9.2.1-1)
REM options -cpp -mtune=generic -march=x86-64 -g -O0 -fpre-include=/usr/include/finclude/math-vector-fortran.h
REM seed -1170334683 654200417 1727571184 -568668014 -373765350 1509451853 1233318938 996899344 1802382458 873119643 -397644254 50983234 -1686777404 127552117 -1489093410 -757778742 -664876615 1755060134 1220807673 -1441847483 -1371441116 -339724209 -362629758 1266920824 -1389124978 1964811752 -54977695 1317449833 1003414541 -1982640870 -132104698 970631173 532390396
REM
CELL 1.54180   50.00000   50.00000   50.00000   90.00000   90.00000   90.00000
LATT -1
SFAC C  
C      1  0.5697820000000  0.4947760000000  0.5983140000000 1.0
C      1  0.4540120000000  0.4668970000000  0.4476380000000 1.0
C      1  0.4599290000000  0.5901370000000  0.4465130000000 1.0
C      1  0.5277430000000  0.5260350000000  0.5173640000000 1.0
C      1  0.5898050000000  0.5737060000000  0.5466620000000 1.0
C      1  0.4516340000000  0.4825390000000  0.4109150000000 1.0
C      1  0.6108280000000  0.5292560000000  0.4598370000000 1.0
C      1  0.5286670000000  0.5722220000000  0.4230780000000 1.0
C      1  0.4280400000000  0.4647130000000  0.4396050000000 1.0
C      1  0.4038790000000  0.4582750000000  0.5325280000000 1.0
C      1  0.4545150000000  0.4645240000000  0.5621600000000 1.0
C      1  0.3982170000000  0.5237600000000  0.4440030000000 1.0
C      1  0.4165930000000  0.5029680000000  0.5748670000000 1.0
C      1  0.5917810000000  0.5255580000000  0.5500100000000 1.0
C      1  0.4521320000000  0.3899360000000  0.5323050000000 1.0
C      1  0.4414890000000  0.5437890000000  0.5669360000000 1.0
C      1  0.5757660000000  0.5060900000000  0.5691130000000 1.0
C      1  0.4315030000000  0.5945590000000  0.5393630000000 1.0
C      1  0.5353830000000  0.3849530000000  0.4780800000000 1.0
C      1  0.4741220000000  0.4343680000000  0.4601840000000 1.0
C      1  0.4042620000000  0.5317330000000  0.5332090000000 1.0
C      1  0.4622670000000  0.5464920000000  0.5862430000000 1.0
C      1  0.5403880000000  0.4933640000000  0.4304400000000 1.0
C      1  0.5179840000000  0.4366060000000  0.5671390000000 1.0
C      1  0.5112140000000  0.5013660000000  0.5314390000000 1.0
C      1  0.3932950000000  0.4866740000000  0.5094670000000 1.0
C      1  0.4270360000000  0.4535800000000  0.5577820000000 1.0
C      1  0.4748950000000  0.5160840000000  0.4031800000000 1.0
C      1  0.4693770000000  0.4409520000000  0.5800990000000 1.0
C      1  0.5578980000000  0.4515780000000  0.5788410000000 1.0
C      1  0.5670170000000  0.4408160000000  0.5538350000000 1.0
C      1  0.4714550000000  0.4313080000000  0.4999170000000 1.0
C      1  0.5522870000000  0.4720020000000  0.5981390000000 1.0
C      1  0.4446160000000  0.5519710000000  0.4245230000000 1.0
C      1  0.5047840000000  0.6080770000000  0.4995700000000 1.0
C      1  0.5117610000000  0.4929460000000  0.5009160000000 1.0
C      1  0.4926000000000  0.4106680000000  0.5504350000000 1.0
C      1  0.4639370000000  0.5325400000000  0.4536360000000 1.0
C      1  0.4949120000000  0.5690750000000  0.4201300000000 1.0
C      1  0.5681350000000  0.5736220000000  0.4613560000000 1.0
C      1  0.4825700000000  0.5767060000000  0.4638250000000 1.0
C      1  0.6162430000000  0.4943000000000  0.4985570000000 1.0
C      1  0.4489380000000  0.4079380000000  0.4438410000000 1.0
C      1  0.5424800000000  0.6390040000000  0.5364550000000 1.0
C      1  0.5451450000000  0.4714590000000  0.4635330000000 1.0
C      1  0.5100010000000  0.4640870000000  0.5642940000000 1.0
C      1  0.5562610000000  0.5673500000000  0.5127090000000 1.0
C      1  0.5944830000000  0.4483730000000  0.5132970000000 1.0
C      1  0.4066290000000  0.4765460000000  0.4556100000000 1.0
C      1  0.4187720000000  0.4881400000000  0.4915390000000 1.0
C      1  0.5479690000000  0.5355720000000  0.5427960000000 1.0
C      1  0.6272670000000  0.5140970000000  0.4763390000000 1.0
C      1  0.4625510000000  0.5985550000000  0.5442300000000 1.0
C      1  0.5615690000000  0.5921970000000  0.4822510000000 1.0
C      1  0.5028170000000  0.5192260000000  0.4869700000000 1.0
C      1  0.5086870000000  0.5929660000000  0.4384680000000 1.0
C      1  0.5018650000000  0.4191550000000  0.4738560000000 1.0
C      1  0.4301740000000  0.4629900000000  0.4794560000000 1.0
C      1  0.4644360000000  0.4295240000000  0.4302480000000 1.0
C      1  0.5294970000000  0.4217890000000  0.4920700000000 1.0
C      1  0.4932170000000  0.5477550000000  0.4564700000000 1.0
C      1  0.5740920000000  0.4881390000000  0.4238000000000 1.0
C      1  0.4886220000000  0.5037420000000  0.5849480000000 1.0
C      1  0.5484340000000  0.5310110000000  0.4400190000000 1.0
C      1  0.5788510000000  0.5448030000000  0.4163920000000 1.0
C      1  0.4333580000000  0.5053530000000  0.5352040000000 1.0
C      1  0.4713150000000  0.4820880000000  0.4637830000000 1.0
C      1  0.5647180000000  0.4294460000000  0.4749670000000 1.0
C      1  0.5574800000000  0.3847540000000  0.4988790000000 1.0
C      1  0.4571800000000  0.4968630000000  0.5519670000000 1.0
C      1  0.5513640000000  0.5022690000000  0.5378120000000 1.0
C      1  0.4618250000000  0.5547800000000  0.4798150000000 1.0
C      1  0.3809890000000  0.5452540000000  0.4413750000000 1.0
C      1  0.4248570000000  0.5645940000000  0.4684910000000 1.0
C      1  0.5178120000000  0.4488130000000  0.5188510000000 1.0
C      1  0.5796840000000  0.5207130000000  0.4624440000000 1.0
C      1  0.4383450000000  0.5735050000000  0.4418100000000 1.0
C      1  0.4501610000000  0.5518170000000  0.5412900000000 1.0
C      1  0.3842670000000  0.5079170000000  0.4885690000000 1.0
C      1  0.4590470000000  0.5374460000000  0.5034340000000 1.0
C      1  0.6074380000000  0.5068630000000  0.5273030000000 1.0
C      1  0.4873870000000  0.5643510000000  0.5782580000000 1.0
C      1  0.5472130000000  0.4584560000000  0.5118450000000 1.0
C      1  0.5107260000000  0.5203680000000  0.5674420000000 1.0
C      1  0.4766740000000  0.5119090000000  0.5026730000000 1.0
C      1  0.5208100000000  0.5678880000000  0.5397990000000 1.0
C      1  0.5664060000000  0.4288460000000  0.4027090000000 1.0
C      1  0.5069830000000  0.4508180000000  0.4138900000000 1.0
C      1  0.5760890000000  0.5509370000000  0.5336310000000 1.0
C      1  0.5705910000000  0.4418460000000  0.4984340000000 1.0
C      1  0.4437980000000  0.4963560000000  0.5833890000000 1.0
C      1  0.5420500000000  0.5099440000000  0.5739470000000 1.0
C      1  0.4018720000000  0.4979130000000  0.5371810000000 1.0
C      1  0.5045980000000  0.4450640000000  0.4550740000000 1.0
C      1  0.5889170000000  0.4861150000000  0.5469560000000 1.0
C      1  0.4815110000000  0.4825810000000  0.4235860000000 1.0
C      1  0.5232300000000  0.4132630000000  0.5429450000000 1.0
C      1  0.4541050000000  0.4802230000000  0.6038210000000 1.0
C      1  0.4994310000000  0.5466750000000  0.5538220000000 1.0
C      1  0.5390800000000  0.4137400000000  0.4602690000000 1.0
C      1  0.4544970000000  0.3980840000000  0.4704870000000 1.0
C      1  0.4808110000000  0.5078190000000  0.5361990000000 1.0
C      1  0.5172000000000  0.5352860000000  0.4109640000000 1.0
C      1  0.5269510000000  0.4866250000000  0.5540050000000 1.0
C      1  0.4025140000000  0.4768890000000  0.5614190000000 1.0
C      1  0.4128790000000  0.5664830000000  0.4992680000000 1.0
C      1  0.5121820000000  0.5835860000000  0.5188950000000 1.0
C      1  0.5030630000000  0.5107570000000  0.3998730000000 1.0
C      1  0.5198450000000  0.4265030000000  0.5931270000000 1.0
C      1  0.5520660000000  0.5173030000000  0.4092330000000 1.0
C      1  0.4362820000000  0.4077000000000  0.5176790000000 1.0
C      1  0.4807280000000  0.4362050000000  0.5528140000000 1.0
C      1  0.4670520000000  0.5130110000000  0.4315000000000 1.0
C      1  0.5740550000000  0.4894110000000  0.4669020000000 1.0
C      1  0.4687960000000  0.5232100000000  0.5988770000000 1.0
C      1  0.4609510000000  0.4680790000000  0.5114320000000 1.0
C      1  0.4983870000000  0.4651410000000  0.4976640000000 1.0
C      1  0.5121570000000  0.6047860000000  0.5525290000000 1.0
C      1  0.5561310000000  0.5230600000000  0.6026560000000 1.0
C      1  0.5476860000000  0.5591240000000  0.4443490000000 1.0
C      1  0.4570340000000  0.6049730000000  0.5110870000000 1.0
C      1  0.5264770000000  0.4797950000000  0.6077300000000 1.0
C      1  0.4095180000000  0.4108120000000  0.4785990000000 1.0
C      1  0.5684320000000  0.4833540000000  0.5205510000000 1.0
C      1  0.5530600000000  0.4220790000000  0.5382460000000 1.0
C      1  0.5947910000000  0.4708190000000  0.4509730000000 1.0
C      1  0.5538900000000  0.4395620000000  0.4232240000000 1.0
C      1  0.5046820000000  0.5462370000000  0.5067720000000 1.0
C      1  0.5223830000000  0.5382070000000  0.4694920000000 1.0
C      1  0.4816080000000  0.6217140000000  0.5039860000000 1.0
C      1  0.4657340000000  0.4869940000000  0.4909590000000 1.0
C      1  0.4223830000000  0.5186890000000  0.4853370000000 1.0
C      1  0.5486810000000  0.4107880000000  0.5108060000000 1.0
C      1  0.4648860000000  0.4548370000000  0.6052900000000 1.0
C      1  0.5681960000000  0.5328480000000  0.4873160000000 1.0
C      1  0.5359700000000  0.5096060000000  0.4601410000000 1.0
C      1  0.5263370000000  0.5302960000000  0.6044730000000 1.0
C      1  0.5117930000000  0.4716660000000  0.4669110000000 1.0
C      1  0.4847310000000  0.4765570000000  0.5723090000000 1.0
C      1  0.5880820000000  0.4550820000000  0.5407620000000 1.0
C      1  0.3932830000000  0.5015710000000  0.4614550000000 1.0
C      1  0.5348560000000  0.6125780000000  0.5344480000000 1.0
C      1  0.5165810000000  0.5715940000000  0.4898690000000 1.0
C      1  0.5852790000000  0.5130900000000  0.4085030000000 1.0
C      1  0.5072820000000  0.5953270000000  0.4698000000000 1.0
C      1  0.5128570000000  0.5046150000000  0.6041390000000 1.0
C      1  0.5145320000000  0.4828020000000  0.4152150000000 1.0
C      1  0.4260710000000  0.4321160000000  0.5310020000000 1.0
C      1  0.4340100000000  0.4044110000000  0.4893660000000 1.0
C      1  0.4354720000000  0.4632640000000  0.5202880000000 1.0
C      1  0.4797690000000  0.5413340000000  0.5294970000000 1.0
C      1  0.5440920000000  0.5540640000000  0.4865350000000 1.0
C      1  0.4982500000000  0.4956650000000  0.4493820000000 1.0
C      1  0.5091620000000  0.4016050000000  0.4260880000000 1.0
C      1  0.6162280000000  0.4624840000000  0.5007600000000 1.0
C      1  0.3961130000000  0.5369240000000  0.5005240000000 1.0
C      1  0.4514590000000  0.4445010000000  0.4806490000000 1.0
C      1  0.5636630000000  0.4619300000000  0.4398830000000 1.0
C      1  0.5048660000000  0.5242310000000  0.4373770000000 1.0
C      1  0.4956390000000  0.4237080000000  0.5128740000000 1.0
C      1  0.4235180000000  0.5985560000000  0.5063930000000 1.0
C      1  0.4337590000000  0.4996730000000  0.4139600000000 1.0
C      1  0.5360950000000  0.5566690000000  0.5653360000000 1.0
C      1  0.4953090000000  0.3876320000000  0.4414250000000 1.0
C      1  0.4266830000000  0.5252020000000  0.4297180000000 1.0
C      1  0.5862820000000  0.5490780000000  0.4462130000000 1.0
C      1  0.5094720000000  0.3840250000000  0.4912880000000 1.0
C      1  0.5086220000000  0.3977090000000  0.5161730000000 1.0
C      1  0.5255270000000  0.4295740000000  0.4332770000000 1.0
C      1  0.4809160000000  0.4419990000000  0.4112110000000 1.0
C      1  0.5830360000000  0.4972240000000  0.4973050000000 1.0
C      1  0.5470380000000  0.5507530000000  0.4054260000000 1.0
C      1  0.5880100000000  0.5291030000000  0.5103530000000 1.0
C      1  0.4164610000000  0.5289250000000  0.5635520000000 1.0
C      1  0.4861520000000  0.4583000000000  0.5294020000000 1.0
C      1  0.4321850000000  0.5346880000000  0.4620600000000 1.0
C      1  0.5182870000000  0.5534780000000  0.5882570000000 1.0
C      1  0.5440280000000  0.5147120000000  0.4932420000000 1.0
C      1  0.4845330000000  0.3908040000000  0.4716810000000 1.0
C      1  0.4715700000000  0.5547390000000  0.4152120000000 1.0
C      1  0.4466380000000  0.5835490000000  0.4866760000000 1.0
C      1  0.5405030000000  0.4827310000000  0.4922620000000 1.0
C      1  0.5493940000000  0.5970100000000  0.5134180000000 1.0
C      1  0.4756640000000  0.3890170000000  0.5457910000000 1.0
C      1  0.4303360000000  0.5662000000000  0.5279280000000 1.0
C      1  0.4325200000000  0.5289010000000  0.5137020000000 1.0
C      1  0.4862790000000  0.5922450000000  0.5588360000000 1.0
END
