TITL C-2778431-5191-775 0.00221336202491907 125000 -181.736061391929 0 0 32 (C1) n - 1
REM
REM in /home/nfs/bkarasulu/CARBON/AIRSS/Generating-Clusters/REBO/Only-C1/SD-CG/HFTN-CG
REM
REM
REM
REM
REM
REM ./C.cell (11c1c37f851c82e70ff6c80c92926a4b)
REM
REM compiler GCC version 9.2.1 20190827 (Red Hat 9.2.1-1)
REM options -cpp -mtune=generic -march=x86-64 -g -O0 -fpre-include=/usr/include/finclude/math-vector-fortran.h
REM seed -1700470727 270084170 -839082166 453983705 1167168920 -1655530659 1881254480 -57695979 -863467618 -1474672776 2129606902 -836307082 1570051967 1553610136 -1838121488 1498456138 -1837506107 -446349221 -1842797458 1409103477 815843295 573238062 -945099469 1445876938 2007707519 1179162640 -406270748 -1130338756 446499216 1132818634 637882999 676060218 988859981
REM
CELL 1.54180   50.00000   50.00000   50.00000   90.00000   90.00000   90.00000
LATT -1
SFAC C  
C      1  0.4334610000000  0.4647150000000  0.4823280000000 1.0
C      1  0.5534090000000  0.5232270000000  0.4981200000000 1.0
C      1  0.4951560000000  0.5332000000000  0.4505600000000 1.0
C      1  0.5538910000000  0.4805280000000  0.4770780000000 1.0
C      1  0.4641000000000  0.4677140000000  0.5220750000000 1.0
C      1  0.4882500000000  0.5798820000000  0.4606900000000 1.0
C      1  0.5052260000000  0.5563380000000  0.5707540000000 1.0
C      1  0.5028730000000  0.5036470000000  0.4489280000000 1.0
C      1  0.4793690000000  0.4567040000000  0.4529730000000 1.0
C      1  0.5252700000000  0.4545830000000  0.5065870000000 1.0
C      1  0.5035430000000  0.4437810000000  0.4945490000000 1.0
C      1  0.4542130000000  0.4721480000000  0.4396660000000 1.0
C      1  0.4796870000000  0.4491800000000  0.4805870000000 1.0
C      1  0.5602330000000  0.5119380000000  0.4719400000000 1.0
C      1  0.5375690000000  0.5044720000000  0.5142390000000 1.0
C      1  0.5020780000000  0.5495350000000  0.4955530000000 1.0
C      1  0.4924100000000  0.4866220000000  0.5944700000000 1.0
C      1  0.4992700000000  0.5057050000000  0.5763080000000 1.0
C      1  0.4808630000000  0.4813680000000  0.5379930000000 1.0
C      1  0.4841930000000  0.4842080000000  0.4365550000000 1.0
C      1  0.5025980000000  0.4872850000000  0.5026230000000 1.0
C      1  0.5075950000000  0.5425280000000  0.5221720000000 1.0
C      1  0.4573060000000  0.4582700000000  0.4965010000000 1.0
C      1  0.4950170000000  0.5547630000000  0.4687800000000 1.0
C      1  0.4310180000000  0.4718740000000  0.4557240000000 1.0
C      1  0.4993980000000  0.4999470000000  0.5480900000000 1.0
C      1  0.5040540000000  0.5324930000000  0.5838350000000 1.0
C      1  0.5413460000000  0.4773950000000  0.5033200000000 1.0
C      1  0.5347450000000  0.4976420000000  0.4551740000000 1.0
C      1  0.5155630000000  0.5151790000000  0.5289900000000 1.0
C      1  0.5053370000000  0.5605610000000  0.5438150000000 1.0
C      1  0.5109600000000  0.4925720000000  0.4790240000000 1.0
END
