TITL C-2778433-5640-687 0.00138200964274691 125000 -767.958754634283 0 0 131 (C1) n - 1
REM
REM in /home/nfs/bkarasulu/CARBON/AIRSS/Generating-Clusters/REBO/Only-C1/SD-CG/HFTN-CG
REM
REM
REM
REM
REM
REM ./C.cell (11c1c37f851c82e70ff6c80c92926a4b)
REM
REM compiler GCC version 9.2.1 20190827 (Red Hat 9.2.1-1)
REM options -cpp -mtune=generic -march=x86-64 -g -O0 -fpre-include=/usr/include/finclude/math-vector-fortran.h
REM seed 1894684527 1632631816 1162360416 1233216981 -1508136436 -534435129 1023276159 -23459608 1068450243 912856998 1125032422 -720811037 121149033 1965634549 -1667199416 1548100952 -1028655910 1808101226 1493467531 1161896009 -558980746 1538885504 833681518 502400694 1529986668 -2120701859 1162158917 -1253773615 -1121849729 -176404058 -1580396514 -1387711568 1919917455
REM
CELL 1.54180   50.00000   50.00000   50.00000   90.00000   90.00000   90.00000
LATT -1
SFAC C  
C      1  0.5286460000000  0.4391890000000  0.5049740000000 1.0
C      1  0.4290650000000  0.5684830000000  0.4536940000000 1.0
C      1  0.4926180000000  0.5121400000000  0.5569060000000 1.0
C      1  0.5468810000000  0.4830330000000  0.5865750000000 1.0
C      1  0.5319970000000  0.5328820000000  0.4601550000000 1.0
C      1  0.4881840000000  0.5855780000000  0.5367520000000 1.0
C      1  0.5283790000000  0.4162480000000  0.4602210000000 1.0
C      1  0.4138290000000  0.5560180000000  0.4746840000000 1.0
C      1  0.4580800000000  0.5656080000000  0.4533670000000 1.0
C      1  0.4721550000000  0.5387050000000  0.5565060000000 1.0
C      1  0.4936200000000  0.3784630000000  0.4440080000000 1.0
C      1  0.4012590000000  0.5309700000000  0.4696910000000 1.0
C      1  0.6003640000000  0.5114590000000  0.4918800000000 1.0
C      1  0.4963660000000  0.4355200000000  0.5494420000000 1.0
C      1  0.4808820000000  0.4958960000000  0.5913380000000 1.0
C      1  0.5035660000000  0.5110680000000  0.4270770000000 1.0
C      1  0.4851570000000  0.5491620000000  0.5205720000000 1.0
C      1  0.5038730000000  0.4827730000000  0.5506270000000 1.0
C      1  0.6021600000000  0.4846720000000  0.4818050000000 1.0
C      1  0.4515810000000  0.5705330000000  0.5005530000000 1.0
C      1  0.4331340000000  0.4839890000000  0.5534190000000 1.0
C      1  0.5828010000000  0.4752140000000  0.5522850000000 1.0
C      1  0.4697760000000  0.4703220000000  0.5862740000000 1.0
C      1  0.5212540000000  0.4733350000000  0.4389410000000 1.0
C      1  0.5759020000000  0.4348830000000  0.4899230000000 1.0
C      1  0.5091520000000  0.4181310000000  0.5231290000000 1.0
C      1  0.5599020000000  0.4158110000000  0.5132260000000 1.0
C      1  0.4023540000000  0.5303740000000  0.5328270000000 1.0
C      1  0.4249070000000  0.5393280000000  0.5521900000000 1.0
C      1  0.3979980000000  0.5014780000000  0.4865280000000 1.0
C      1  0.5194550000000  0.4430850000000  0.5699680000000 1.0
C      1  0.5385050000000  0.5380550000000  0.5393660000000 1.0
C      1  0.5121680000000  0.5641090000000  0.5767510000000 1.0
C      1  0.4574100000000  0.4448400000000  0.4674940000000 1.0
C      1  0.4707150000000  0.5730890000000  0.4791190000000 1.0
C      1  0.5831440000000  0.5351580000000  0.4840820000000 1.0
C      1  0.5815310000000  0.5151420000000  0.5186520000000 1.0
C      1  0.5288490000000  0.4690390000000  0.4946900000000 1.0
C      1  0.4556870000000  0.4674460000000  0.5613270000000 1.0
C      1  0.4713760000000  0.4306110000000  0.5299100000000 1.0
C      1  0.4903140000000  0.4679080000000  0.3863040000000 1.0
C      1  0.5363380000000  0.4842680000000  0.5480290000000 1.0
C      1  0.4452060000000  0.4216310000000  0.4863150000000 1.0
C      1  0.4948160000000  0.5618900000000  0.4387780000000 1.0
C      1  0.4720520000000  0.4740970000000  0.4640830000000 1.0
C      1  0.5563620000000  0.4622490000000  0.5523180000000 1.0
C      1  0.4614080000000  0.5708460000000  0.5288920000000 1.0
C      1  0.5513140000000  0.5312570000000  0.4790460000000 1.0
C      1  0.4660310000000  0.5129890000000  0.4147120000000 1.0
C      1  0.4145320000000  0.5217040000000  0.4441560000000 1.0
C      1  0.4829960000000  0.4233000000000  0.4736910000000 1.0
C      1  0.5893670000000  0.4596440000000  0.5004930000000 1.0
C      1  0.5155290000000  0.5782610000000  0.4446150000000 1.0
C      1  0.5008520000000  0.4015840000000  0.4565540000000 1.0
C      1  0.5674560000000  0.5243050000000  0.5632740000000 1.0
C      1  0.3996370000000  0.5027870000000  0.5198990000000 1.0
C      1  0.4706910000000  0.5422890000000  0.5959940000000 1.0
C      1  0.5203310000000  0.4947200000000  0.4656140000000 1.0
C      1  0.4919710000000  0.4581500000000  0.4333210000000 1.0
C      1  0.5594490000000  0.5575870000000  0.4394430000000 1.0
C      1  0.5662460000000  0.4839760000000  0.4992300000000 1.0
C      1  0.3997580000000  0.4952320000000  0.4529240000000 1.0
C      1  0.5474540000000  0.5707880000000  0.4832260000000 1.0
C      1  0.4772210000000  0.4689940000000  0.5391210000000 1.0
C      1  0.4946470000000  0.4792960000000  0.5122390000000 1.0
C      1  0.5250870000000  0.4658340000000  0.5865030000000 1.0
C      1  0.5513680000000  0.5129340000000  0.5045040000000 1.0
C      1  0.5895060000000  0.4836040000000  0.5246360000000 1.0
C      1  0.4310670000000  0.4628820000000  0.4640240000000 1.0
C      1  0.5711670000000  0.5086810000000  0.4502040000000 1.0
C      1  0.5358430000000  0.4806780000000  0.4124750000000 1.0
C      1  0.5410740000000  0.4164580000000  0.5350610000000 1.0
C      1  0.5386340000000  0.5628190000000  0.5606700000000 1.0
C      1  0.4126240000000  0.4804540000000  0.5333710000000 1.0
C      1  0.4186430000000  0.4750700000000  0.4896340000000 1.0
C      1  0.4648280000000  0.4961690000000  0.4882880000000 1.0
C      1  0.5341660000000  0.5522880000000  0.5083580000000 1.0
C      1  0.4994050000000  0.5330620000000  0.4500210000000 1.0
C      1  0.5687370000000  0.5607170000000  0.5264860000000 1.0
C      1  0.5001710000000  0.5422700000000  0.5953400000000 1.0
C      1  0.5693610000000  0.4944370000000  0.5721700000000 1.0
C      1  0.4794470000000  0.4884540000000  0.4350720000000 1.0
C      1  0.4265100000000  0.5316020000000  0.5132300000000 1.0
C      1  0.4722360000000  0.5207810000000  0.4659700000000 1.0
C      1  0.5503750000000  0.4923330000000  0.4704110000000 1.0
C      1  0.5706470000000  0.5328960000000  0.4401840000000 1.0
C      1  0.5646250000000  0.4492560000000  0.4620240000000 1.0
C      1  0.4540490000000  0.4053530000000  0.5149330000000 1.0
C      1  0.4838580000000  0.4146340000000  0.5024560000000 1.0
C      1  0.4480460000000  0.5115230000000  0.5235250000000 1.0
C      1  0.5704550000000  0.4319510000000  0.4374760000000 1.0
C      1  0.5114340000000  0.5209550000000  0.5320760000000 1.0
C      1  0.5076840000000  0.5422410000000  0.4987550000000 1.0
C      1  0.4225080000000  0.4791230000000  0.4426070000000 1.0
C      1  0.5183280000000  0.4818610000000  0.3903670000000 1.0
C      1  0.4940550000000  0.5868980000000  0.5634340000000 1.0
C      1  0.5017990000000  0.5499010000000  0.5485390000000 1.0
C      1  0.5718540000000  0.5600840000000  0.4976120000000 1.0
C      1  0.5001350000000  0.5144130000000  0.4847930000000 1.0
C      1  0.5782110000000  0.5365720000000  0.5397110000000 1.0
C      1  0.4587450000000  0.5626790000000  0.5767750000000 1.0
C      1  0.4973270000000  0.5797890000000  0.4900710000000 1.0
C      1  0.4414110000000  0.5631540000000  0.5517760000000 1.0
C      1  0.4433830000000  0.4825970000000  0.5079140000000 1.0
C      1  0.4435180000000  0.5137130000000  0.5578430000000 1.0
C      1  0.5501470000000  0.5050780000000  0.4165490000000 1.0
C      1  0.5353470000000  0.5132410000000  0.5630440000000 1.0
C      1  0.5344940000000  0.4560960000000  0.4651230000000 1.0
C      1  0.5414660000000  0.5726100000000  0.4556730000000 1.0
C      1  0.4675600000000  0.5440550000000  0.4287760000000 1.0
C      1  0.5794800000000  0.4777590000000  0.4608670000000 1.0
C      1  0.4338550000000  0.4324670000000  0.5162270000000 1.0
C      1  0.5331190000000  0.5215140000000  0.4323610000000 1.0
C      1  0.4284650000000  0.5552440000000  0.4983470000000 1.0
C      1  0.4606580000000  0.5162020000000  0.5871380000000 1.0
C      1  0.4846630000000  0.4485750000000  0.4049980000000 1.0
C      1  0.4138900000000  0.4567670000000  0.5157770000000 1.0
C      1  0.5390700000000  0.5769430000000  0.5310020000000 1.0
C      1  0.5086580000000  0.5830850000000  0.5169700000000 1.0
C      1  0.4978840000000  0.4749690000000  0.4809500000000 1.0
C      1  0.4530910000000  0.4583190000000  0.5225280000000 1.0
C      1  0.4907790000000  0.5000130000000  0.3975280000000 1.0
C      1  0.4766170000000  0.5201070000000  0.5094110000000 1.0
C      1  0.5257370000000  0.4946870000000  0.5174100000000 1.0
C      1  0.4466240000000  0.5245110000000  0.4471090000000 1.0
C      1  0.5441130000000  0.4363440000000  0.5556960000000 1.0
C      1  0.5054900000000  0.4409210000000  0.4557540000000 1.0
C      1  0.5451270000000  0.4217870000000  0.4835230000000 1.0
C      1  0.4411100000000  0.4957650000000  0.4296080000000 1.0
C      1  0.5138160000000  0.4570630000000  0.5296340000000 1.0
C      1  0.5097620000000  0.5131640000000  0.5854960000000 1.0
END
