TITL C-2778430-5657-22 0.302256233343499 125000 -422.561433999665 0 0 75 (C1) n - 1
REM
REM in /home/nfs/bkarasulu/CARBON/AIRSS/Generating-Clusters/REBO/Only-C1/SD-CG/HFTN-CG
REM
REM
REM
REM
REM
REM ./C.cell (11c1c37f851c82e70ff6c80c92926a4b)
REM
REM compiler GCC version 9.2.1 20190827 (Red Hat 9.2.1-1)
REM options -cpp -mtune=generic -march=x86-64 -g -O0 -fpre-include=/usr/include/finclude/math-vector-fortran.h
REM seed 523250494 -404900369 745987285 -1200278611 -1686922935 1630387575 1826154983 789101505 -1800342437 -1700479270 513003236 -1683442773 2036019541 -1459283553 290151502 1355166560 -860968715 1039163334 837716819 -735800162 1781677579 1099143755 932089967 -1332475852 14841651 389232075 -1741797962 1915188470 -977934744 964073215 -994145377 -1964056787 2045601004
REM
CELL 1.54180   50.00000   50.00000   50.00000   90.00000   90.00000   90.00000
LATT -1
SFAC C  
C      1  0.5329620000000  0.5149180000000  0.4845940000000 1.0
C      1  0.4511300000000  0.4807270000000  0.5580670000000 1.0
C      1  0.5366720000000  0.4483930000000  0.4627320000000 1.0
C      1  0.5172230000000  0.5248780000000  0.5347950000000 1.0
C      1  0.4521410000000  0.5054730000000  0.4722350000000 1.0
C      1  0.5434650000000  0.4917330000000  0.4384350000000 1.0
C      1  0.4490080000000  0.4621170000000  0.5351660000000 1.0
C      1  0.4504450000000  0.5466010000000  0.5102080000000 1.0
C      1  0.5582010000000  0.5433630000000  0.4957480000000 1.0
C      1  0.5400450000000  0.5356120000000  0.5582210000000 1.0
C      1  0.4693850000000  0.5302860000000  0.5293570000000 1.0
C      1  0.4226640000000  0.5331960000000  0.5029520000000 1.0
C      1  0.4811320000000  0.5471160000000  0.4676210000000 1.0
C      1  0.5066830000000  0.4449510000000  0.5353780000000 1.0
C      1  0.4580330000000  0.4955880000000  0.5032000000000 1.0
C      1  0.5583050000000  0.4648870000000  0.5176300000000 1.0
C      1  0.5662730000000  0.4957460000000  0.4950970000000 1.0
C      1  0.5550700000000  0.5127780000000  0.5389210000000 1.0
C      1  0.5365940000000  0.5630340000000  0.5083350000000 1.0
C      1  0.5217460000000  0.5780680000000  0.4507280000000 1.0
C      1  0.5179510000000  0.5818220000000  0.5198470000000 1.0
C      1  0.5647500000000  0.5197050000000  0.5112410000000 1.0
C      1  0.5070630000000  0.4187470000000  0.4923600000000 1.0
C      1  0.5081860000000  0.4368340000000  0.4704590000000 1.0
C      1  0.4851450000000  0.4164510000000  0.4378470000000 1.0
C      1  0.4792340000000  0.5142370000000  0.4639560000000 1.0
C      1  0.4606470000000  0.4647140000000  0.5033060000000 1.0
C      1  0.5415290000000  0.4493860000000  0.4961810000000 1.0
C      1  0.4906090000000  0.5388000000000  0.5790440000000 1.0
C      1  0.4968440000000  0.5268220000000  0.4883320000000 1.0
C      1  0.4715510000000  0.4833020000000  0.4229650000000 1.0
C      1  0.5106300000000  0.5486680000000  0.5582540000000 1.0
C      1  0.5392580000000  0.5046380000000  0.5688880000000 1.0
C      1  0.5367480000000  0.5509790000000  0.4452280000000 1.0
C      1  0.5395250000000  0.4708780000000  0.5663190000000 1.0
C      1  0.4263200000000  0.4862770000000  0.4742990000000 1.0
C      1  0.4920370000000  0.4556960000000  0.5057070000000 1.0
C      1  0.5177580000000  0.6080420000000  0.5125370000000 1.0
C      1  0.4253330000000  0.5049680000000  0.5011220000000 1.0
C      1  0.4958810000000  0.5142640000000  0.5896210000000 1.0
C      1  0.4994270000000  0.5715000000000  0.5395690000000 1.0
C      1  0.4716830000000  0.5602520000000  0.5422440000000 1.0
C      1  0.5417120000000  0.4829500000000  0.5358390000000 1.0
C      1  0.5154300000000  0.5046120000000  0.4336610000000 1.0
C      1  0.5518970000000  0.5340550000000  0.4641200000000 1.0
C      1  0.4637100000000  0.4066890000000  0.4516050000000 1.0
C      1  0.5075290000000  0.4696340000000  0.4797660000000 1.0
C      1  0.4985210000000  0.4846010000000  0.4158320000000 1.0
C      1  0.4853250000000  0.4784130000000  0.5381060000000 1.0
C      1  0.4271620000000  0.5531490000000  0.4788680000000 1.0
C      1  0.4577810000000  0.5594270000000  0.4818950000000 1.0
C      1  0.5801000000000  0.4957980000000  0.4701110000000 1.0
C      1  0.4772330000000  0.4678590000000  0.5695370000000 1.0
C      1  0.4858690000000  0.5090030000000  0.5125080000000 1.0
C      1  0.5630240000000  0.5077500000000  0.4506760000000 1.0
C      1  0.4203090000000  0.5198660000000  0.5639600000000 1.0
C      1  0.4978460000000  0.5577580000000  0.4453640000000 1.0
C      1  0.5110600000000  0.4588300000000  0.4232940000000 1.0
C      1  0.4651330000000  0.5420840000000  0.5670240000000 1.0
C      1  0.5027810000000  0.3995870000000  0.4256570000000 1.0
C      1  0.5142830000000  0.5343350000000  0.4319260000000 1.0
C      1  0.5359260000000  0.4825830000000  0.4896660000000 1.0
C      1  0.4691970000000  0.4658110000000  0.4512870000000 1.0
C      1  0.5361650000000  0.4631280000000  0.4385320000000 1.0
C      1  0.5120670000000  0.4940480000000  0.5284510000000 1.0
C      1  0.4799260000000  0.5078210000000  0.5526500000000 1.0
C      1  0.4943090000000  0.4887800000000  0.4553400000000 1.0
C      1  0.5210020000000  0.5351660000000  0.5071850000000 1.0
C      1  0.4476140000000  0.5138710000000  0.5623160000000 1.0
C      1  0.4742000000000  0.4424600000000  0.5326390000000 1.0
C      1  0.4491670000000  0.4656490000000  0.4739160000000 1.0
C      1  0.5096510000000  0.4596670000000  0.5630570000000 1.0
C      1  0.4890710000000  0.4439680000000  0.4362280000000 1.0
C      1  0.5071300000000  0.4934670000000  0.5680430000000 1.0
C      1  0.5225820000000  0.4307380000000  0.5121960000000 1.0
END
