TITL C-2778431-5191-850 -0.0015104743766978 125000 -542.676948830453 0 0 94 (C1) n - 1
REM
REM in /home/nfs/bkarasulu/CARBON/AIRSS/Generating-Clusters/REBO/Only-C1/SD-CG/HFTN-CG
REM
REM
REM
REM
REM
REM ./C.cell (11c1c37f851c82e70ff6c80c92926a4b)
REM
REM compiler GCC version 9.2.1 20190827 (Red Hat 9.2.1-1)
REM options -cpp -mtune=generic -march=x86-64 -g -O0 -fpre-include=/usr/include/finclude/math-vector-fortran.h
REM seed 990121938 658934932 1922313203 -435391520 670970569 1015713819 -1605961536 -615699859 -166561987 -908002772 570699913 1389230994 741913431 -1469554530 1444612033 731384362 1428687535 -35641883 -545316627 -227462456 1828241830 -497814275 -359567373 1529638179 744328493 -168806919 8101362 655413460 -856173892 866614507 1860733281 485051521 -237081308
REM
CELL 1.54180   50.00000   50.00000   50.00000   90.00000   90.00000   90.00000
LATT -1
SFAC C  
C      1  0.4936580000000  0.3891800000000  0.5566440000000 1.0
C      1  0.4183500000000  0.5061200000000  0.5415020000000 1.0
C      1  0.4515880000000  0.5632350000000  0.4833500000000 1.0
C      1  0.4447350000000  0.5492000000000  0.5326060000000 1.0
C      1  0.4816860000000  0.4503930000000  0.5907630000000 1.0
C      1  0.4896700000000  0.4748930000000  0.6013850000000 1.0
C      1  0.4846860000000  0.4747550000000  0.4238120000000 1.0
C      1  0.5840800000000  0.4759710000000  0.5098900000000 1.0
C      1  0.4947550000000  0.4316360000000  0.5252090000000 1.0
C      1  0.4759180000000  0.5249060000000  0.4962910000000 1.0
C      1  0.5054920000000  0.5512920000000  0.4944370000000 1.0
C      1  0.4732940000000  0.5183970000000  0.5423990000000 1.0
C      1  0.5030400000000  0.4477250000000  0.4141930000000 1.0
C      1  0.5584550000000  0.4629450000000  0.5091900000000 1.0
C      1  0.4869510000000  0.5079200000000  0.4618290000000 1.0
C      1  0.5124210000000  0.4754710000000  0.5140170000000 1.0
C      1  0.5333820000000  0.5006250000000  0.4712540000000 1.0
C      1  0.4481460000000  0.4810560000000  0.5173920000000 1.0
C      1  0.5850730000000  0.5024220000000  0.5205230000000 1.0
C      1  0.4198210000000  0.4641020000000  0.4780810000000 1.0
C      1  0.5551480000000  0.4783680000000  0.4311980000000 1.0
C      1  0.5376720000000  0.5658030000000  0.4565190000000 1.0
C      1  0.4502110000000  0.5092510000000  0.5030580000000 1.0
C      1  0.5237130000000  0.4324570000000  0.4752640000000 1.0
C      1  0.4595300000000  0.5415490000000  0.5623420000000 1.0
C      1  0.4416980000000  0.4819620000000  0.4502400000000 1.0
C      1  0.4732830000000  0.4239800000000  0.4862840000000 1.0
C      1  0.5756760000000  0.4629890000000  0.4617200000000 1.0
C      1  0.4832490000000  0.4497230000000  0.5629590000000 1.0
C      1  0.5119810000000  0.5825220000000  0.4704450000000 1.0
C      1  0.4597580000000  0.4918960000000  0.4273180000000 1.0
C      1  0.4942020000000  0.4102380000000  0.5410520000000 1.0
C      1  0.5557080000000  0.5091670000000  0.4274560000000 1.0
C      1  0.5910930000000  0.5256880000000  0.5055240000000 1.0
C      1  0.5538930000000  0.5583350000000  0.5148190000000 1.0
C      1  0.4515100000000  0.4459890000000  0.5362560000000 1.0
C      1  0.4367610000000  0.4909720000000  0.5609570000000 1.0
C      1  0.5758260000000  0.5477600000000  0.4962750000000 1.0
C      1  0.4752000000000  0.4913330000000  0.5286070000000 1.0
C      1  0.5604380000000  0.5363130000000  0.5588060000000 1.0
C      1  0.6053890000000  0.4653200000000  0.4966580000000 1.0
C      1  0.4721100000000  0.4634880000000  0.4907850000000 1.0
C      1  0.5822170000000  0.4904390000000  0.4628900000000 1.0
C      1  0.4696250000000  0.5663740000000  0.4481280000000 1.0
C      1  0.5377660000000  0.5215120000000  0.5372360000000 1.0
C      1  0.5366170000000  0.5255950000000  0.5772760000000 1.0
C      1  0.4462140000000  0.4657730000000  0.5543020000000 1.0
C      1  0.5451290000000  0.4853110000000  0.5520800000000 1.0
C      1  0.5171310000000  0.4409460000000  0.4444200000000 1.0
C      1  0.4922430000000  0.4771490000000  0.5513730000000 1.0
C      1  0.4795090000000  0.5403280000000  0.4661570000000 1.0
C      1  0.4728610000000  0.4813990000000  0.4638600000000 1.0
C      1  0.5183590000000  0.5607790000000  0.5510820000000 1.0
C      1  0.4160070000000  0.4775170000000  0.5297390000000 1.0
C      1  0.4795600000000  0.5844150000000  0.5178020000000 1.0
C      1  0.4997230000000  0.4947370000000  0.5789110000000 1.0
C      1  0.4584930000000  0.4388590000000  0.5099640000000 1.0
C      1  0.4644050000000  0.4364920000000  0.4616110000000 1.0
C      1  0.5021530000000  0.4208000000000  0.4875010000000 1.0
C      1  0.4963270000000  0.5252910000000  0.4332070000000 1.0
C      1  0.4964590000000  0.5008350000000  0.5054370000000 1.0
C      1  0.5468380000000  0.4507230000000  0.4486590000000 1.0
C      1  0.4873660000000  0.5241760000000  0.5720980000000 1.0
C      1  0.4521550000000  0.5729340000000  0.5118060000000 1.0
C      1  0.4396130000000  0.4496650000000  0.4592140000000 1.0
C      1  0.4454590000000  0.5350930000000  0.4436210000000 1.0
C      1  0.5134720000000  0.5227600000000  0.4772040000000 1.0
C      1  0.5463010000000  0.5601160000000  0.5415730000000 1.0
C      1  0.5524920000000  0.4490720000000  0.4824840000000 1.0
C      1  0.5134080000000  0.5412390000000  0.5717450000000 1.0
C      1  0.5126710000000  0.5272700000000  0.5167230000000 1.0
C      1  0.4871250000000  0.4538980000000  0.4495570000000 1.0
C      1  0.5312220000000  0.4972970000000  0.5752710000000 1.0
C      1  0.5376790000000  0.4718660000000  0.5269310000000 1.0
C      1  0.5599050000000  0.5074560000000  0.4771100000000 1.0
C      1  0.4377340000000  0.5433260000000  0.4695280000000 1.0
C      1  0.4647720000000  0.5200980000000  0.4297460000000 1.0
C      1  0.5105850000000  0.5040260000000  0.5419620000000 1.0
C      1  0.4962190000000  0.5679340000000  0.5357510000000 1.0
C      1  0.5619220000000  0.5460300000000  0.4667430000000 1.0
C      1  0.4953310000000  0.4541030000000  0.5086010000000 1.0
C      1  0.5288400000000  0.5193500000000  0.4244380000000 1.0
C      1  0.4248070000000  0.4604390000000  0.5053370000000 1.0
C      1  0.4183170000000  0.4947470000000  0.4699350000000 1.0
C      1  0.5064610000000  0.4945720000000  0.4278820000000 1.0
C      1  0.5070250000000  0.5550050000000  0.4546690000000 1.0
C      1  0.4837930000000  0.5738470000000  0.4874150000000 1.0
C      1  0.4250610000000  0.5206500000000  0.4866570000000 1.0
C      1  0.5368540000000  0.5443420000000  0.4898520000000 1.0
C      1  0.5294360000000  0.4865590000000  0.4473140000000 1.0
C      1  0.4773840000000  0.5445090000000  0.5234110000000 1.0
C      1  0.4280930000000  0.5263910000000  0.5204410000000 1.0
C      1  0.5738970000000  0.5213990000000  0.4502410000000 1.0
C      1  0.5677150000000  0.5072110000000  0.5437940000000 1.0
END
