TITL C-2778423-5760-38 -0.00426128600388938 125000 -851.183976741893 0 0 149 (C1) n - 1
REM
REM in /home/nfs/bkarasulu/CARBON/AIRSS/Generating-Clusters/REBO/Only-C1/SD-CG/HFTN-CG
REM
REM
REM
REM
REM
REM ./C.cell (11c1c37f851c82e70ff6c80c92926a4b)
REM
REM compiler GCC version 9.2.1 20190827 (Red Hat 9.2.1-1)
REM options -cpp -mtune=generic -march=x86-64 -g -O0 -fpre-include=/usr/include/finclude/math-vector-fortran.h
REM seed 1843794629 -1279693729 902184195 891213901 -663258418 333904707 1308380314 1388427487 -1319753252 -1851005068 3878016 203139042 839498721 913639120 2041573915 1503771290 316830686 899014909 876213265 -891838545 -1751104507 1893038254 1179303166 1100956318 -1266961932 -1444073041 -545045174 1444238006 -184928606 -2025393048 -1968529316 -1308141809 1697896199
REM
CELL 1.54180   50.00000   50.00000   50.00000   90.00000   90.00000   90.00000
LATT -1
SFAC C  
C      1  0.5518250000000  0.4632000000000  0.5363750000000 1.0
C      1  0.4914430000000  0.4945220000000  0.4628220000000 1.0
C      1  0.4535830000000  0.5439620000000  0.3946910000000 1.0
C      1  0.4683640000000  0.4838550000000  0.6015790000000 1.0
C      1  0.5550930000000  0.5307420000000  0.5320260000000 1.0
C      1  0.4028650000000  0.5227890000000  0.4607230000000 1.0
C      1  0.3766480000000  0.4768340000000  0.5190000000000 1.0
C      1  0.5432460000000  0.5485340000000  0.4754600000000 1.0
C      1  0.5050280000000  0.4660350000000  0.4584840000000 1.0
C      1  0.4776720000000  0.5236870000000  0.4692670000000 1.0
C      1  0.4522500000000  0.4265260000000  0.4603490000000 1.0
C      1  0.4133030000000  0.5483610000000  0.4689930000000 1.0
C      1  0.4912570000000  0.5010890000000  0.5737310000000 1.0
C      1  0.5238550000000  0.5314260000000  0.4454080000000 1.0
C      1  0.4110060000000  0.4802290000000  0.5683720000000 1.0
C      1  0.5375400000000  0.4959940000000  0.6045130000000 1.0
C      1  0.4909620000000  0.5345510000000  0.5991800000000 1.0
C      1  0.4892060000000  0.5197440000000  0.5358870000000 1.0
C      1  0.4730030000000  0.4600310000000  0.4555390000000 1.0
C      1  0.5294610000000  0.4442240000000  0.4217380000000 1.0
C      1  0.4898430000000  0.5965960000000  0.4981880000000 1.0
C      1  0.4618880000000  0.3990280000000  0.5216900000000 1.0
C      1  0.5499750000000  0.5801390000000  0.4863250000000 1.0
C      1  0.5148910000000  0.4940970000000  0.5240130000000 1.0
C      1  0.4859120000000  0.4394980000000  0.5359320000000 1.0
C      1  0.4290010000000  0.4821030000000  0.5096760000000 1.0
C      1  0.4318680000000  0.5465060000000  0.5685570000000 1.0
C      1  0.5874200000000  0.4505940000000  0.4899830000000 1.0
C      1  0.5834220000000  0.4795150000000  0.4333240000000 1.0
C      1  0.4358800000000  0.4765400000000  0.5813340000000 1.0
C      1  0.5447470000000  0.5035320000000  0.5252520000000 1.0
C      1  0.5522230000000  0.5137130000000  0.4540400000000 1.0
C      1  0.4239570000000  0.5416450000000  0.5067190000000 1.0
C      1  0.5140180000000  0.5402670000000  0.5410190000000 1.0
C      1  0.5976470000000  0.4942740000000  0.4604970000000 1.0
C      1  0.5307330000000  0.4595300000000  0.4749810000000 1.0
C      1  0.4772140000000  0.4289370000000  0.4803060000000 1.0
C      1  0.5258530000000  0.4274380000000  0.5545510000000 1.0
C      1  0.5763350000000  0.4479630000000  0.4418230000000 1.0
C      1  0.4879140000000  0.4809000000000  0.4065840000000 1.0
C      1  0.4968140000000  0.4513880000000  0.4201890000000 1.0
C      1  0.5827220000000  0.5196150000000  0.4607960000000 1.0
C      1  0.5398050000000  0.4621130000000  0.5834610000000 1.0
C      1  0.4561550000000  0.4641000000000  0.4260240000000 1.0
C      1  0.4228100000000  0.4726980000000  0.4698310000000 1.0
C      1  0.5352230000000  0.5679080000000  0.4209190000000 1.0
C      1  0.5327540000000  0.4198210000000  0.4709980000000 1.0
C      1  0.5460310000000  0.4194510000000  0.4988250000000 1.0
C      1  0.4912340000000  0.3934340000000  0.5161920000000 1.0
C      1  0.5027520000000  0.5559870000000  0.4577660000000 1.0
C      1  0.5672290000000  0.4722860000000  0.5659610000000 1.0
C      1  0.4506950000000  0.5795430000000  0.4697160000000 1.0
C      1  0.4444430000000  0.5737840000000  0.5177730000000 1.0
C      1  0.5006030000000  0.4676710000000  0.5364710000000 1.0
C      1  0.5367790000000  0.5664390000000  0.5606240000000 1.0
C      1  0.4363270000000  0.5101140000000  0.5022770000000 1.0
C      1  0.4719420000000  0.4970400000000  0.4404740000000 1.0
C      1  0.5809050000000  0.5272820000000  0.5507210000000 1.0
C      1  0.5696740000000  0.5785910000000  0.5131520000000 1.0
C      1  0.5815110000000  0.5682880000000  0.4848050000000 1.0
C      1  0.5721480000000  0.4647390000000  0.4685030000000 1.0
C      1  0.5358920000000  0.5176730000000  0.4890700000000 1.0
C      1  0.5018120000000  0.5219870000000  0.4905510000000 1.0
C      1  0.4323400000000  0.5498370000000  0.5380450000000 1.0
C      1  0.4559740000000  0.4709630000000  0.4787030000000 1.0
C      1  0.4878430000000  0.4575120000000  0.5914430000000 1.0
C      1  0.5669020000000  0.5258420000000  0.5007730000000 1.0
C      1  0.4558930000000  0.4892900000000  0.4052030000000 1.0
C      1  0.4241540000000  0.5728730000000  0.4907940000000 1.0
C      1  0.4735010000000  0.5163540000000  0.3954780000000 1.0
C      1  0.5895560000000  0.5138630000000  0.5232440000000 1.0
C      1  0.5129950000000  0.4217200000000  0.4411140000000 1.0
C      1  0.5193350000000  0.5039160000000  0.5566550000000 1.0
C      1  0.5578560000000  0.4602190000000  0.4177200000000 1.0
C      1  0.5134850000000  0.4435670000000  0.5073190000000 1.0
C      1  0.5905400000000  0.4690420000000  0.5411990000000 1.0
C      1  0.5174580000000  0.5519900000000  0.4946560000000 1.0
C      1  0.4593620000000  0.4309570000000  0.5157880000000 1.0
C      1  0.4606680000000  0.5347820000000  0.5435350000000 1.0
C      1  0.5542610000000  0.5703810000000  0.5346730000000 1.0
C      1  0.3824980000000  0.4823910000000  0.5498600000000 1.0
C      1  0.5140410000000  0.4424470000000  0.5755070000000 1.0
C      1  0.4123780000000  0.4787970000000  0.5365160000000 1.0
C      1  0.4225040000000  0.5023260000000  0.4552090000000 1.0
C      1  0.5589740000000  0.4970400000000  0.5857820000000 1.0
C      1  0.5170070000000  0.5866000000000  0.4618850000000 1.0
C      1  0.4800030000000  0.4303060000000  0.4405550000000 1.0
C      1  0.5232490000000  0.5946490000000  0.4918420000000 1.0
C      1  0.5208550000000  0.5315960000000  0.4125270000000 1.0
C      1  0.4352570000000  0.4517220000000  0.4456840000000 1.0
C      1  0.6017180000000  0.4791780000000  0.4907360000000 1.0
C      1  0.4649170000000  0.5166280000000  0.5146820000000 1.0
C      1  0.4453190000000  0.5415490000000  0.4797160000000 1.0
C      1  0.5173000000000  0.4684040000000  0.6053330000000 1.0
C      1  0.4595670000000  0.5362140000000  0.5856430000000 1.0
C      1  0.4834210000000  0.5453600000000  0.4110700000000 1.0
C      1  0.4900290000000  0.4571770000000  0.4943420000000 1.0
C      1  0.5289790000000  0.4727850000000  0.5545140000000 1.0
C      1  0.4946450000000  0.5332700000000  0.5670040000000 1.0
C      1  0.5116310000000  0.5912760000000  0.5234620000000 1.0
C      1  0.5345800000000  0.5329170000000  0.5661220000000 1.0
C      1  0.4516470000000  0.5062430000000  0.5844700000000 1.0
C      1  0.4571720000000  0.4554980000000  0.5773350000000 1.0
C      1  0.5111370000000  0.4805830000000  0.4309510000000 1.0
C      1  0.5981480000000  0.4872320000000  0.5196420000000 1.0
C      1  0.5063470000000  0.6074020000000  0.4464140000000 1.0
C      1  0.4443410000000  0.5074860000000  0.4317660000000 1.0
C      1  0.5050370000000  0.5073350000000  0.3964440000000 1.0
C      1  0.5059680000000  0.4176050000000  0.5222560000000 1.0
C      1  0.5573270000000  0.4873140000000  0.5050820000000 1.0
C      1  0.4979780000000  0.4939930000000  0.6038400000000 1.0
C      1  0.4792930000000  0.5798830000000  0.4726330000000 1.0
C      1  0.5454540000000  0.4417560000000  0.4508460000000 1.0
C      1  0.5244680000000  0.5606110000000  0.5232020000000 1.0
C      1  0.4001880000000  0.4679420000000  0.5001860000000 1.0
C      1  0.4475550000000  0.5379710000000  0.4265980000000 1.0
C      1  0.5444290000000  0.4242600000000  0.5319150000000 1.0
C      1  0.4827230000000  0.5810960000000  0.5499160000000 1.0
C      1  0.5393950000000  0.5681450000000  0.4479360000000 1.0
C      1  0.5202270000000  0.4873530000000  0.4908390000000 1.0
C      1  0.5578040000000  0.4927470000000  0.4152650000000 1.0
C      1  0.4632130000000  0.5487720000000  0.5057370000000 1.0
C      1  0.4717560000000  0.5887650000000  0.5246200000000 1.0
C      1  0.5126490000000  0.5817330000000  0.5549570000000 1.0
C      1  0.4827620000000  0.3959520000000  0.4879880000000 1.0
C      1  0.5315730000000  0.4998820000000  0.4338650000000 1.0
C      1  0.4656260000000  0.4896350000000  0.5582770000000 1.0
C      1  0.5151290000000  0.5199030000000  0.6127260000000 1.0
C      1  0.4394470000000  0.5564070000000  0.4496380000000 1.0
C      1  0.5023130000000  0.4110680000000  0.4688180000000 1.0
C      1  0.4895740000000  0.5574260000000  0.5039440000000 1.0
C      1  0.4509700000000  0.5028910000000  0.4739970000000 1.0
C      1  0.4548860000000  0.4634910000000  0.5113440000000 1.0
C      1  0.5389220000000  0.5090990000000  0.3958900000000 1.0
C      1  0.5748850000000  0.4391310000000  0.5367880000000 1.0
C      1  0.5619940000000  0.5218950000000  0.5730890000000 1.0
C      1  0.4767150000000  0.5433340000000  0.4433850000000 1.0
C      1  0.4704320000000  0.4762920000000  0.5360750000000 1.0
C      1  0.5115350000000  0.5607440000000  0.4049920000000 1.0
C      1  0.4572260000000  0.4400480000000  0.5542480000000 1.0
C      1  0.5417250000000  0.4581870000000  0.5071660000000 1.0
C      1  0.5836590000000  0.5409460000000  0.4803080000000 1.0
C      1  0.5734610000000  0.4318760000000  0.5057420000000 1.0
C      1  0.4132980000000  0.4486430000000  0.5246090000000 1.0
C      1  0.4337550000000  0.4341560000000  0.5352050000000 1.0
C      1  0.5614190000000  0.4896890000000  0.4765020000000 1.0
C      1  0.4866440000000  0.4912920000000  0.4961330000000 1.0
C      1  0.4240180000000  0.4388500000000  0.4748520000000 1.0
C      1  0.4681710000000  0.5605870000000  0.5632080000000 1.0
END
