TITL C-2778425-5191-353 0.00292047865071529 125000 -702.479089584521 0 0 120 (C1) n - 1
REM
REM in /home/nfs/bkarasulu/CARBON/AIRSS/Generating-Clusters/REBO/Only-C1/SD-CG/HFTN-CG
REM
REM
REM
REM
REM
REM ./C.cell (11c1c37f851c82e70ff6c80c92926a4b)
REM
REM compiler GCC version 9.2.1 20190827 (Red Hat 9.2.1-1)
REM options -cpp -mtune=generic -march=x86-64 -g -O0 -fpre-include=/usr/include/finclude/math-vector-fortran.h
REM seed -553087290 968405131 -917454347 710225039 1009088364 -1610831706 -493224708 740977724 -876352435 1588461722 1118741795 -1545671042 -145510061 -817890108 855809498 575672812 1573763130 -1916402727 1925300650 -975608446 1106498254 -1386487955 -2034676962 -1798009006 -1005457052 -21383159 -952671958 1853260662 -182907205 -394242231 -1709321144 257382222 -2133307339
REM
CELL 1.54180   50.00000   50.00000   50.00000   90.00000   90.00000   90.00000
LATT -1
SFAC C  
C      1  0.5382880000000  0.5370720000000  0.4367080000000 1.0
C      1  0.5267670000000  0.4606950000000  0.5571300000000 1.0
C      1  0.4984650000000  0.4393790000000  0.4239080000000 1.0
C      1  0.4282050000000  0.4794030000000  0.4539190000000 1.0
C      1  0.4850840000000  0.5598220000000  0.4829610000000 1.0
C      1  0.4685790000000  0.5321780000000  0.5831200000000 1.0
C      1  0.4105710000000  0.4977600000000  0.4657140000000 1.0
C      1  0.4879890000000  0.4935030000000  0.4144570000000 1.0
C      1  0.5910510000000  0.5613310000000  0.5051440000000 1.0
C      1  0.4697810000000  0.4367300000000  0.4410660000000 1.0
C      1  0.5103140000000  0.4450480000000  0.5731910000000 1.0
C      1  0.5733220000000  0.5063850000000  0.4652150000000 1.0
C      1  0.5082720000000  0.5569610000000  0.5012000000000 1.0
C      1  0.5088750000000  0.4530120000000  0.5015280000000 1.0
C      1  0.5867660000000  0.5470760000000  0.5250130000000 1.0
C      1  0.4628460000000  0.4548740000000  0.5344030000000 1.0
C      1  0.5049550000000  0.4671860000000  0.4115030000000 1.0
C      1  0.5101540000000  0.5178380000000  0.4161580000000 1.0
C      1  0.5572240000000  0.4688670000000  0.4702540000000 1.0
C      1  0.4752490000000  0.5389220000000  0.5445240000000 1.0
C      1  0.4391360000000  0.4925500000000  0.5689530000000 1.0
C      1  0.4782840000000  0.4662380000000  0.5108150000000 1.0
C      1  0.4700770000000  0.4688230000000  0.4300950000000 1.0
C      1  0.5241100000000  0.5090440000000  0.5534080000000 1.0
C      1  0.5726320000000  0.5313350000000  0.4864430000000 1.0
C      1  0.5278990000000  0.4636820000000  0.4351730000000 1.0
C      1  0.4088630000000  0.5078240000000  0.5248230000000 1.0
C      1  0.4918640000000  0.5768640000000  0.4557170000000 1.0
C      1  0.5508660000000  0.5418500000000  0.5667670000000 1.0
C      1  0.5262540000000  0.4301960000000  0.4357590000000 1.0
C      1  0.5369240000000  0.4124440000000  0.4956610000000 1.0
C      1  0.4769660000000  0.5258570000000  0.4183080000000 1.0
C      1  0.5097960000000  0.5315460000000  0.4637930000000 1.0
C      1  0.4531890000000  0.4289850000000  0.4706970000000 1.0
C      1  0.5883110000000  0.4583840000000  0.4796580000000 1.0
C      1  0.4780750000000  0.5578490000000  0.4308160000000 1.0
C      1  0.4865390000000  0.4591710000000  0.5802210000000 1.0
C      1  0.4039930000000  0.4914570000000  0.4946670000000 1.0
C      1  0.5070640000000  0.4133130000000  0.4799040000000 1.0
C      1  0.4129460000000  0.5331920000000  0.5062150000000 1.0
C      1  0.5422820000000  0.5758770000000  0.5099380000000 1.0
C      1  0.5763430000000  0.5621140000000  0.4751700000000 1.0
C      1  0.5395680000000  0.5059240000000  0.5796650000000 1.0
C      1  0.4515520000000  0.5150930000000  0.4322720000000 1.0
C      1  0.4783970000000  0.4907090000000  0.4548200000000 1.0
C      1  0.5322360000000  0.4504810000000  0.4766780000000 1.0
C      1  0.5364510000000  0.5480040000000  0.4898840000000 1.0
C      1  0.4861170000000  0.4288600000000  0.4699080000000 1.0
C      1  0.4436400000000  0.5395940000000  0.5048920000000 1.0
C      1  0.5698460000000  0.5132110000000  0.4343280000000 1.0
C      1  0.5348610000000  0.4199330000000  0.4632020000000 1.0
C      1  0.5365640000000  0.4376320000000  0.5142220000000 1.0
C      1  0.4584350000000  0.4971930000000  0.4752920000000 1.0
C      1  0.4821350000000  0.5900710000000  0.5325320000000 1.0
C      1  0.5903480000000  0.4583010000000  0.5089890000000 1.0
C      1  0.5377400000000  0.4899560000000  0.5117990000000 1.0
C      1  0.4450810000000  0.5669580000000  0.5182260000000 1.0
C      1  0.5040840000000  0.4194390000000  0.5608960000000 1.0
C      1  0.4448380000000  0.4877370000000  0.4334390000000 1.0
C      1  0.4495100000000  0.5627850000000  0.4436410000000 1.0
C      1  0.4549830000000  0.4227980000000  0.5042030000000 1.0
C      1  0.5498950000000  0.4294880000000  0.5446930000000 1.0
C      1  0.5235180000000  0.5076670000000  0.4916710000000 1.0
C      1  0.5656740000000  0.4839620000000  0.4996600000000 1.0
C      1  0.4650250000000  0.5855180000000  0.5113570000000 1.0
C      1  0.5153080000000  0.4846010000000  0.5444600000000 1.0
C      1  0.4328350000000  0.4333760000000  0.5190670000000 1.0
C      1  0.4759020000000  0.4614430000000  0.4714780000000 1.0
C      1  0.4631360000000  0.5364360000000  0.4808750000000 1.0
C      1  0.5402760000000  0.5084870000000  0.4198800000000 1.0
C      1  0.5220440000000  0.5843180000000  0.4578320000000 1.0
C      1  0.4364120000000  0.5656670000000  0.5444140000000 1.0
C      1  0.5418370000000  0.5177300000000  0.4647900000000 1.0
C      1  0.4421500000000  0.5340640000000  0.4541750000000 1.0
C      1  0.4616040000000  0.5028100000000  0.5851060000000 1.0
C      1  0.5755000000000  0.4960440000000  0.5490150000000 1.0
C      1  0.5463730000000  0.4650700000000  0.5290460000000 1.0
C      1  0.5065860000000  0.5455670000000  0.4356710000000 1.0
C      1  0.5237790000000  0.4117830000000  0.5416290000000 1.0
C      1  0.5499070000000  0.5834440000000  0.4780650000000 1.0
C      1  0.5854380000000  0.4722580000000  0.5335660000000 1.0
C      1  0.4542490000000  0.4858180000000  0.5015240000000 1.0
C      1  0.4314530000000  0.5133120000000  0.5482420000000 1.0
C      1  0.4278790000000  0.4684320000000  0.5000420000000 1.0
C      1  0.5401590000000  0.5571790000000  0.4594510000000 1.0
C      1  0.4484630000000  0.5111150000000  0.5206440000000 1.0
C      1  0.4772200000000  0.4151960000000  0.5208170000000 1.0
C      1  0.5076560000000  0.4082860000000  0.5130430000000 1.0
C      1  0.4638480000000  0.4443630000000  0.5663680000000 1.0
C      1  0.4769620000000  0.4202900000000  0.5493680000000 1.0
C      1  0.5523860000000  0.4837570000000  0.4399990000000 1.0
C      1  0.4922760000000  0.5216430000000  0.4915990000000 1.0
C      1  0.4860880000000  0.4873670000000  0.5759690000000 1.0
C      1  0.5457140000000  0.5594900000000  0.5392930000000 1.0
C      1  0.4842400000000  0.5076110000000  0.5526820000000 1.0
C      1  0.5656840000000  0.4575350000000  0.5562460000000 1.0
C      1  0.4708980000000  0.5892940000000  0.4801100000000 1.0
C      1  0.5056870000000  0.4817280000000  0.5160340000000 1.0
C      1  0.5152670000000  0.5681810000000  0.5298440000000 1.0
C      1  0.4397770000000  0.4641730000000  0.5582210000000 1.0
C      1  0.5073550000000  0.4980860000000  0.4632550000000 1.0
C      1  0.5525300000000  0.5307530000000  0.5124000000000 1.0
C      1  0.5604060000000  0.4866300000000  0.5736260000000 1.0
C      1  0.4419060000000  0.4599370000000  0.4733870000000 1.0
C      1  0.4010700000000  0.5394900000000  0.4824880000000 1.0
C      1  0.4809670000000  0.5170850000000  0.5200770000000 1.0
C      1  0.4961460000000  0.5441740000000  0.5779980000000 1.0
C      1  0.5292360000000  0.5296840000000  0.5358120000000 1.0
C      1  0.5763760000000  0.5419700000000  0.4476930000000 1.0
C      1  0.4217830000000  0.4519730000000  0.5358050000000 1.0
C      1  0.4038050000000  0.4741730000000  0.5235410000000 1.0
C      1  0.4471480000000  0.5856860000000  0.4593100000000 1.0
C      1  0.5083580000000  0.4657510000000  0.4621640000000 1.0
C      1  0.5684340000000  0.5260060000000  0.5422580000000 1.0
C      1  0.5833300000000  0.5070090000000  0.5036740000000 1.0
C      1  0.5242170000000  0.5358970000000  0.5828690000000 1.0
C      1  0.5939860000000  0.4842980000000  0.4678880000000 1.0
C      1  0.4133600000000  0.5255400000000  0.4612090000000 1.0
C      1  0.4458740000000  0.5399250000000  0.5589960000000 1.0
C      1  0.4930500000000  0.5641140000000  0.5505990000000 1.0
END
