TITL C-2778429-3646-919 0.0022391052958597 125000 -1105.02607520609 0 0 189 (C1) n - 1
REM
REM in /home/nfs/bkarasulu/CARBON/AIRSS/Generating-Clusters/REBO/Only-C1/SD-CG/HFTN-CG
REM
REM
REM
REM
REM
REM ./C.cell (11c1c37f851c82e70ff6c80c92926a4b)
REM
REM compiler GCC version 9.2.1 20190827 (Red Hat 9.2.1-1)
REM options -cpp -mtune=generic -march=x86-64 -g -O0 -fpre-include=/usr/include/finclude/math-vector-fortran.h
REM seed 1601135758 -456285814 1948922951 1338658176 301951232 413634669 -130606595 -585945465 -281430874 -427856237 -131056451 -1458961247 -757174268 -1876143435 -533356794 361068381 -472449229 230883705 577506539 1919917696 -1152783812 -1866951214 -1468190152 1325760639 -2132775373 -489344122 -716190744 381550329 1043739739 -364552658 42626255 -940078800 -1694693053
REM
CELL 1.54180   50.00000   50.00000   50.00000   90.00000   90.00000   90.00000
LATT -1
SFAC C  
C      1  0.4801410000000  0.5275010000000  0.4384540000000 1.0
C      1  0.5527440000000  0.5755000000000  0.4387350000000 1.0
C      1  0.4485630000000  0.4278650000000  0.5658560000000 1.0
C      1  0.5839200000000  0.5334460000000  0.4853550000000 1.0
C      1  0.3966010000000  0.4683180000000  0.5080010000000 1.0
C      1  0.4300920000000  0.4156500000000  0.4983460000000 1.0
C      1  0.5523530000000  0.4564130000000  0.5018830000000 1.0
C      1  0.4720460000000  0.4599730000000  0.5222890000000 1.0
C      1  0.5021220000000  0.6023900000000  0.5291730000000 1.0
C      1  0.5277420000000  0.4072730000000  0.5476190000000 1.0
C      1  0.4874170000000  0.5189420000000  0.5987510000000 1.0
C      1  0.4674580000000  0.5801690000000  0.4441890000000 1.0
C      1  0.4474330000000  0.5501040000000  0.4926460000000 1.0
C      1  0.6025190000000  0.5020210000000  0.5374860000000 1.0
C      1  0.4526960000000  0.5032300000000  0.4781040000000 1.0
C      1  0.4647400000000  0.4107820000000  0.4454770000000 1.0
C      1  0.4822810000000  0.4667080000000  0.6005940000000 1.0
C      1  0.4154640000000  0.5237400000000  0.5666600000000 1.0
C      1  0.5724240000000  0.4927030000000  0.5769050000000 1.0
C      1  0.4797190000000  0.5037120000000  0.4581780000000 1.0
C      1  0.4185150000000  0.4946700000000  0.5788780000000 1.0
C      1  0.5389970000000  0.5581590000000  0.4793670000000 1.0
C      1  0.4738440000000  0.5135660000000  0.4091600000000 1.0
C      1  0.5919560000000  0.5031040000000  0.4577810000000 1.0
C      1  0.3983130000000  0.4815920000000  0.5385440000000 1.0
C      1  0.4395720000000  0.4575130000000  0.5563540000000 1.0
C      1  0.4751370000000  0.4618930000000  0.4137000000000 1.0
C      1  0.5688200000000  0.5634670000000  0.4638630000000 1.0
C      1  0.5095850000000  0.4674460000000  0.5942160000000 1.0
C      1  0.4623600000000  0.5671830000000  0.5123820000000 1.0
C      1  0.5647120000000  0.4924210000000  0.4161160000000 1.0
C      1  0.4310940000000  0.4201580000000  0.5375590000000 1.0
C      1  0.4763780000000  0.4770220000000  0.4441520000000 1.0
C      1  0.4907120000000  0.6164630000000  0.4713630000000 1.0
C      1  0.5708290000000  0.4336140000000  0.5357530000000 1.0
C      1  0.4560570000000  0.5538390000000  0.5428350000000 1.0
C      1  0.4577030000000  0.5211150000000  0.5455240000000 1.0
C      1  0.4436090000000  0.5951410000000  0.4867390000000 1.0
C      1  0.5284450000000  0.5028040000000  0.5312190000000 1.0
C      1  0.4436360000000  0.4932920000000  0.5911380000000 1.0
C      1  0.5228800000000  0.4191160000000  0.4144480000000 1.0
C      1  0.5395410000000  0.4557780000000  0.4094970000000 1.0
C      1  0.4991940000000  0.3966770000000  0.4925250000000 1.0
C      1  0.4687390000000  0.4098350000000  0.5453880000000 1.0
C      1  0.5286590000000  0.4881010000000  0.6008500000000 1.0
C      1  0.5754720000000  0.4758830000000  0.4991710000000 1.0
C      1  0.5869030000000  0.4544660000000  0.5449720000000 1.0
C      1  0.5397410000000  0.4655620000000  0.5558510000000 1.0
C      1  0.4160320000000  0.5553270000000  0.4828630000000 1.0
C      1  0.4140690000000  0.4732570000000  0.5605290000000 1.0
C      1  0.5177380000000  0.4983290000000  0.5613850000000 1.0
C      1  0.4929600000000  0.5667970000000  0.5819020000000 1.0
C      1  0.5683060000000  0.4288650000000  0.4897800000000 1.0
C      1  0.3969920000000  0.4910820000000  0.4821930000000 1.0
C      1  0.4315250000000  0.5254240000000  0.5060050000000 1.0
C      1  0.4997050000000  0.5755760000000  0.4214020000000 1.0
C      1  0.4912060000000  0.5744850000000  0.4958510000000 1.0
C      1  0.5955270000000  0.5501820000000  0.5194740000000 1.0
C      1  0.5157510000000  0.5974630000000  0.4604960000000 1.0
C      1  0.4394280000000  0.5906410000000  0.4592240000000 1.0
C      1  0.5510680000000  0.5679660000000  0.5742390000000 1.0
C      1  0.5567670000000  0.4418560000000  0.5830870000000 1.0
C      1  0.4191190000000  0.4987540000000  0.4365710000000 1.0
C      1  0.5122740000000  0.5282650000000  0.4827970000000 1.0
C      1  0.5154190000000  0.4694650000000  0.4515550000000 1.0
C      1  0.4775520000000  0.4918330000000  0.4988350000000 1.0
C      1  0.4636470000000  0.4973550000000  0.5657390000000 1.0
C      1  0.5508100000000  0.5922910000000  0.5159600000000 1.0
C      1  0.4932500000000  0.4981940000000  0.5733660000000 1.0
C      1  0.4875260000000  0.5615540000000  0.5429190000000 1.0
C      1  0.5536730000000  0.5307920000000  0.5185170000000 1.0
C      1  0.4869780000000  0.5285310000000  0.5031980000000 1.0
C      1  0.5628460000000  0.5048170000000  0.5334370000000 1.0
C      1  0.4049220000000  0.4742640000000  0.4537230000000 1.0
C      1  0.4866950000000  0.5566400000000  0.4549440000000 1.0
C      1  0.5341040000000  0.5319240000000  0.5753550000000 1.0
C      1  0.4953340000000  0.5235160000000  0.3890540000000 1.0
C      1  0.5209840000000  0.5023940000000  0.3865410000000 1.0
C      1  0.4187260000000  0.4430510000000  0.5153160000000 1.0
C      1  0.4703130000000  0.5387540000000  0.4753750000000 1.0
C      1  0.4747320000000  0.4474610000000  0.4558130000000 1.0
C      1  0.4007480000000  0.5248950000000  0.4804840000000 1.0
C      1  0.4684020000000  0.4396390000000  0.5900660000000 1.0
C      1  0.5695340000000  0.5478560000000  0.5659020000000 1.0
C      1  0.5096990000000  0.4230070000000  0.5687910000000 1.0
C      1  0.4522560000000  0.4822820000000  0.5375600000000 1.0
C      1  0.5199400000000  0.5148470000000  0.5977380000000 1.0
C      1  0.4715260000000  0.5999430000000  0.4913870000000 1.0
C      1  0.4903980000000  0.4163620000000  0.5927970000000 1.0
C      1  0.5620230000000  0.5044050000000  0.4455570000000 1.0
C      1  0.5809110000000  0.5804760000000  0.5177280000000 1.0
C      1  0.5307610000000  0.5486000000000  0.5457650000000 1.0
C      1  0.5846680000000  0.5359810000000  0.4525760000000 1.0
C      1  0.4253350000000  0.5153300000000  0.4620540000000 1.0
C      1  0.5131020000000  0.3924530000000  0.5240190000000 1.0
C      1  0.4387490000000  0.5907910000000  0.5340930000000 1.0
C      1  0.4882320000000  0.5901790000000  0.5586560000000 1.0
C      1  0.5676000000000  0.4231680000000  0.4584460000000 1.0
C      1  0.5323180000000  0.3937980000000  0.4955970000000 1.0
C      1  0.4054270000000  0.4527600000000  0.4789120000000 1.0
C      1  0.4734650000000  0.4588670000000  0.5619710000000 1.0
C      1  0.5470160000000  0.6001010000000  0.4615740000000 1.0
C      1  0.4458540000000  0.5387530000000  0.4213800000000 1.0
C      1  0.5224220000000  0.5381220000000  0.5137710000000 1.0
C      1  0.4645960000000  0.4622530000000  0.4909960000000 1.0
C      1  0.4249880000000  0.4948700000000  0.4961900000000 1.0
C      1  0.5092630000000  0.4801500000000  0.5032560000000 1.0
C      1  0.4382620000000  0.5652710000000  0.4391750000000 1.0
C      1  0.5548120000000  0.5606580000000  0.5076410000000 1.0
C      1  0.4555740000000  0.5088750000000  0.5175480000000 1.0
C      1  0.5400460000000  0.4336510000000  0.5323030000000 1.0
C      1  0.4345170000000  0.5735930000000  0.5589540000000 1.0
C      1  0.4954990000000  0.5095820000000  0.5301910000000 1.0
C      1  0.5992240000000  0.4967900000000  0.4877030000000 1.0
C      1  0.4756110000000  0.5528220000000  0.4160480000000 1.0
C      1  0.4954530000000  0.4639930000000  0.4767020000000 1.0
C      1  0.4694010000000  0.4226050000000  0.4961020000000 1.0
C      1  0.5022520000000  0.4418950000000  0.4126120000000 1.0
C      1  0.4454460000000  0.3964440000000  0.5168260000000 1.0
C      1  0.5130840000000  0.4157490000000  0.4677980000000 1.0
C      1  0.4171960000000  0.5509080000000  0.5516010000000 1.0
C      1  0.5519940000000  0.5273100000000  0.4858770000000 1.0
C      1  0.5152340000000  0.4563590000000  0.5256610000000 1.0
C      1  0.4897970000000  0.4347560000000  0.5476970000000 1.0
C      1  0.5107560000000  0.4996490000000  0.4675600000000 1.0
C      1  0.5535380000000  0.4632400000000  0.4625950000000 1.0
C      1  0.5003290000000  0.5563100000000  0.3933760000000 1.0
C      1  0.5357390000000  0.5001250000000  0.4985450000000 1.0
C      1  0.5899650000000  0.5659270000000  0.4893700000000 1.0
C      1  0.5196670000000  0.4521460000000  0.5724250000000 1.0
C      1  0.4303640000000  0.4606150000000  0.4377510000000 1.0
C      1  0.4361920000000  0.4692350000000  0.5083550000000 1.0
C      1  0.5404350000000  0.4167670000000  0.4386970000000 1.0
C      1  0.5383650000000  0.6066840000000  0.4921390000000 1.0
C      1  0.4878160000000  0.5318210000000  0.5524610000000 1.0
C      1  0.5274450000000  0.5357100000000  0.3932300000000 1.0
C      1  0.4696360000000  0.4915330000000  0.6047710000000 1.0
C      1  0.4722300000000  0.5446260000000  0.5869610000000 1.0
C      1  0.5352060000000  0.4481450000000  0.4389500000000 1.0
C      1  0.4433740000000  0.4365610000000  0.4521450000000 1.0
C      1  0.5859590000000  0.4481980000000  0.4175010000000 1.0
C      1  0.5264240000000  0.4245480000000  0.5043910000000 1.0
C      1  0.4161510000000  0.5506050000000  0.5218800000000 1.0
C      1  0.5806860000000  0.4192500000000  0.5127080000000 1.0
C      1  0.5472850000000  0.5520720000000  0.4136130000000 1.0
C      1  0.6003530000000  0.4731050000000  0.5214810000000 1.0
C      1  0.4900530000000  0.6021960000000  0.4402340000000 1.0
C      1  0.5641820000000  0.5189050000000  0.5757390000000 1.0
C      1  0.5903090000000  0.4815400000000  0.5589210000000 1.0
C      1  0.5375850000000  0.5031360000000  0.4140540000000 1.0
C      1  0.5438540000000  0.4003470000000  0.4669500000000 1.0
C      1  0.3776390000000  0.5234730000000  0.5270210000000 1.0
C      1  0.4968520000000  0.4296620000000  0.5148860000000 1.0
C      1  0.4921290000000  0.4770460000000  0.5395820000000 1.0
C      1  0.4581750000000  0.4334580000000  0.5234190000000 1.0
C      1  0.5213940000000  0.5622130000000  0.5820220000000 1.0
C      1  0.5534410000000  0.4721240000000  0.5321350000000 1.0
C      1  0.4452890000000  0.4738870000000  0.4194280000000 1.0
C      1  0.4946860000000  0.4255750000000  0.4418580000000 1.0
C      1  0.5846000000000  0.5297600000000  0.5431630000000 1.0
C      1  0.5524320000000  0.5348370000000  0.4412700000000 1.0
C      1  0.5870720000000  0.4693420000000  0.4616200000000 1.0
C      1  0.6025010000000  0.5188310000000  0.5092980000000 1.0
C      1  0.4242100000000  0.5791780000000  0.5066400000000 1.0
C      1  0.5234390000000  0.5615420000000  0.4345800000000 1.0
C      1  0.4450460000000  0.5369780000000  0.4549900000000 1.0
C      1  0.5495120000000  0.4223000000000  0.5693740000000 1.0
C      1  0.3928260000000  0.5088690000000  0.5456960000000 1.0
C      1  0.5052770000000  0.5638060000000  0.5196100000000 1.0
C      1  0.5532740000000  0.4736390000000  0.5889580000000 1.0
C      1  0.4617200000000  0.4091180000000  0.4746940000000 1.0
C      1  0.3920040000000  0.5369090000000  0.5082800000000 1.0
C      1  0.5440200000000  0.4923140000000  0.4670710000000 1.0
C      1  0.4791200000000  0.3918830000000  0.5196650000000 1.0
C      1  0.4245060000000  0.4319960000000  0.4753890000000 1.0
C      1  0.6061610000000  0.4635300000000  0.4892650000000 1.0
C      1  0.5849970000000  0.4434490000000  0.4443600000000 1.0
C      1  0.5325730000000  0.4417930000000  0.4782650000000 1.0
C      1  0.5204730000000  0.5353320000000  0.4528900000000 1.0
C      1  0.4696320000000  0.5950740000000  0.5306570000000 1.0
C      1  0.5662840000000  0.4656210000000  0.4066040000000 1.0
C      1  0.4414890000000  0.5061930000000  0.4130470000000 1.0
C      1  0.5150130000000  0.4919810000000  0.4290060000000 1.0
C      1  0.4909770000000  0.4890240000000  0.4091080000000 1.0
C      1  0.5111810000000  0.5692490000000  0.4718270000000 1.0
C      1  0.5105190000000  0.6126430000000  0.4986570000000 1.0
C      1  0.4441540000000  0.5388390000000  0.5785380000000 1.0
C      1  0.5147590000000  0.4697850000000  0.3958590000000 1.0
C      1  0.5282450000000  0.5811760000000  0.5352650000000 1.0
END
