TITL C-2778430-5657-680 -0.00112507904280426 125000 -773.685039711403 0 0 135 (C1) n - 1
REM
REM in /home/nfs/bkarasulu/CARBON/AIRSS/Generating-Clusters/REBO/Only-C1/SD-CG/HFTN-CG
REM
REM
REM
REM
REM
REM ./C.cell (11c1c37f851c82e70ff6c80c92926a4b)
REM
REM compiler GCC version 9.2.1 20190827 (Red Hat 9.2.1-1)
REM options -cpp -mtune=generic -march=x86-64 -g -O0 -fpre-include=/usr/include/finclude/math-vector-fortran.h
REM seed -2069900653 294337950 1409685984 -128697537 -1442372396 1392490148 174175322 -296308451 124549978 -376169882 478980705 1443415872 -15990140 -1091993423 1452429401 -321624129 1980878600 1573007167 1706564043 407698961 470959870 -1084673987 -317692152 -1847163971 -84454948 -664173064 1360940921 -1898482215 2066461566 234604461 1317190909 2133795249 1499987403
REM
CELL 1.54180   50.00000   50.00000   50.00000   90.00000   90.00000   90.00000
LATT -1
SFAC C  
C      1  0.5032820000000  0.4627560000000  0.4228330000000 1.0
C      1  0.4434840000000  0.5141010000000  0.5638820000000 1.0
C      1  0.5273470000000  0.5983210000000  0.4868070000000 1.0
C      1  0.5778490000000  0.4794080000000  0.5242860000000 1.0
C      1  0.5231790000000  0.4353890000000  0.4744050000000 1.0
C      1  0.5312220000000  0.5673540000000  0.4408740000000 1.0
C      1  0.5018020000000  0.4233710000000  0.4392760000000 1.0
C      1  0.4694350000000  0.5433480000000  0.4877150000000 1.0
C      1  0.5540130000000  0.5269000000000  0.4005400000000 1.0
C      1  0.4965330000000  0.5420790000000  0.5448760000000 1.0
C      1  0.5044710000000  0.4878800000000  0.5261180000000 1.0
C      1  0.5709740000000  0.5254960000000  0.5459600000000 1.0
C      1  0.5078890000000  0.5602710000000  0.5183800000000 1.0
C      1  0.4485460000000  0.5876550000000  0.4886650000000 1.0
C      1  0.4951990000000  0.5646610000000  0.4807700000000 1.0
C      1  0.5802540000000  0.4467030000000  0.5241060000000 1.0
C      1  0.4305180000000  0.5699400000000  0.5196030000000 1.0
C      1  0.4247430000000  0.5655970000000  0.4869070000000 1.0
C      1  0.4985780000000  0.5373930000000  0.5903820000000 1.0
C      1  0.5919080000000  0.5435670000000  0.4891950000000 1.0
C      1  0.4930320000000  0.4841110000000  0.4465260000000 1.0
C      1  0.5495010000000  0.5519280000000  0.5486380000000 1.0
C      1  0.5319500000000  0.4521260000000  0.5822310000000 1.0
C      1  0.4133680000000  0.5194300000000  0.5209810000000 1.0
C      1  0.4298240000000  0.5506730000000  0.4614990000000 1.0
C      1  0.5355310000000  0.5040110000000  0.5996750000000 1.0
C      1  0.4821760000000  0.4258000000000  0.5553880000000 1.0
C      1  0.5164500000000  0.5069590000000  0.5590830000000 1.0
C      1  0.4579360000000  0.4736630000000  0.6021080000000 1.0
C      1  0.4260450000000  0.4722970000000  0.5369520000000 1.0
C      1  0.5271360000000  0.5346390000000  0.5757460000000 1.0
C      1  0.4443400000000  0.5228880000000  0.4417240000000 1.0
C      1  0.4771850000000  0.5507220000000  0.5706490000000 1.0
C      1  0.4595610000000  0.5427180000000  0.5264380000000 1.0
C      1  0.4630210000000  0.4904940000000  0.4198730000000 1.0
C      1  0.4898650000000  0.5951270000000  0.5259270000000 1.0
C      1  0.4479110000000  0.5447430000000  0.5646490000000 1.0
C      1  0.4934020000000  0.4896680000000  0.5772800000000 1.0
C      1  0.5514740000000  0.5643790000000  0.4934740000000 1.0
C      1  0.5415570000000  0.5432340000000  0.4189010000000 1.0
C      1  0.5138820000000  0.5185080000000  0.4853190000000 1.0
C      1  0.5543420000000  0.5154920000000  0.5740020000000 1.0
C      1  0.5138180000000  0.4095070000000  0.4876420000000 1.0
C      1  0.5015740000000  0.5148920000000  0.4581250000000 1.0
C      1  0.5592650000000  0.4983010000000  0.4056770000000 1.0
C      1  0.5529490000000  0.4328700000000  0.4615480000000 1.0
C      1  0.4756870000000  0.4553620000000  0.6025540000000 1.0
C      1  0.3991030000000  0.4744900000000  0.4597730000000 1.0
C      1  0.4133790000000  0.4779130000000  0.4348950000000 1.0
C      1  0.4360080000000  0.5729000000000  0.5504770000000 1.0
C      1  0.4466730000000  0.5203330000000  0.5141100000000 1.0
C      1  0.4411100000000  0.4699400000000  0.4768670000000 1.0
C      1  0.4279410000000  0.5034080000000  0.5450900000000 1.0
C      1  0.4839900000000  0.5084870000000  0.4126750000000 1.0
C      1  0.4572900000000  0.4054360000000  0.5174620000000 1.0
C      1  0.5684130000000  0.4544720000000  0.4514970000000 1.0
C      1  0.5420280000000  0.5162760000000  0.5135830000000 1.0
C      1  0.5143430000000  0.4703530000000  0.3917550000000 1.0
C      1  0.4839760000000  0.4357570000000  0.4912960000000 1.0
C      1  0.5318790000000  0.5026240000000  0.4232620000000 1.0
C      1  0.5188820000000  0.5661820000000  0.5561900000000 1.0
C      1  0.4233290000000  0.4747370000000  0.5056510000000 1.0
C      1  0.4555840000000  0.4750990000000  0.5504410000000 1.0
C      1  0.5099540000000  0.4440580000000  0.5109430000000 1.0
C      1  0.5995820000000  0.4865730000000  0.4792350000000 1.0
C      1  0.5295820000000  0.4211590000000  0.5422670000000 1.0
C      1  0.5805040000000  0.4900660000000  0.4379520000000 1.0
C      1  0.4901220000000  0.5287630000000  0.4315630000000 1.0
C      1  0.4927320000000  0.5330290000000  0.5063340000000 1.0
C      1  0.5621340000000  0.5735590000000  0.5174840000000 1.0
C      1  0.4526890000000  0.5539410000000  0.4389530000000 1.0
C      1  0.5579650000000  0.5163470000000  0.4788690000000 1.0
C      1  0.5110380000000  0.4315180000000  0.5656420000000 1.0
C      1  0.5413690000000  0.5221850000000  0.4494100000000 1.0
C      1  0.4599060000000  0.4214000000000  0.4907830000000 1.0
C      1  0.4546840000000  0.4513430000000  0.5185800000000 1.0
C      1  0.4879200000000  0.5136350000000  0.5308070000000 1.0
C      1  0.5812010000000  0.4670550000000  0.4731680000000 1.0
C      1  0.4045210000000  0.4967040000000  0.5017490000000 1.0
C      1  0.5192690000000  0.5922220000000  0.5156550000000 1.0
C      1  0.4996360000000  0.5694160000000  0.4508010000000 1.0
C      1  0.4660980000000  0.4476020000000  0.5566820000000 1.0
C      1  0.5102490000000  0.3868940000000  0.4745250000000 1.0
C      1  0.5000370000000  0.4590010000000  0.5830160000000 1.0
C      1  0.5245240000000  0.5507140000000  0.4909940000000 1.0
C      1  0.4019810000000  0.5498840000000  0.5005370000000 1.0
C      1  0.5306040000000  0.5909400000000  0.4636630000000 1.0
C      1  0.4001680000000  0.4995650000000  0.4744290000000 1.0
C      1  0.5788230000000  0.5090690000000  0.4535860000000 1.0
C      1  0.4687370000000  0.5059700000000  0.4565070000000 1.0
C      1  0.4492040000000  0.5197670000000  0.4809160000000 1.0
C      1  0.4718310000000  0.4612760000000  0.4221100000000 1.0
C      1  0.5347830000000  0.4554790000000  0.4122140000000 1.0
C      1  0.4879890000000  0.5793070000000  0.5556040000000 1.0
C      1  0.5510660000000  0.4212600000000  0.5157140000000 1.0
C      1  0.4084760000000  0.4545190000000  0.5492140000000 1.0
C      1  0.4807750000000  0.5551570000000  0.4352500000000 1.0
C      1  0.4411050000000  0.4293950000000  0.5250300000000 1.0
C      1  0.4701370000000  0.5675840000000  0.5290110000000 1.0
C      1  0.5866510000000  0.5632970000000  0.5235850000000 1.0
C      1  0.5479710000000  0.4900600000000  0.5190420000000 1.0
C      1  0.5604270000000  0.4685060000000  0.4223990000000 1.0
C      1  0.5404970000000  0.5828350000000  0.5375360000000 1.0
C      1  0.4220560000000  0.5438980000000  0.5397780000000 1.0
C      1  0.5306240000000  0.4816810000000  0.5434060000000 1.0
C      1  0.5355220000000  0.4591680000000  0.4958030000000 1.0
C      1  0.4389000000000  0.4361600000000  0.4730340000000 1.0
C      1  0.5077440000000  0.5082820000000  0.5981010000000 1.0
C      1  0.5581070000000  0.4381210000000  0.5446640000000 1.0
C      1  0.4625210000000  0.4762520000000  0.4986370000000 1.0
C      1  0.5321530000000  0.5276910000000  0.5368280000000 1.0
C      1  0.4613490000000  0.4955070000000  0.5800950000000 1.0
C      1  0.5009730000000  0.4615940000000  0.4761600000000 1.0
C      1  0.5086330000000  0.4118440000000  0.5188150000000 1.0
C      1  0.5676320000000  0.4923220000000  0.5536980000000 1.0
C      1  0.4565150000000  0.4469900000000  0.4481500000000 1.0
C      1  0.5318400000000  0.4833640000000  0.4488120000000 1.0
C      1  0.5896270000000  0.5309020000000  0.5212000000000 1.0
C      1  0.4618210000000  0.4947450000000  0.5256810000000 1.0
C      1  0.5086270000000  0.4974480000000  0.4037530000000 1.0
C      1  0.4863590000000  0.4638170000000  0.5193800000000 1.0
C      1  0.4073880000000  0.4491300000000  0.4724770000000 1.0
C      1  0.5588100000000  0.5501770000000  0.4505800000000 1.0
C      1  0.5570520000000  0.4210570000000  0.4898650000000 1.0
C      1  0.5881680000000  0.5114020000000  0.4933320000000 1.0
C      1  0.4741980000000  0.5818250000000  0.4996560000000 1.0
C      1  0.5145920000000  0.4862110000000  0.4955110000000 1.0
C      1  0.4194900000000  0.5191870000000  0.4639700000000 1.0
C      1  0.4433130000000  0.4780610000000  0.4437370000000 1.0
C      1  0.5448400000000  0.4878530000000  0.4695900000000 1.0
C      1  0.5709710000000  0.5562000000000  0.4755350000000 1.0
C      1  0.5503050000000  0.4637520000000  0.5607460000000 1.0
C      1  0.5654120000000  0.4611620000000  0.4981080000000 1.0
C      1  0.4877100000000  0.4412530000000  0.4525900000000 1.0
C      1  0.4818770000000  0.4067500000000  0.5333350000000 1.0
END
