TITL C-2778435-5768-550 0.000227099494221366 125000 -462.833303201726 0 0 82 (C1) n - 1
REM
REM in /home/nfs/bkarasulu/CARBON/AIRSS/Generating-Clusters/REBO/Only-C1/SD-CG/HFTN-CG
REM
REM
REM
REM
REM
REM ./C.cell (11c1c37f851c82e70ff6c80c92926a4b)
REM
REM compiler GCC version 9.2.1 20190827 (Red Hat 9.2.1-1)
REM options -cpp -mtune=generic -march=x86-64 -g -O0 -fpre-include=/usr/include/finclude/math-vector-fortran.h
REM seed 796412513 -417354008 2045549119 -883476667 -830848619 -1318237211 -316097739 -1645971540 1890638761 322387725 1530954011 37161424 -1601040716 -1246773718 -2010044079 402540311 -1737905743 420390192 2109097253 -338976344 -86298251 -539710218 836670196 -251891552 1318516499 -1431146254 1653896212 199604188 1699644327 1510065585 1000842797 -1128494932 501259352
REM
CELL 1.54180   50.00000   50.00000   50.00000   90.00000   90.00000   90.00000
LATT -1
SFAC C  
C      1  0.5292990000000  0.5811390000000  0.5310670000000 1.0
C      1  0.5217920000000  0.4184200000000  0.5379020000000 1.0
C      1  0.4988080000000  0.4212090000000  0.5053870000000 1.0
C      1  0.5040670000000  0.5398250000000  0.5274120000000 1.0
C      1  0.5290900000000  0.4617030000000  0.4459880000000 1.0
C      1  0.4505930000000  0.5530630000000  0.4554230000000 1.0
C      1  0.4989140000000  0.5523550000000  0.4195380000000 1.0
C      1  0.4559340000000  0.5464770000000  0.5759230000000 1.0
C      1  0.4782410000000  0.5351990000000  0.4143370000000 1.0
C      1  0.5378780000000  0.5113290000000  0.5274570000000 1.0
C      1  0.4504240000000  0.5469750000000  0.5310340000000 1.0
C      1  0.4969530000000  0.5390300000000  0.4994770000000 1.0
C      1  0.4383670000000  0.4864390000000  0.4726090000000 1.0
C      1  0.5077250000000  0.4454620000000  0.4593740000000 1.0
C      1  0.4865340000000  0.4153760000000  0.4741070000000 1.0
C      1  0.4650350000000  0.4355560000000  0.4897240000000 1.0
C      1  0.4558290000000  0.5280950000000  0.4363840000000 1.0
C      1  0.5200190000000  0.4216790000000  0.4787050000000 1.0
C      1  0.5336500000000  0.4570730000000  0.5410510000000 1.0
C      1  0.5351550000000  0.5423540000000  0.5385280000000 1.0
C      1  0.5072670000000  0.5301360000000  0.4517120000000 1.0
C      1  0.4194420000000  0.5094420000000  0.5230220000000 1.0
C      1  0.4928620000000  0.4846440000000  0.4348170000000 1.0
C      1  0.4948510000000  0.5382030000000  0.5734040000000 1.0
C      1  0.4508050000000  0.4656070000000  0.4154700000000 1.0
C      1  0.5202100000000  0.5150340000000  0.5791330000000 1.0
C      1  0.4330800000000  0.5175290000000  0.4595440000000 1.0
C      1  0.4734320000000  0.5528830000000  0.4810870000000 1.0
C      1  0.5765060000000  0.4665200000000  0.4840710000000 1.0
C      1  0.5277860000000  0.5449000000000  0.5677770000000 1.0
C      1  0.4426250000000  0.5228500000000  0.5690780000000 1.0
C      1  0.5396760000000  0.5200790000000  0.4498480000000 1.0
C      1  0.4490070000000  0.4742690000000  0.5793960000000 1.0
C      1  0.5092370000000  0.4628690000000  0.5642280000000 1.0
C      1  0.5772250000000  0.5027160000000  0.5613030000000 1.0
C      1  0.4633060000000  0.5088720000000  0.4705150000000 1.0
C      1  0.5654930000000  0.4970680000000  0.5366260000000 1.0
C      1  0.5029400000000  0.4796640000000  0.5850400000000 1.0
C      1  0.4339350000000  0.5255140000000  0.5419560000000 1.0
C      1  0.5216570000000  0.4838670000000  0.4853250000000 1.0
C      1  0.4963290000000  0.4774850000000  0.5034670000000 1.0
C      1  0.4987240000000  0.4378370000000  0.5435330000000 1.0
C      1  0.5648310000000  0.5058760000000  0.4381700000000 1.0
C      1  0.4698350000000  0.5228850000000  0.4969100000000 1.0
C      1  0.4493560000000  0.4836760000000  0.5169320000000 1.0
C      1  0.5514680000000  0.5617090000000  0.5203600000000 1.0
C      1  0.4881750000000  0.5065430000000  0.5845880000000 1.0
C      1  0.5209330000000  0.4753280000000  0.4187450000000 1.0
C      1  0.4570140000000  0.5856060000000  0.4479480000000 1.0
C      1  0.5641960000000  0.5440510000000  0.5009500000000 1.0
C      1  0.4751010000000  0.4377850000000  0.4511470000000 1.0
C      1  0.4553250000000  0.4604240000000  0.4684490000000 1.0
C      1  0.4605430000000  0.4984390000000  0.5727720000000 1.0
C      1  0.5694370000000  0.4983390000000  0.4874460000000 1.0
C      1  0.5029780000000  0.5690080000000  0.4410930000000 1.0
C      1  0.5518370000000  0.4267840000000  0.4897290000000 1.0
C      1  0.5607650000000  0.4661900000000  0.5307390000000 1.0
C      1  0.4337200000000  0.5437990000000  0.4813140000000 1.0
C      1  0.4641730000000  0.5071190000000  0.5218740000000 1.0
C      1  0.5197970000000  0.4927500000000  0.4545530000000 1.0
C      1  0.4875140000000  0.4659780000000  0.4753170000000 1.0
C      1  0.4415800000000  0.5529620000000  0.5051920000000 1.0
C      1  0.5364850000000  0.4572740000000  0.4859280000000 1.0
C      1  0.5499080000000  0.5395550000000  0.4760860000000 1.0
C      1  0.4828920000000  0.5756990000000  0.4600090000000 1.0
C      1  0.5050940000000  0.5698730000000  0.5388300000000 1.0
C      1  0.4742450000000  0.4333620000000  0.5227500000000 1.0
C      1  0.4246970000000  0.4885770000000  0.5013350000000 1.0
C      1  0.4676840000000  0.4624230000000  0.5096740000000 1.0
C      1  0.5188750000000  0.5310160000000  0.4819030000000 1.0
C      1  0.5034470000000  0.4695440000000  0.5312560000000 1.0
C      1  0.4839190000000  0.5120520000000  0.4464280000000 1.0
C      1  0.5744160000000  0.4866260000000  0.4565550000000 1.0
C      1  0.4764320000000  0.5561700000000  0.5511550000000 1.0
C      1  0.5098750000000  0.5125620000000  0.5467530000000 1.0
C      1  0.4712900000000  0.4636520000000  0.4319870000000 1.0
C      1  0.5736510000000  0.5181820000000  0.5112090000000 1.0
C      1  0.5688810000000  0.4499340000000  0.5079610000000 1.0
C      1  0.5380090000000  0.5075550000000  0.4967330000000 1.0
C      1  0.5247300000000  0.4408630000000  0.5133000000000 1.0
C      1  0.4791180000000  0.5055180000000  0.5458060000000 1.0
C      1  0.5570700000000  0.4575670000000  0.4583350000000 1.0
END
