TITL C-2778422-5617-49 0.00353176300870746 125000 -1128.21816465288 0 0 193 (C1) n - 1
REM
REM in /home/nfs/bkarasulu/CARBON/AIRSS/Generating-Clusters/REBO/Only-C1/SD-CG/HFTN-CG
REM
REM
REM
REM
REM
REM ./C.cell (11c1c37f851c82e70ff6c80c92926a4b)
REM
REM compiler GCC version 9.2.1 20190827 (Red Hat 9.2.1-1)
REM options -cpp -mtune=generic -march=x86-64 -g -O0 -fpre-include=/usr/include/finclude/math-vector-fortran.h
REM seed 101470983 105606408 566803185 -17531767 681064853 1824513777 -1605864452 -375713993 2023705820 -2125670199 1527448136 1247733185 -1630888526 -2108571091 -1647796564 1561343463 1533406012 797795443 -791399223 535937033 -260521511 -1402005678 554114294 345278101 -464568334 1499608445 -645125901 592297943 -512154763 -1421170750 -1831907019 700113309 2038422636
REM
CELL 1.54180   50.00000   50.00000   50.00000   90.00000   90.00000   90.00000
LATT -1
SFAC C  
C      1  0.4257640000000  0.5232090000000  0.5288190000000 1.0
C      1  0.5107390000000  0.4662950000000  0.5716140000000 1.0
C      1  0.4974120000000  0.4343530000000  0.5022580000000 1.0
C      1  0.4566540000000  0.4993070000000  0.4380470000000 1.0
C      1  0.5615310000000  0.5277880000000  0.5169080000000 1.0
C      1  0.5274910000000  0.5613160000000  0.5064870000000 1.0
C      1  0.5223390000000  0.5702270000000  0.5825640000000 1.0
C      1  0.4747250000000  0.4835610000000  0.5652710000000 1.0
C      1  0.5886130000000  0.4789480000000  0.5470910000000 1.0
C      1  0.5845470000000  0.4482270000000  0.5108460000000 1.0
C      1  0.4219130000000  0.5300810000000  0.4896310000000 1.0
C      1  0.4327560000000  0.5670510000000  0.4771370000000 1.0
C      1  0.5535500000000  0.4029810000000  0.4460920000000 1.0
C      1  0.4904240000000  0.5761020000000  0.5431650000000 1.0
C      1  0.4664920000000  0.4514260000000  0.6099120000000 1.0
C      1  0.5957420000000  0.5599990000000  0.4991140000000 1.0
C      1  0.4120560000000  0.4346700000000  0.4892460000000 1.0
C      1  0.3985630000000  0.4425230000000  0.5158770000000 1.0
C      1  0.4277010000000  0.4693210000000  0.4400460000000 1.0
C      1  0.5043600000000  0.4860650000000  0.5983550000000 1.0
C      1  0.5270470000000  0.5480070000000  0.5567230000000 1.0
C      1  0.5858010000000  0.4407340000000  0.4776760000000 1.0
C      1  0.5011190000000  0.4428790000000  0.4722130000000 1.0
C      1  0.5788430000000  0.5296550000000  0.4278910000000 1.0
C      1  0.4120920000000  0.4692030000000  0.5325890000000 1.0
C      1  0.4233470000000  0.4845400000000  0.5574200000000 1.0
C      1  0.5009130000000  0.5709690000000  0.6051370000000 1.0
C      1  0.5212210000000  0.5842690000000  0.4329490000000 1.0
C      1  0.5641600000000  0.4828620000000  0.5264660000000 1.0
C      1  0.5607230000000  0.4161820000000  0.5098230000000 1.0
C      1  0.5110100000000  0.5129100000000  0.3811290000000 1.0
C      1  0.4314340000000  0.4092030000000  0.4795880000000 1.0
C      1  0.5125850000000  0.5064110000000  0.5213190000000 1.0
C      1  0.5123650000000  0.4262530000000  0.5285590000000 1.0
C      1  0.4790500000000  0.4992140000000  0.6017610000000 1.0
C      1  0.5388160000000  0.4460930000000  0.4011180000000 1.0
C      1  0.5118330000000  0.5589640000000  0.4142760000000 1.0
C      1  0.4676250000000  0.4320520000000  0.5079360000000 1.0
C      1  0.5196120000000  0.5220250000000  0.4481090000000 1.0
C      1  0.5883510000000  0.5175710000000  0.4984460000000 1.0
C      1  0.3949180000000  0.5014670000000  0.4826500000000 1.0
C      1  0.5699750000000  0.4596760000000  0.5680130000000 1.0
C      1  0.4596650000000  0.5858260000000  0.5540800000000 1.0
C      1  0.4086170000000  0.4549700000000  0.4624630000000 1.0
C      1  0.5439960000000  0.5000740000000  0.5447010000000 1.0
C      1  0.5076240000000  0.6103420000000  0.5317440000000 1.0
C      1  0.5294270000000  0.5492590000000  0.4770240000000 1.0
C      1  0.4820600000000  0.4343910000000  0.6005480000000 1.0
C      1  0.4566270000000  0.5160400000000  0.4759670000000 1.0
C      1  0.5355020000000  0.4241170000000  0.4649120000000 1.0
C      1  0.6078260000000  0.5442440000000  0.5208520000000 1.0
C      1  0.5061770000000  0.5835120000000  0.5145850000000 1.0
C      1  0.4157700000000  0.4688210000000  0.4912510000000 1.0
C      1  0.5562780000000  0.5923140000000  0.4896180000000 1.0
C      1  0.5495220000000  0.4956890000000  0.4449040000000 1.0
C      1  0.4605560000000  0.5480220000000  0.4010190000000 1.0
C      1  0.4664930000000  0.4536810000000  0.5664740000000 1.0
C      1  0.5735630000000  0.5500420000000  0.4526600000000 1.0
C      1  0.3996740000000  0.5387470000000  0.5216670000000 1.0
C      1  0.5499100000000  0.5171470000000  0.4877970000000 1.0
C      1  0.5672240000000  0.4892930000000  0.4956240000000 1.0
C      1  0.5439720000000  0.5479610000000  0.5924920000000 1.0
C      1  0.4631170000000  0.4394080000000  0.5396330000000 1.0
C      1  0.4388050000000  0.4126050000000  0.5564820000000 1.0
C      1  0.4916490000000  0.4454620000000  0.4021630000000 1.0
C      1  0.5440060000000  0.5498280000000  0.5281270000000 1.0
C      1  0.4452010000000  0.5409990000000  0.5080500000000 1.0
C      1  0.5407790000000  0.4708490000000  0.5563490000000 1.0
C      1  0.5345660000000  0.4833030000000  0.5992820000000 1.0
C      1  0.4461110000000  0.4983700000000  0.5195370000000 1.0
C      1  0.5181580000000  0.5198000000000  0.4917360000000 1.0
C      1  0.4739000000000  0.5571090000000  0.4513420000000 1.0
C      1  0.4648320000000  0.5536170000000  0.5639030000000 1.0
C      1  0.4764090000000  0.6044700000000  0.5310510000000 1.0
C      1  0.5052200000000  0.4778630000000  0.5400430000000 1.0
C      1  0.5056300000000  0.5238920000000  0.5452880000000 1.0
C      1  0.5325020000000  0.4338120000000  0.5837180000000 1.0
C      1  0.4397690000000  0.4352950000000  0.5729270000000 1.0
C      1  0.4685640000000  0.5261480000000  0.6028220000000 1.0
C      1  0.5182340000000  0.4536830000000  0.4443650000000 1.0
C      1  0.5450970000000  0.4160930000000  0.5653610000000 1.0
C      1  0.4365550000000  0.4512970000000  0.5231570000000 1.0
C      1  0.4942620000000  0.5062800000000  0.5655190000000 1.0
C      1  0.4326460000000  0.4331500000000  0.4551670000000 1.0
C      1  0.5899670000000  0.5052070000000  0.4307970000000 1.0
C      1  0.4900410000000  0.6085550000000  0.4834930000000 1.0
C      1  0.4550160000000  0.5925200000000  0.4731720000000 1.0
C      1  0.5740170000000  0.5204560000000  0.5859710000000 1.0
C      1  0.5470430000000  0.5736790000000  0.4130090000000 1.0
C      1  0.5881480000000  0.5048440000000  0.5669400000000 1.0
C      1  0.4566650000000  0.4700770000000  0.5030230000000 1.0
C      1  0.4218330000000  0.5471690000000  0.5940260000000 1.0
C      1  0.4669710000000  0.4199210000000  0.4372800000000 1.0
C      1  0.4984020000000  0.4197770000000  0.4509200000000 1.0
C      1  0.4955860000000  0.4761310000000  0.4675210000000 1.0
C      1  0.4199830000000  0.5857180000000  0.5263980000000 1.0
C      1  0.4637920000000  0.4133410000000  0.4692910000000 1.0
C      1  0.4867600000000  0.4545720000000  0.4351810000000 1.0
C      1  0.4866350000000  0.5375810000000  0.4197610000000 1.0
C      1  0.4606210000000  0.4707030000000  0.4490500000000 1.0
C      1  0.4949800000000  0.4179680000000  0.4178830000000 1.0
C      1  0.4448780000000  0.5321210000000  0.5790810000000 1.0
C      1  0.5465920000000  0.4090150000000  0.5399990000000 1.0
C      1  0.5358480000000  0.5144070000000  0.4123880000000 1.0
C      1  0.4680450000000  0.4055880000000  0.5404530000000 1.0
C      1  0.5608650000000  0.5676440000000  0.5483350000000 1.0
C      1  0.4353990000000  0.5094620000000  0.4199270000000 1.0
C      1  0.5827280000000  0.4246070000000  0.5328570000000 1.0
C      1  0.4135590000000  0.5169330000000  0.4363180000000 1.0
C      1  0.5843490000000  0.5175830000000  0.5380100000000 1.0
C      1  0.4364770000000  0.5891640000000  0.5018370000000 1.0
C      1  0.5748950000000  0.5865670000000  0.5343410000000 1.0
C      1  0.4575210000000  0.4777760000000  0.5967480000000 1.0
C      1  0.5747100000000  0.4520530000000  0.4343750000000 1.0
C      1  0.4314860000000  0.4183430000000  0.5279300000000 1.0
C      1  0.5952320000000  0.5478330000000  0.4733180000000 1.0
C      1  0.5524180000000  0.5237560000000  0.4572790000000 1.0
C      1  0.4410340000000  0.4008600000000  0.5079300000000 1.0
C      1  0.4711310000000  0.5735130000000  0.4215140000000 1.0
C      1  0.4857700000000  0.3995270000000  0.4865350000000 1.0
C      1  0.5349670000000  0.5580980000000  0.4472230000000 1.0
C      1  0.5229750000000  0.4048350000000  0.4326340000000 1.0
C      1  0.6050440000000  0.5196990000000  0.4720580000000 1.0
C      1  0.4988150000000  0.5075160000000  0.4694260000000 1.0
C      1  0.4850200000000  0.5454110000000  0.5383380000000 1.0
C      1  0.4667320000000  0.6041570000000  0.5030470000000 1.0
C      1  0.4998280000000  0.5465250000000  0.4623770000000 1.0
C      1  0.3616270000000  0.4775770000000  0.5167760000000 1.0
C      1  0.4873500000000  0.5658880000000  0.3921150000000 1.0
C      1  0.5814000000000  0.4317070000000  0.5593240000000 1.0
C      1  0.5476020000000  0.4398560000000  0.4892350000000 1.0
C      1  0.5777200000000  0.5822270000000  0.5060620000000 1.0
C      1  0.4903930000000  0.4647430000000  0.5053450000000 1.0
C      1  0.5474400000000  0.5082660000000  0.5926470000000 1.0
C      1  0.5157730000000  0.4580720000000  0.3904090000000 1.0
C      1  0.5471650000000  0.4574770000000  0.5930620000000 1.0
C      1  0.5259650000000  0.4513210000000  0.5352710000000 1.0
C      1  0.4575930000000  0.5166760000000  0.4020730000000 1.0
C      1  0.4726990000000  0.5121670000000  0.5048380000000 1.0
C      1  0.4150580000000  0.5919010000000  0.5747210000000 1.0
C      1  0.5139840000000  0.4856410000000  0.3826010000000 1.0
C      1  0.5944020000000  0.5468510000000  0.5507800000000 1.0
C      1  0.5606510000000  0.5787460000000  0.4435410000000 1.0
C      1  0.4698700000000  0.3924980000000  0.5106850000000 1.0
C      1  0.4021710000000  0.5540330000000  0.4742260000000 1.0
C      1  0.5489370000000  0.5406690000000  0.4213020000000 1.0
C      1  0.5708590000000  0.5511750000000  0.5749300000000 1.0
C      1  0.4817150000000  0.5510220000000  0.6144840000000 1.0
C      1  0.5432750000000  0.4389020000000  0.4344240000000 1.0
C      1  0.5078950000000  0.5389590000000  0.3866530000000 1.0
C      1  0.5402860000000  0.5194780000000  0.5646660000000 1.0
C      1  0.4783720000000  0.4963330000000  0.4047310000000 1.0
C      1  0.5149120000000  0.4812390000000  0.5018590000000 1.0
C      1  0.4667470000000  0.4655660000000  0.4099350000000 1.0
C      1  0.3878620000000  0.5309990000000  0.4929560000000 1.0
C      1  0.5614540000000  0.4634750000000  0.4086820000000 1.0
C      1  0.4061680000000  0.4932500000000  0.4515520000000 1.0
C      1  0.5016920000000  0.4354820000000  0.5771480000000 1.0
C      1  0.5416530000000  0.5926710000000  0.4661730000000 1.0
C      1  0.5524040000000  0.4537410000000  0.5202170000000 1.0
C      1  0.4766430000000  0.4924610000000  0.5324400000000 1.0
C      1  0.5150200000000  0.4041410000000  0.4834510000000 1.0
C      1  0.6110610000000  0.5098010000000  0.5200870000000 1.0
C      1  0.5144110000000  0.5325980000000  0.5918550000000 1.0
C      1  0.4289800000000  0.4981850000000  0.4835720000000 1.0
C      1  0.4811930000000  0.5149690000000  0.4413150000000 1.0
C      1  0.5942740000000  0.4733820000000  0.4821190000000 1.0
C      1  0.4518250000000  0.4430990000000  0.4817420000000 1.0
C      1  0.4454730000000  0.4434550000000  0.4252900000000 1.0
C      1  0.6019380000000  0.4772240000000  0.5154570000000 1.0
C      1  0.4766570000000  0.5897770000000  0.4509750000000 1.0
C      1  0.4195130000000  0.5405540000000  0.4507110000000 1.0
C      1  0.5291110000000  0.4053960000000  0.5108800000000 1.0
C      1  0.6094160000000  0.4937760000000  0.4638250000000 1.0
C      1  0.4341680000000  0.4673640000000  0.5780860000000 1.0
C      1  0.5751880000000  0.4216440000000  0.4615700000000 1.0
C      1  0.3904950000000  0.4809380000000  0.5090250000000 1.0
C      1  0.4948690000000  0.4185830000000  0.5518290000000 1.0
C      1  0.4108540000000  0.5717550000000  0.5925610000000 1.0
C      1  0.5088110000000  0.5983480000000  0.4585740000000 1.0
C      1  0.5071440000000  0.5054550000000  0.4205530000000 1.0
C      1  0.5408870000000  0.4716580000000  0.4866690000000 1.0
C      1  0.4950820000000  0.5586170000000  0.4940230000000 1.0
C      1  0.4501480000000  0.5426560000000  0.4626840000000 1.0
C      1  0.4003380000000  0.5655670000000  0.5265510000000 1.0
C      1  0.4307260000000  0.5922150000000  0.5514580000000 1.0
C      1  0.5287350000000  0.4797340000000  0.4591560000000 1.0
C      1  0.5542250000000  0.4906690000000  0.4123140000000 1.0
C      1  0.4304870000000  0.5111880000000  0.5574560000000 1.0
C      1  0.4931150000000  0.5440120000000  0.5771310000000 1.0
C      1  0.4760360000000  0.5425160000000  0.5105710000000 1.0
C      1  0.4659990000000  0.4856360000000  0.4758130000000 1.0
C      1  0.5785980000000  0.4803910000000  0.4421640000000 1.0
END
