TITL C-2778437-8639-1088 -0.000359644885134732 125000 -393.269532503869 0 0 67 (C1) n - 1
REM
REM in /home/nfs/bkarasulu/CARBON/AIRSS/Generating-Clusters/REBO/Only-C1/SD-CG/HFTN-CG
REM
REM
REM
REM
REM
REM ./C.cell (11c1c37f851c82e70ff6c80c92926a4b)
REM
REM compiler GCC version 9.2.1 20190827 (Red Hat 9.2.1-1)
REM options -cpp -mtune=generic -march=x86-64 -g -O0 -fpre-include=/usr/include/finclude/math-vector-fortran.h
REM seed -956627606 1935059920 -1428672249 1595469335 -1589806071 1193478869 1574877482 1836742952 -1975686095 -2077933605 1948640357 -1062923018 1619187292 -338708540 -1255554179 -1549514013 38543499 -1681674451 -581628209 1667482219 -154088258 -1063196077 -101190505 1525748194 -811123403 -650286893 1155599989 -1907193997 68625387 1440153954 1154526372 1961855167 1636935614
REM
CELL 1.54180   50.00000   50.00000   50.00000   90.00000   90.00000   90.00000
LATT -1
SFAC C  
C      1  0.5118850000000  0.5233520000000  0.4294270000000 1.0
C      1  0.4842130000000  0.5501110000000  0.5293480000000 1.0
C      1  0.4864840000000  0.4818400000000  0.5009810000000 1.0
C      1  0.4392820000000  0.5020740000000  0.5182110000000 1.0
C      1  0.4193470000000  0.4874180000000  0.4481160000000 1.0
C      1  0.4421130000000  0.4708830000000  0.4383630000000 1.0
C      1  0.5128400000000  0.4668160000000  0.5127250000000 1.0
C      1  0.5156620000000  0.5652880000000  0.4915030000000 1.0
C      1  0.4947240000000  0.4202810000000  0.5061700000000 1.0
C      1  0.5683860000000  0.5317010000000  0.4644300000000 1.0
C      1  0.5158420000000  0.4402320000000  0.4953070000000 1.0
C      1  0.4852920000000  0.5211650000000  0.5145060000000 1.0
C      1  0.4694480000000  0.4294010000000  0.4954870000000 1.0
C      1  0.4594090000000  0.4626950000000  0.4618910000000 1.0
C      1  0.4592850000000  0.5137890000000  0.4465590000000 1.0
C      1  0.5405140000000  0.4567900000000  0.5219840000000 1.0
C      1  0.5344630000000  0.5453810000000  0.5046000000000 1.0
C      1  0.5066180000000  0.4471670000000  0.4633330000000 1.0
C      1  0.5023850000000  0.5423880000000  0.4479800000000 1.0
C      1  0.5616280000000  0.5028140000000  0.5683670000000 1.0
C      1  0.4586520000000  0.4739970000000  0.5156930000000 1.0
C      1  0.4374970000000  0.5493690000000  0.4873090000000 1.0
C      1  0.4594880000000  0.5664020000000  0.5160280000000 1.0
C      1  0.5619650000000  0.5371860000000  0.5035210000000 1.0
C      1  0.5570550000000  0.4547220000000  0.4991060000000 1.0
C      1  0.3929890000000  0.4820630000000  0.4479650000000 1.0
C      1  0.5393230000000  0.4502080000000  0.4732940000000 1.0
C      1  0.4702080000000  0.5004750000000  0.5320680000000 1.0
C      1  0.5316710000000  0.4997220000000  0.5836990000000 1.0
C      1  0.4680980000000  0.4892210000000  0.4335700000000 1.0
C      1  0.4345380000000  0.5089510000000  0.4605350000000 1.0
C      1  0.5726450000000  0.5201020000000  0.5238700000000 1.0
C      1  0.4711140000000  0.5171950000000  0.4845740000000 1.0
C      1  0.4519180000000  0.4450410000000  0.5127000000000 1.0
C      1  0.4986780000000  0.5450880000000  0.5780190000000 1.0
C      1  0.4944910000000  0.4745150000000  0.4470250000000 1.0
C      1  0.4375990000000  0.5173160000000  0.4909280000000 1.0
C      1  0.5262570000000  0.4709590000000  0.5665090000000 1.0
C      1  0.4764510000000  0.4880050000000  0.4725090000000 1.0
C      1  0.4779650000000  0.5467360000000  0.5591630000000 1.0
C      1  0.5471560000000  0.4632910000000  0.5485370000000 1.0
C      1  0.5274990000000  0.5022440000000  0.4358680000000 1.0
C      1  0.4553590000000  0.5591300000000  0.4720270000000 1.0
C      1  0.5222020000000  0.5492360000000  0.4667810000000 1.0
C      1  0.4767880000000  0.4994820000000  0.5628440000000 1.0
C      1  0.5589870000000  0.5244140000000  0.5488410000000 1.0
C      1  0.5156690000000  0.4982530000000  0.5022580000000 1.0
C      1  0.5313600000000  0.5308440000000  0.5470680000000 1.0
C      1  0.6087240000000  0.4819580000000  0.5043430000000 1.0
C      1  0.4746150000000  0.4401340000000  0.4691070000000 1.0
C      1  0.4363030000000  0.5527250000000  0.5269970000000 1.0
C      1  0.5190120000000  0.4647570000000  0.4277300000000 1.0
C      1  0.5835510000000  0.4909200000000  0.5254670000000 1.0
C      1  0.4308710000000  0.4337890000000  0.5266330000000 1.0
C      1  0.5176440000000  0.5245360000000  0.5199870000000 1.0
C      1  0.5700470000000  0.4804110000000  0.5518760000000 1.0
C      1  0.4390960000000  0.5264450000000  0.5396910000000 1.0
C      1  0.4587200000000  0.5251190000000  0.5611670000000 1.0
C      1  0.5007130000000  0.4900480000000  0.5720250000000 1.0
C      1  0.5420060000000  0.5275970000000  0.4695950000000 1.0
C      1  0.5809390000000  0.4675410000000  0.5011890000000 1.0
C      1  0.4910530000000  0.5708140000000  0.5046250000000 1.0
C      1  0.5333700000000  0.4759970000000  0.4561460000000 1.0
C      1  0.5192920000000  0.5273050000000  0.5724660000000 1.0
C      1  0.5310360000000  0.5016560000000  0.4757070000000 1.0
C      1  0.4753170000000  0.5384100000000  0.4587860000000 1.0
C      1  0.5242480000000  0.4540860000000  0.4048660000000 1.0
END
