TITL C-2778424-3986-324 0.00154327248066406 125000 -417.015612088728 0 0 73 (C1) n - 1
REM
REM in /home/nfs/bkarasulu/CARBON/AIRSS/Generating-Clusters/REBO/Only-C1/SD-CG/HFTN-CG
REM
REM
REM
REM
REM
REM ./C.cell (11c1c37f851c82e70ff6c80c92926a4b)
REM
REM compiler GCC version 9.2.1 20190827 (Red Hat 9.2.1-1)
REM options -cpp -mtune=generic -march=x86-64 -g -O0 -fpre-include=/usr/include/finclude/math-vector-fortran.h
REM seed -1265972324 615994664 788429651 1098391309 -484445331 -1032781026 1052613854 -780760957 -110049260 996022762 -896232610 -1014712595 -1472171824 759246519 -1615164195 -1575249564 -74678184 1570112457 1498027771 647369417 -1377100110 -1443516722 169538848 -461337525 1567734433 -1807777865 -725378925 1808576264 142068445 -1123996340 -1756277062 -390454837 -1640109613
REM
CELL 1.54180   50.00000   50.00000   50.00000   90.00000   90.00000   90.00000
LATT -1
SFAC C  
C      1  0.5542990000000  0.4703130000000  0.5624640000000 1.0
C      1  0.4443590000000  0.5244630000000  0.4610580000000 1.0
C      1  0.5492260000000  0.5284530000000  0.4722240000000 1.0
C      1  0.4683670000000  0.5001020000000  0.4964230000000 1.0
C      1  0.5043190000000  0.5611680000000  0.4637980000000 1.0
C      1  0.4835580000000  0.5497890000000  0.5053930000000 1.0
C      1  0.5090340000000  0.5079530000000  0.5207700000000 1.0
C      1  0.4432590000000  0.4551000000000  0.4971290000000 1.0
C      1  0.4506720000000  0.4735250000000  0.5368990000000 1.0
C      1  0.4754360000000  0.4823430000000  0.5768630000000 1.0
C      1  0.5453010000000  0.5232300000000  0.5261090000000 1.0
C      1  0.5257680000000  0.4807140000000  0.5072200000000 1.0
C      1  0.4382060000000  0.5151460000000  0.5440900000000 1.0
C      1  0.5309220000000  0.4527940000000  0.4889120000000 1.0
C      1  0.4992920000000  0.4456700000000  0.4501000000000 1.0
C      1  0.4922250000000  0.5750090000000  0.5382970000000 1.0
C      1  0.5460650000000  0.4565920000000  0.4407270000000 1.0
C      1  0.5730430000000  0.4930530000000  0.5568630000000 1.0
C      1  0.5408750000000  0.4333060000000  0.5221040000000 1.0
C      1  0.5128680000000  0.4295940000000  0.5063200000000 1.0
C      1  0.4294590000000  0.5162970000000  0.4907140000000 1.0
C      1  0.5732690000000  0.4752540000000  0.5277000000000 1.0
C      1  0.5242800000000  0.5569500000000  0.4414920000000 1.0
C      1  0.4340120000000  0.5471140000000  0.4969020000000 1.0
C      1  0.4339690000000  0.4876570000000  0.4499350000000 1.0
C      1  0.4776750000000  0.5458900000000  0.4584780000000 1.0
C      1  0.5262790000000  0.4491520000000  0.4592150000000 1.0
C      1  0.4530950000000  0.5613620000000  0.5051680000000 1.0
C      1  0.4933300000000  0.5339460000000  0.5308120000000 1.0
C      1  0.5069810000000  0.5807550000000  0.5147880000000 1.0
C      1  0.4532340000000  0.4650540000000  0.4428150000000 1.0
C      1  0.5042310000000  0.5535870000000  0.5575850000000 1.0
C      1  0.5764540000000  0.5462260000000  0.4685790000000 1.0
C      1  0.4833520000000  0.4269160000000  0.4658070000000 1.0
C      1  0.5313340000000  0.5321620000000  0.4978990000000 1.0
C      1  0.5970100000000  0.5377010000000  0.4853250000000 1.0
C      1  0.4616790000000  0.4369240000000  0.5127310000000 1.0
C      1  0.4684170000000  0.5305420000000  0.4850230000000 1.0
C      1  0.5475310000000  0.4831690000000  0.4321780000000 1.0
C      1  0.4143060000000  0.4863340000000  0.4691570000000 1.0
C      1  0.4251740000000  0.4806460000000  0.4981250000000 1.0
C      1  0.4820880000000  0.4209120000000  0.4946380000000 1.0
C      1  0.4992220000000  0.5351380000000  0.4340960000000 1.0
C      1  0.4952230000000  0.4656460000000  0.5629270000000 1.0
C      1  0.5262170000000  0.4800420000000  0.5619370000000 1.0
C      1  0.5064340000000  0.5262150000000  0.5677950000000 1.0
C      1  0.4585000000000  0.4576780000000  0.4717380000000 1.0
C      1  0.5125390000000  0.5571990000000  0.4933580000000 1.0
C      1  0.4663900000000  0.5248890000000  0.4347650000000 1.0
C      1  0.5583620000000  0.4475190000000  0.5436390000000 1.0
C      1  0.4285780000000  0.5031790000000  0.5208240000000 1.0
C      1  0.5591920000000  0.4563030000000  0.5059230000000 1.0
C      1  0.5434720000000  0.5068890000000  0.4530510000000 1.0
C      1  0.4548340000000  0.5031050000000  0.5634630000000 1.0
C      1  0.4960690000000  0.4930440000000  0.4679070000000 1.0
C      1  0.4678540000000  0.5544090000000  0.5416700000000 1.0
C      1  0.5500960000000  0.5538520000000  0.4515460000000 1.0
C      1  0.4423650000000  0.5434430000000  0.5430640000000 1.0
C      1  0.4838500000000  0.4672130000000  0.4798300000000 1.0
C      1  0.4838800000000  0.4515610000000  0.5341200000000 1.0
C      1  0.4939490000000  0.4577900000000  0.5028220000000 1.0
C      1  0.5732740000000  0.5059820000000  0.5185920000000 1.0
C      1  0.5242280000000  0.5094920000000  0.5496120000000 1.0
C      1  0.5147110000000  0.5048130000000  0.4874910000000 1.0
C      1  0.5125590000000  0.4706100000000  0.5343750000000 1.0
C      1  0.4636900000000  0.4974450000000  0.4633250000000 1.0
C      1  0.4842030000000  0.4720960000000  0.4402350000000 1.0
C      1  0.5926300000000  0.5192230000000  0.5051150000000 1.0
C      1  0.4640620000000  0.4851190000000  0.5174330000000 1.0
C      1  0.5627750000000  0.5186300000000  0.5548160000000 1.0
C      1  0.5224360000000  0.5031450000000  0.4291620000000 1.0
C      1  0.4830070000000  0.5134840000000  0.5771440000000 1.0
C      1  0.4911480000000  0.5019780000000  0.4294020000000 1.0
END
