TITL C-2778429-3646-444 -0.00185725730169938 125000 -581.630717084564 0 0 99 (C1) n - 1
REM
REM in /home/nfs/bkarasulu/CARBON/AIRSS/Generating-Clusters/REBO/Only-C1/SD-CG/HFTN-CG
REM
REM
REM
REM
REM
REM ./C.cell (11c1c37f851c82e70ff6c80c92926a4b)
REM
REM compiler GCC version 9.2.1 20190827 (Red Hat 9.2.1-1)
REM options -cpp -mtune=generic -march=x86-64 -g -O0 -fpre-include=/usr/include/finclude/math-vector-fortran.h
REM seed 604252185 2029545255 -1699246634 946925947 -1979517117 1464789475 244950813 -241230345 1489107186 626065204 -1296746259 1565525196 1495834500 459068427 -212537357 317050001 468577106 -1839400959 1015152379 -1729424531 1361053131 -600945986 1591822774 835445356 -167403034 -453959207 1530387679 -185507111 103245663 -970504709 2100652583 -1270824703 687574581
REM
CELL 1.54180   50.00000   50.00000   50.00000   90.00000   90.00000   90.00000
LATT -1
SFAC C  
C      1  0.5644950000000  0.5402200000000  0.5189190000000 1.0
C      1  0.5228670000000  0.4760010000000  0.4320160000000 1.0
C      1  0.5675440000000  0.4980320000000  0.5029640000000 1.0
C      1  0.4655590000000  0.5710590000000  0.5469130000000 1.0
C      1  0.3993000000000  0.5158610000000  0.4898370000000 1.0
C      1  0.5086330000000  0.5725190000000  0.4894670000000 1.0
C      1  0.4392540000000  0.5268610000000  0.4451940000000 1.0
C      1  0.5650600000000  0.4575840000000  0.5591730000000 1.0
C      1  0.4586230000000  0.4876670000000  0.5678200000000 1.0
C      1  0.4482040000000  0.4788500000000  0.4968570000000 1.0
C      1  0.5426390000000  0.5014660000000  0.4556100000000 1.0
C      1  0.5403970000000  0.4499110000000  0.5637010000000 1.0
C      1  0.4790730000000  0.5732060000000  0.4924150000000 1.0
C      1  0.4703770000000  0.4157540000000  0.5088730000000 1.0
C      1  0.4386560000000  0.4222860000000  0.5073960000000 1.0
C      1  0.5309740000000  0.3988120000000  0.4569670000000 1.0
C      1  0.4926490000000  0.4949810000000  0.4720780000000 1.0
C      1  0.4246840000000  0.4758410000000  0.4284870000000 1.0
C      1  0.4580390000000  0.5765190000000  0.5188020000000 1.0
C      1  0.4868340000000  0.4705180000000  0.5030090000000 1.0
C      1  0.4883900000000  0.4278530000000  0.4833260000000 1.0
C      1  0.4746450000000  0.5422110000000  0.5306280000000 1.0
C      1  0.4421530000000  0.4912050000000  0.5435330000000 1.0
C      1  0.5462010000000  0.4976600000000  0.5886750000000 1.0
C      1  0.5564220000000  0.5537680000000  0.4698710000000 1.0
C      1  0.4048030000000  0.5051650000000  0.5144890000000 1.0
C      1  0.5816200000000  0.4743510000000  0.5460510000000 1.0
C      1  0.5016610000000  0.4065390000000  0.5063890000000 1.0
C      1  0.5199430000000  0.5664100000000  0.4599330000000 1.0
C      1  0.5265850000000  0.4189260000000  0.5208450000000 1.0
C      1  0.4410970000000  0.5242500000000  0.6001850000000 1.0
C      1  0.4929310000000  0.5122240000000  0.4288310000000 1.0
C      1  0.5672790000000  0.5505640000000  0.5608790000000 1.0
C      1  0.5455260000000  0.5213170000000  0.4281780000000 1.0
C      1  0.5127550000000  0.4716790000000  0.4617620000000 1.0
C      1  0.5298160000000  0.4791690000000  0.5886200000000 1.0
C      1  0.5760490000000  0.5233940000000  0.5434440000000 1.0
C      1  0.5646170000000  0.4717160000000  0.4888650000000 1.0
C      1  0.5502620000000  0.4258420000000  0.4980460000000 1.0
C      1  0.5666830000000  0.4476310000000  0.5017740000000 1.0
C      1  0.4986980000000  0.5865400000000  0.5255700000000 1.0
C      1  0.4292190000000  0.4346980000000  0.4848240000000 1.0
C      1  0.4337740000000  0.5620700000000  0.5131100000000 1.0
C      1  0.5075990000000  0.4979380000000  0.5008390000000 1.0
C      1  0.5197800000000  0.4489730000000  0.5089890000000 1.0
C      1  0.4908670000000  0.4845780000000  0.5342000000000 1.0
C      1  0.4511860000000  0.5005600000000  0.5916170000000 1.0
C      1  0.6090990000000  0.4265630000000  0.4405990000000 1.0
C      1  0.4317400000000  0.5463290000000  0.5873950000000 1.0
C      1  0.5072750000000  0.5199660000000  0.5259260000000 1.0
C      1  0.5418980000000  0.4579370000000  0.4250960000000 1.0
C      1  0.5428270000000  0.5734330000000  0.4911360000000 1.0
C      1  0.5552040000000  0.5199990000000  0.5702560000000 1.0
C      1  0.5390740000000  0.4258220000000  0.4680350000000 1.0
C      1  0.4498810000000  0.5253970000000  0.4774760000000 1.0
C      1  0.5565620000000  0.5717990000000  0.5165340000000 1.0
C      1  0.5419070000000  0.5007870000000  0.5222280000000 1.0
C      1  0.5659130000000  0.5244690000000  0.4554490000000 1.0
C      1  0.5567560000000  0.4432590000000  0.4490540000000 1.0
C      1  0.5152090000000  0.4375480000000  0.5469660000000 1.0
C      1  0.4139150000000  0.5061490000000  0.4358450000000 1.0
C      1  0.4861620000000  0.5402440000000  0.4330180000000 1.0
C      1  0.4755890000000  0.5106730000000  0.5206950000000 1.0
C      1  0.4272380000000  0.5429330000000  0.5350750000000 1.0
C      1  0.4468350000000  0.4706090000000  0.5240090000000 1.0
C      1  0.4168960000000  0.5334060000000  0.4771550000000 1.0
C      1  0.4658340000000  0.5426120000000  0.4992990000000 1.0
C      1  0.4580520000000  0.4420220000000  0.5271720000000 1.0
C      1  0.4434420000000  0.4578430000000  0.4766560000000 1.0
C      1  0.4734750000000  0.4921040000000  0.4338550000000 1.0
C      1  0.5012090000000  0.5599390000000  0.5333910000000 1.0
C      1  0.5850690000000  0.4342280000000  0.4444800000000 1.0
C      1  0.4767610000000  0.4575410000000  0.4765920000000 1.0
C      1  0.4557400000000  0.5659430000000  0.4689510000000 1.0
C      1  0.4273000000000  0.5530990000000  0.5615420000000 1.0
C      1  0.4438660000000  0.4554080000000  0.4369370000000 1.0
C      1  0.4305130000000  0.5595210000000  0.4843500000000 1.0
C      1  0.5332360000000  0.5212100000000  0.5473050000000 1.0
C      1  0.5088990000000  0.4606620000000  0.5714380000000 1.0
C      1  0.5209010000000  0.5411110000000  0.4828580000000 1.0
C      1  0.5190770000000  0.5028200000000  0.4235350000000 1.0
C      1  0.5477360000000  0.4720960000000  0.4631010000000 1.0
C      1  0.4843810000000  0.4767410000000  0.5619440000000 1.0
C      1  0.5690480000000  0.5274520000000  0.4881510000000 1.0
C      1  0.4663680000000  0.5027470000000  0.4911140000000 1.0
C      1  0.5167620000000  0.5153740000000  0.4662730000000 1.0
C      1  0.5242990000000  0.5511310000000  0.5442330000000 1.0
C      1  0.5818570000000  0.4967780000000  0.5311880000000 1.0
C      1  0.5084170000000  0.5575810000000  0.4317690000000 1.0
C      1  0.5411270000000  0.5511190000000  0.4392440000000 1.0
C      1  0.4250110000000  0.5132190000000  0.5331540000000 1.0
C      1  0.5215740000000  0.4766800000000  0.5215760000000 1.0
C      1  0.4904310000000  0.4455540000000  0.5261380000000 1.0
C      1  0.4692680000000  0.4664090000000  0.4465840000000 1.0
C      1  0.4462630000000  0.5016480000000  0.4263020000000 1.0
C      1  0.5487380000000  0.5664190000000  0.5451720000000 1.0
C      1  0.5333600000000  0.5311900000000  0.5086350000000 1.0
C      1  0.5156280000000  0.4449530000000  0.4780490000000 1.0
C      1  0.4619520000000  0.5483460000000  0.4470980000000 1.0
END
