TITL C-2778428-5639-1132 0.00022243677520004 125000 -583.376377543853 0 0 102 (C1) n - 1
REM
REM in /home/nfs/bkarasulu/CARBON/AIRSS/Generating-Clusters/REBO/Only-C1/SD-CG/HFTN-CG
REM
REM
REM
REM
REM
REM ./C.cell (11c1c37f851c82e70ff6c80c92926a4b)
REM
REM compiler GCC version 9.2.1 20190827 (Red Hat 9.2.1-1)
REM options -cpp -mtune=generic -march=x86-64 -g -O0 -fpre-include=/usr/include/finclude/math-vector-fortran.h
REM seed -629774136 -1977355698 -210631167 -1480167572 -1422567056 -6295293 -1716319508 1949521999 -1307273094 -342907803 -555067444 -1904859921 -638340797 -78395896 972773869 1106408209 645200729 -868962188 -1791954521 -858297107 -1545502693 1665957468 1295027467 -1732485323 671217034 -802622608 -391929212 277508152 572677915 -629695749 -438750815 839500313 -1934811096
REM
CELL 1.54180   50.00000   50.00000   50.00000   90.00000   90.00000   90.00000
LATT -1
SFAC C  
C      1  0.5365810000000  0.5834140000000  0.5041200000000 1.0
C      1  0.4440060000000  0.5717380000000  0.4455890000000 1.0
C      1  0.4449680000000  0.4861740000000  0.4346470000000 1.0
C      1  0.4831650000000  0.5275640000000  0.5719730000000 1.0
C      1  0.4374170000000  0.4323130000000  0.5332180000000 1.0
C      1  0.5261810000000  0.5428700000000  0.5309700000000 1.0
C      1  0.5462010000000  0.4650940000000  0.4461560000000 1.0
C      1  0.4654310000000  0.5534000000000  0.5444750000000 1.0
C      1  0.5311590000000  0.4236430000000  0.4779390000000 1.0
C      1  0.5508330000000  0.4887940000000  0.4255690000000 1.0
C      1  0.5628570000000  0.5143780000000  0.4397970000000 1.0
C      1  0.5116400000000  0.5229650000000  0.4179270000000 1.0
C      1  0.5260820000000  0.4945090000000  0.4122260000000 1.0
C      1  0.5000820000000  0.4472460000000  0.5008810000000 1.0
C      1  0.5403620000000  0.5765810000000  0.4769740000000 1.0
C      1  0.4396300000000  0.5649520000000  0.4752540000000 1.0
C      1  0.4496360000000  0.4661850000000  0.4751130000000 1.0
C      1  0.5468550000000  0.4229860000000  0.5568770000000 1.0
C      1  0.5333590000000  0.5170570000000  0.5166310000000 1.0
C      1  0.5676810000000  0.5030840000000  0.4782480000000 1.0
C      1  0.4771590000000  0.4635860000000  0.5178870000000 1.0
C      1  0.5700270000000  0.4519290000000  0.4857310000000 1.0
C      1  0.4530670000000  0.5217040000000  0.5717150000000 1.0
C      1  0.4358680000000  0.5083200000000  0.5453590000000 1.0
C      1  0.5344010000000  0.5685900000000  0.4468380000000 1.0
C      1  0.4811400000000  0.5838140000000  0.4530960000000 1.0
C      1  0.4066070000000  0.5255300000000  0.5063320000000 1.0
C      1  0.4199650000000  0.4825680000000  0.4801560000000 1.0
C      1  0.4851750000000  0.5671120000000  0.5644670000000 1.0
C      1  0.4397970000000  0.4286930000000  0.4652840000000 1.0
C      1  0.4597450000000  0.4614450000000  0.4300410000000 1.0
C      1  0.4771190000000  0.4065210000000  0.5209280000000 1.0
C      1  0.5275770000000  0.5205160000000  0.5898430000000 1.0
C      1  0.4861930000000  0.5843650000000  0.4772330000000 1.0
C      1  0.5448390000000  0.4671530000000  0.5393060000000 1.0
C      1  0.4689640000000  0.4748050000000  0.5481270000000 1.0
C      1  0.4935340000000  0.4358780000000  0.4693430000000 1.0
C      1  0.4733580000000  0.5572200000000  0.4353420000000 1.0
C      1  0.4254170000000  0.4880840000000  0.5281100000000 1.0
C      1  0.5337410000000  0.5478010000000  0.5729000000000 1.0
C      1  0.4624470000000  0.5686450000000  0.5180080000000 1.0
C      1  0.5511930000000  0.5649820000000  0.5240030000000 1.0
C      1  0.5128910000000  0.5261600000000  0.4835580000000 1.0
C      1  0.4816690000000  0.4715660000000  0.4852570000000 1.0
C      1  0.4377740000000  0.5641170000000  0.5041420000000 1.0
C      1  0.5215000000000  0.4438330000000  0.5796450000000 1.0
C      1  0.4210260000000  0.5464680000000  0.5197300000000 1.0
C      1  0.4622080000000  0.5086060000000  0.5024730000000 1.0
C      1  0.5028840000000  0.4825890000000  0.4284070000000 1.0
C      1  0.5038070000000  0.5064100000000  0.5817760000000 1.0
C      1  0.4854780000000  0.4111830000000  0.4917950000000 1.0
C      1  0.5364790000000  0.4406200000000  0.5387560000000 1.0
C      1  0.4795830000000  0.4440890000000  0.5525640000000 1.0
C      1  0.4640690000000  0.5096060000000  0.4359550000000 1.0
C      1  0.5035020000000  0.4577270000000  0.5647400000000 1.0
C      1  0.4988030000000  0.5483080000000  0.4215110000000 1.0
C      1  0.4488510000000  0.4773250000000  0.5072960000000 1.0
C      1  0.4869460000000  0.5651370000000  0.5010480000000 1.0
C      1  0.5975550000000  0.4700950000000  0.5165790000000 1.0
C      1  0.5052280000000  0.5033640000000  0.5083760000000 1.0
C      1  0.5776340000000  0.5251000000000  0.5386350000000 1.0
C      1  0.4113650000000  0.4971090000000  0.5037210000000 1.0
C      1  0.5736590000000  0.4791360000000  0.5146920000000 1.0
C      1  0.5138340000000  0.4706640000000  0.4549920000000 1.0
C      1  0.5135140000000  0.4033960000000  0.4853280000000 1.0
C      1  0.4310920000000  0.4480010000000  0.5107570000000 1.0
C      1  0.5047560000000  0.4862830000000  0.5609130000000 1.0
C      1  0.5805010000000  0.5279790000000  0.4609090000000 1.0
C      1  0.5651280000000  0.4778860000000  0.5557030000000 1.0
C      1  0.5176900000000  0.4314110000000  0.5201700000000 1.0
C      1  0.5079550000000  0.5699300000000  0.5747080000000 1.0
C      1  0.4653550000000  0.5210590000000  0.5338730000000 1.0
C      1  0.4640480000000  0.5436990000000  0.4647690000000 1.0
C      1  0.4638860000000  0.4244320000000  0.5394890000000 1.0
C      1  0.4658830000000  0.4448930000000  0.4559890000000 1.0
C      1  0.5607750000000  0.5461100000000  0.5578430000000 1.0
C      1  0.5187950000000  0.5686550000000  0.4238050000000 1.0
C      1  0.4553730000000  0.4878950000000  0.5729700000000 1.0
C      1  0.5760840000000  0.5522780000000  0.5183030000000 1.0
C      1  0.4336500000000  0.4992550000000  0.4596890000000 1.0
C      1  0.5378810000000  0.4989850000000  0.4682640000000 1.0
C      1  0.4890040000000  0.4983020000000  0.5332510000000 1.0
C      1  0.5066600000000  0.4057300000000  0.5252200000000 1.0
C      1  0.4822670000000  0.4648630000000  0.4145220000000 1.0
C      1  0.5299800000000  0.5167010000000  0.4449150000000 1.0
C      1  0.5287650000000  0.5469460000000  0.4707280000000 1.0
C      1  0.4885280000000  0.5030720000000  0.4464730000000 1.0
C      1  0.5127890000000  0.5679300000000  0.5156660000000 1.0
C      1  0.5400940000000  0.4844850000000  0.5131700000000 1.0
C      1  0.4347240000000  0.5410320000000  0.5496760000000 1.0
C      1  0.4512010000000  0.5168070000000  0.4730870000000 1.0
C      1  0.5687200000000  0.4723110000000  0.4671210000000 1.0
C      1  0.5075460000000  0.5354600000000  0.5548530000000 1.0
C      1  0.4945030000000  0.4984300000000  0.4763220000000 1.0
C      1  0.5787370000000  0.5398290000000  0.4890040000000 1.0
C      1  0.5430430000000  0.4453050000000  0.4927450000000 1.0
C      1  0.5265370000000  0.4735140000000  0.4864470000000 1.0
C      1  0.4821030000000  0.5341410000000  0.4908950000000 1.0
C      1  0.4245850000000  0.4349430000000  0.4867880000000 1.0
C      1  0.5820740000000  0.4991310000000  0.5545790000000 1.0
C      1  0.5231300000000  0.4397730000000  0.4521340000000 1.0
C      1  0.5644350000000  0.5157330000000  0.5086430000000 1.0
END
