TITL C-2778425-5191-221 0.00310378624611826 125000 -652.018542821777 0 0 110 (C1) n - 1
REM
REM in /home/nfs/bkarasulu/CARBON/AIRSS/Generating-Clusters/REBO/Only-C1/SD-CG/HFTN-CG
REM
REM
REM
REM
REM
REM ./C.cell (11c1c37f851c82e70ff6c80c92926a4b)
REM
REM compiler GCC version 9.2.1 20190827 (Red Hat 9.2.1-1)
REM options -cpp -mtune=generic -march=x86-64 -g -O0 -fpre-include=/usr/include/finclude/math-vector-fortran.h
REM seed -1850590233 -503417249 1096683527 1382300175 86572220 427644960 1673420594 822246751 2028186362 -1817395805 -1896360396 2056746313 1041268873 874598419 -1799120981 1142447121 -1702615809 2052545530 423748736 1291943805 2097768292 -802046939 -16126357 1946428162 -207664051 35121696 167247209 1121689841 194721530 -1238933847 436116865 -1145992282 -2113180871
REM
CELL 1.54180   50.00000   50.00000   50.00000   90.00000   90.00000   90.00000
LATT -1
SFAC C  
C      1  0.4303280000000  0.4415630000000  0.4661230000000 1.0
C      1  0.4462640000000  0.5787790000000  0.4939480000000 1.0
C      1  0.4459000000000  0.4248180000000  0.5118740000000 1.0
C      1  0.5375850000000  0.4815660000000  0.4311010000000 1.0
C      1  0.4364030000000  0.5255900000000  0.4446300000000 1.0
C      1  0.4851890000000  0.5773200000000  0.5388950000000 1.0
C      1  0.5088830000000  0.4287520000000  0.4760820000000 1.0
C      1  0.4402800000000  0.4737320000000  0.5352990000000 1.0
C      1  0.5596830000000  0.4311120000000  0.5079350000000 1.0
C      1  0.4891590000000  0.5386930000000  0.5739020000000 1.0
C      1  0.5394750000000  0.6063070000000  0.5170260000000 1.0
C      1  0.5106570000000  0.5325880000000  0.5303840000000 1.0
C      1  0.5389800000000  0.4054770000000  0.5121600000000 1.0
C      1  0.4984630000000  0.5479170000000  0.4489980000000 1.0
C      1  0.4862090000000  0.4779100000000  0.5287150000000 1.0
C      1  0.5198180000000  0.5751800000000  0.5752870000000 1.0
C      1  0.5213680000000  0.5900100000000  0.4531270000000 1.0
C      1  0.4990730000000  0.3955850000000  0.5309820000000 1.0
C      1  0.4615650000000  0.5033740000000  0.4848580000000 1.0
C      1  0.5227950000000  0.4406670000000  0.5701310000000 1.0
C      1  0.5468880000000  0.5184010000000  0.5734220000000 1.0
C      1  0.5017430000000  0.4394720000000  0.5014730000000 1.0
C      1  0.4788620000000  0.4605880000000  0.5030740000000 1.0
C      1  0.5585530000000  0.4419200000000  0.4788270000000 1.0
C      1  0.4122750000000  0.4878920000000  0.4869060000000 1.0
C      1  0.5804820000000  0.5206180000000  0.4590140000000 1.0
C      1  0.5336040000000  0.5630590000000  0.4604300000000 1.0
C      1  0.4393370000000  0.4182460000000  0.4803430000000 1.0
C      1  0.5135150000000  0.4990230000000  0.5088210000000 1.0
C      1  0.5043660000000  0.4394690000000  0.4232970000000 1.0
C      1  0.5629130000000  0.5473560000000  0.5646610000000 1.0
C      1  0.5506080000000  0.5038380000000  0.5445920000000 1.0
C      1  0.5096900000000  0.4190960000000  0.5504270000000 1.0
C      1  0.4675830000000  0.4073470000000  0.4833870000000 1.0
C      1  0.4256830000000  0.4630420000000  0.4850980000000 1.0
C      1  0.4613640000000  0.5432990000000  0.4843930000000 1.0
C      1  0.5435100000000  0.4723230000000  0.4770480000000 1.0
C      1  0.4571910000000  0.5021240000000  0.4527400000000 1.0
C      1  0.5836230000000  0.5524550000000  0.4541760000000 1.0
C      1  0.5786270000000  0.5424890000000  0.5130900000000 1.0
C      1  0.4922520000000  0.4587720000000  0.4063850000000 1.0
C      1  0.4946010000000  0.5652010000000  0.5665230000000 1.0
C      1  0.5168300000000  0.6108200000000  0.5062990000000 1.0
C      1  0.4755400000000  0.4745540000000  0.4748430000000 1.0
C      1  0.4427100000000  0.5250040000000  0.5466500000000 1.0
C      1  0.4879140000000  0.5054860000000  0.4998000000000 1.0
C      1  0.5633450000000  0.4940990000000  0.4500030000000 1.0
C      1  0.4885850000000  0.5102130000000  0.5393830000000 1.0
C      1  0.5701730000000  0.4966030000000  0.5105830000000 1.0
C      1  0.4326650000000  0.5540470000000  0.5376280000000 1.0
C      1  0.4573980000000  0.4262690000000  0.4282970000000 1.0
C      1  0.5498380000000  0.4454800000000  0.5599380000000 1.0
C      1  0.5320860000000  0.4371660000000  0.4619770000000 1.0
C      1  0.4891240000000  0.5232770000000  0.4640000000000 1.0
C      1  0.4224780000000  0.5593510000000  0.5084750000000 1.0
C      1  0.4960480000000  0.4956800000000  0.4620430000000 1.0
C      1  0.4455020000000  0.4571560000000  0.5095230000000 1.0
C      1  0.4324520000000  0.5379680000000  0.4699110000000 1.0
C      1  0.4955730000000  0.5747550000000  0.4577430000000 1.0
C      1  0.4952100000000  0.5449680000000  0.4886550000000 1.0
C      1  0.5421170000000  0.5791670000000  0.5309140000000 1.0
C      1  0.5285010000000  0.5367720000000  0.4403700000000 1.0
C      1  0.5479810000000  0.4740090000000  0.5486760000000 1.0
C      1  0.4886900000000  0.4433990000000  0.5508010000000 1.0
C      1  0.4342560000000  0.5063320000000  0.4998160000000 1.0
C      1  0.5373000000000  0.5177120000000  0.5219780000000 1.0
C      1  0.4846780000000  0.4212940000000  0.4358480000000 1.0
C      1  0.5775380000000  0.5183370000000  0.5566220000000 1.0
C      1  0.4898960000000  0.5063060000000  0.4215120000000 1.0
C      1  0.5427270000000  0.4820280000000  0.5048980000000 1.0
C      1  0.4875450000000  0.4148000000000  0.4638730000000 1.0
C      1  0.4527330000000  0.5291530000000  0.5141340000000 1.0
C      1  0.3967130000000  0.5147270000000  0.4894140000000 1.0
C      1  0.5251900000000  0.5518480000000  0.4861100000000 1.0
C      1  0.4639550000000  0.4745820000000  0.5502740000000 1.0
C      1  0.4745450000000  0.4070750000000  0.5166840000000 1.0
C      1  0.5212800000000  0.4952470000000  0.5701670000000 1.0
C      1  0.5172110000000  0.4829220000000  0.5386030000000 1.0
C      1  0.4308730000000  0.5001790000000  0.5304300000000 1.0
C      1  0.4789080000000  0.5824680000000  0.4847060000000 1.0
C      1  0.5813280000000  0.5425150000000  0.4850400000000 1.0
C      1  0.5250550000000  0.4893080000000  0.4601840000000 1.0
C      1  0.4749100000000  0.4883580000000  0.5746860000000 1.0
C      1  0.5015430000000  0.4672960000000  0.5716620000000 1.0
C      1  0.5666130000000  0.5591840000000  0.5328610000000 1.0
C      1  0.5629660000000  0.4285580000000  0.5418570000000 1.0
C      1  0.5824730000000  0.5166320000000  0.5244080000000 1.0
C      1  0.5226040000000  0.4331070000000  0.5222550000000 1.0
C      1  0.5748460000000  0.4675750000000  0.4645180000000 1.0
C      1  0.5413140000000  0.5166310000000  0.4632210000000 1.0
C      1  0.4958130000000  0.5875310000000  0.5081490000000 1.0
C      1  0.4565010000000  0.5687770000000  0.4628090000000 1.0
C      1  0.5419750000000  0.5282980000000  0.4924810000000 1.0
C      1  0.5207660000000  0.3854330000000  0.5169060000000 1.0
C      1  0.4597980000000  0.5578930000000  0.4368030000000 1.0
C      1  0.5429910000000  0.4570320000000  0.5223270000000 1.0
C      1  0.5275980000000  0.4495340000000  0.4369150000000 1.0
C      1  0.4585050000000  0.5675550000000  0.5233630000000 1.0
C      1  0.4121070000000  0.5392320000000  0.4898230000000 1.0
C      1  0.4693120000000  0.4362460000000  0.5338600000000 1.0
C      1  0.4615330000000  0.4722340000000  0.4437910000000 1.0
C      1  0.5436140000000  0.5724260000000  0.5622700000000 1.0
C      1  0.4674780000000  0.5262640000000  0.4305990000000 1.0
C      1  0.5105530000000  0.5237240000000  0.5833150000000 1.0
C      1  0.5142150000000  0.5652920000000  0.5263600000000 1.0
C      1  0.5181970000000  0.5090060000000  0.4258740000000 1.0
C      1  0.4820300000000  0.5434060000000  0.5181370000000 1.0
C      1  0.4678980000000  0.5190340000000  0.5628820000000 1.0
C      1  0.4795810000000  0.4800400000000  0.4195040000000 1.0
C      1  0.4444280000000  0.4476530000000  0.4419780000000 1.0
END
