TITL C-2778434-4341-1242 0.00226096550564143 125000 -973.114493068487 0 0 167 (C1) n - 1
REM
REM in /home/nfs/bkarasulu/CARBON/AIRSS/Generating-Clusters/REBO/Only-C1/SD-CG/HFTN-CG
REM
REM
REM
REM
REM
REM ./C.cell (11c1c37f851c82e70ff6c80c92926a4b)
REM
REM compiler GCC version 9.2.1 20190827 (Red Hat 9.2.1-1)
REM options -cpp -mtune=generic -march=x86-64 -g -O0 -fpre-include=/usr/include/finclude/math-vector-fortran.h
REM seed 523879367 -1841712941 1562816125 -1129013847 -586232748 -559107811 -2118395083 -353129583 -336496215 -1805294102 -1413459712 484552238 -1254437360 131468137 -1497493202 300328757 362244293 1863657471 758897703 -982007347 812938579 1266907472 1002203300 472301306 256393600 -1236231140 307612650 297720023 -2096026792 330642316 -1886046920 -1467203546 -1800517428
REM
CELL 1.54180   50.00000   50.00000   50.00000   90.00000   90.00000   90.00000
LATT -1
SFAC C  
C      1  0.5401480000000  0.4976400000000  0.5525190000000 1.0
C      1  0.4494490000000  0.5016470000000  0.5990030000000 1.0
C      1  0.4488170000000  0.5226800000000  0.4219360000000 1.0
C      1  0.5002230000000  0.4867730000000  0.4649530000000 1.0
C      1  0.5085460000000  0.4480990000000  0.4250050000000 1.0
C      1  0.5356130000000  0.3970250000000  0.4950250000000 1.0
C      1  0.5664020000000  0.5010790000000  0.5227050000000 1.0
C      1  0.4394270000000  0.4290280000000  0.4538220000000 1.0
C      1  0.4299000000000  0.4717360000000  0.4316650000000 1.0
C      1  0.5010600000000  0.4749280000000  0.3913750000000 1.0
C      1  0.5213840000000  0.5793220000000  0.4787130000000 1.0
C      1  0.4585060000000  0.5515850000000  0.5751220000000 1.0
C      1  0.5594870000000  0.5243420000000  0.4582400000000 1.0
C      1  0.5253860000000  0.4959820000000  0.5257110000000 1.0
C      1  0.4804670000000  0.4398280000000  0.5613900000000 1.0
C      1  0.4308740000000  0.5014890000000  0.4394150000000 1.0
C      1  0.4709810000000  0.5626880000000  0.5139960000000 1.0
C      1  0.4393170000000  0.4957660000000  0.5129850000000 1.0
C      1  0.4494370000000  0.4682020000000  0.5007080000000 1.0
C      1  0.4046210000000  0.4575700000000  0.4781840000000 1.0
C      1  0.5175880000000  0.5786190000000  0.5333620000000 1.0
C      1  0.3935960000000  0.5260670000000  0.5268600000000 1.0
C      1  0.6034910000000  0.5313800000000  0.4782700000000 1.0
C      1  0.4978050000000  0.5128170000000  0.5584260000000 1.0
C      1  0.5576380000000  0.4343990000000  0.4433100000000 1.0
C      1  0.4605310000000  0.4733260000000  0.5525680000000 1.0
C      1  0.5182540000000  0.5117980000000  0.4590760000000 1.0
C      1  0.5092200000000  0.4411760000000  0.4726630000000 1.0
C      1  0.5548510000000  0.5499900000000  0.4405800000000 1.0
C      1  0.5927300000000  0.4858830000000  0.4558000000000 1.0
C      1  0.5833940000000  0.4287640000000  0.5013080000000 1.0
C      1  0.5120480000000  0.3928160000000  0.4776720000000 1.0
C      1  0.5726820000000  0.5846400000000  0.5069150000000 1.0
C      1  0.4561920000000  0.5893770000000  0.4515680000000 1.0
C      1  0.6053940000000  0.5599490000000  0.4773000000000 1.0
C      1  0.4127310000000  0.4822450000000  0.5393300000000 1.0
C      1  0.4120700000000  0.4297510000000  0.4921060000000 1.0
C      1  0.4743800000000  0.5946980000000  0.5078560000000 1.0
C      1  0.4958860000000  0.5993930000000  0.4848860000000 1.0
C      1  0.4920730000000  0.5528420000000  0.5823550000000 1.0
C      1  0.5987390000000  0.5390910000000  0.5340860000000 1.0
C      1  0.4546260000000  0.5436800000000  0.5364610000000 1.0
C      1  0.4761320000000  0.4830920000000  0.5263350000000 1.0
C      1  0.4952910000000  0.4378530000000  0.5978570000000 1.0
C      1  0.4592540000000  0.5551960000000  0.4246390000000 1.0
C      1  0.5442830000000  0.4493070000000  0.5267180000000 1.0
C      1  0.4847040000000  0.3990280000000  0.4931010000000 1.0
C      1  0.5188060000000  0.5317860000000  0.5769050000000 1.0
C      1  0.4846370000000  0.5440660000000  0.4889250000000 1.0
C      1  0.5180110000000  0.5507360000000  0.4896740000000 1.0
C      1  0.5618920000000  0.4792830000000  0.4895920000000 1.0
C      1  0.5789830000000  0.5773010000000  0.4742890000000 1.0
C      1  0.5825300000000  0.4995540000000  0.5804120000000 1.0
C      1  0.5680060000000  0.5219720000000  0.5887250000000 1.0
C      1  0.4998420000000  0.6038840000000  0.5244100000000 1.0
C      1  0.4219900000000  0.5696130000000  0.4987140000000 1.0
C      1  0.3939340000000  0.5077550000000  0.4528550000000 1.0
C      1  0.4602890000000  0.4765360000000  0.6045510000000 1.0
C      1  0.4334120000000  0.4572580000000  0.5770450000000 1.0
C      1  0.5743880000000  0.4798330000000  0.5629110000000 1.0
C      1  0.5980780000000  0.4071150000000  0.5042530000000 1.0
C      1  0.4786930000000  0.4053970000000  0.5260300000000 1.0
C      1  0.4556150000000  0.5541120000000  0.4735070000000 1.0
C      1  0.4744410000000  0.4907530000000  0.4951580000000 1.0
C      1  0.4504140000000  0.4417430000000  0.5524080000000 1.0
C      1  0.4828160000000  0.4217370000000  0.4703810000000 1.0
C      1  0.4224650000000  0.4519790000000  0.4501130000000 1.0
C      1  0.5888410000000  0.5141940000000  0.4601010000000 1.0
C      1  0.4409160000000  0.5778720000000  0.5213790000000 1.0
C      1  0.4573540000000  0.4271760000000  0.5005750000000 1.0
C      1  0.4189780000000  0.4810430000000  0.5697000000000 1.0
C      1  0.5386830000000  0.4487270000000  0.4671100000000 1.0
C      1  0.5083720000000  0.4064310000000  0.5408780000000 1.0
C      1  0.4856750000000  0.4847170000000  0.5689720000000 1.0
C      1  0.5034700000000  0.5793340000000  0.5706920000000 1.0
C      1  0.5408720000000  0.4520610000000  0.4193020000000 1.0
C      1  0.4363470000000  0.5551200000000  0.4472300000000 1.0
C      1  0.5290320000000  0.4009790000000  0.5228410000000 1.0
C      1  0.5456740000000  0.5312160000000  0.4852560000000 1.0
C      1  0.5437720000000  0.5010040000000  0.4391230000000 1.0
C      1  0.5960600000000  0.5218650000000  0.5060010000000 1.0
C      1  0.4860100000000  0.5181030000000  0.3838470000000 1.0
C      1  0.5183540000000  0.4757520000000  0.4418570000000 1.0
C      1  0.4746010000000  0.5188940000000  0.5086280000000 1.0
C      1  0.5886170000000  0.4609180000000  0.4782430000000 1.0
C      1  0.5009740000000  0.5323330000000  0.4068950000000 1.0
C      1  0.4628470000000  0.4459030000000  0.5900160000000 1.0
C      1  0.3941690000000  0.4759500000000  0.5048100000000 1.0
C      1  0.4966320000000  0.4272610000000  0.5078990000000 1.0
C      1  0.5243340000000  0.5423290000000  0.4513060000000 1.0
C      1  0.4134480000000  0.4879680000000  0.4725880000000 1.0
C      1  0.4794210000000  0.4518890000000  0.4999920000000 1.0
C      1  0.4801190000000  0.4925370000000  0.3927080000000 1.0
C      1  0.4700420000000  0.4847290000000  0.4530350000000 1.0
C      1  0.6060190000000  0.5790760000000  0.5028330000000 1.0
C      1  0.5859130000000  0.4528900000000  0.4475380000000 1.0
C      1  0.5643580000000  0.5330650000000  0.5113350000000 1.0
C      1  0.4216700000000  0.4601520000000  0.5161500000000 1.0
C      1  0.5446390000000  0.4709760000000  0.5696650000000 1.0
C      1  0.5200510000000  0.5704020000000  0.4233220000000 1.0
C      1  0.5318620000000  0.5814660000000  0.4492810000000 1.0
C      1  0.5278680000000  0.5153470000000  0.4121590000000 1.0
C      1  0.4976540000000  0.5587820000000  0.4541450000000 1.0
C      1  0.5374160000000  0.5466520000000  0.4140140000000 1.0
C      1  0.5060650000000  0.4206280000000  0.5696780000000 1.0
C      1  0.5042300000000  0.4744210000000  0.4936390000000 1.0
C      1  0.5521260000000  0.6076580000000  0.5087750000000 1.0
C      1  0.4177400000000  0.5318860000000  0.4474840000000 1.0
C      1  0.5140560000000  0.4969050000000  0.5992630000000 1.0
C      1  0.5784080000000  0.5381350000000  0.5527890000000 1.0
C      1  0.4856490000000  0.5833310000000  0.4589320000000 1.0
C      1  0.4819330000000  0.4527930000000  0.4558550000000 1.0
C      1  0.4269630000000  0.5808810000000  0.4674380000000 1.0
C      1  0.5273410000000  0.4401010000000  0.5879930000000 1.0
C      1  0.4308990000000  0.5330240000000  0.5672210000000 1.0
C      1  0.3903120000000  0.4993890000000  0.5240430000000 1.0
C      1  0.5570010000000  0.5627990000000  0.5577720000000 1.0
C      1  0.5252420000000  0.6036770000000  0.5017350000000 1.0
C      1  0.5254300000000  0.4813340000000  0.4096060000000 1.0
C      1  0.4961740000000  0.5230410000000  0.5995630000000 1.0
C      1  0.4971540000000  0.5240880000000  0.5287890000000 1.0
C      1  0.4193260000000  0.4294440000000  0.5219900000000 1.0
C      1  0.5704930000000  0.4686960000000  0.5309580000000 1.0
C      1  0.4995970000000  0.4180330000000  0.4344090000000 1.0
C      1  0.5568290000000  0.4299540000000  0.4889430000000 1.0
C      1  0.4846750000000  0.5912630000000  0.5520700000000 1.0
C      1  0.5629880000000  0.5157690000000  0.5496230000000 1.0
C      1  0.5024020000000  0.4772630000000  0.5334230000000 1.0
C      1  0.4747410000000  0.4464720000000  0.4231720000000 1.0
C      1  0.4227310000000  0.5371420000000  0.5348020000000 1.0
C      1  0.4430940000000  0.4980370000000  0.5428550000000 1.0
C      1  0.5545160000000  0.4748440000000  0.4588940000000 1.0
C      1  0.5927600000000  0.4570440000000  0.5109920000000 1.0
C      1  0.4108550000000  0.5214400000000  0.4792530000000 1.0
C      1  0.4892600000000  0.5261910000000  0.4601700000000 1.0
C      1  0.5318860000000  0.4722540000000  0.5981800000000 1.0
C      1  0.5620770000000  0.5773560000000  0.4526850000000 1.0
C      1  0.5457550000000  0.4096840000000  0.4640120000000 1.0
C      1  0.4557210000000  0.5860150000000  0.4853290000000 1.0
C      1  0.5261010000000  0.4351310000000  0.5022450000000 1.0
C      1  0.4652750000000  0.4940540000000  0.4205900000000 1.0
C      1  0.4651370000000  0.5195020000000  0.5522240000000 1.0
C      1  0.4661420000000  0.4196330000000  0.4407170000000 1.0
C      1  0.5318420000000  0.5801100000000  0.5595530000000 1.0
C      1  0.5360910000000  0.4736010000000  0.5056620000000 1.0
C      1  0.4532860000000  0.4650960000000  0.4146130000000 1.0
C      1  0.4681480000000  0.5213040000000  0.5861600000000 1.0
C      1  0.4590110000000  0.5747090000000  0.5501420000000 1.0
C      1  0.5238250000000  0.5233950000000  0.5095800000000 1.0
C      1  0.4496960000000  0.5247840000000  0.4880620000000 1.0
C      1  0.5164180000000  0.4029360000000  0.4504980000000 1.0
C      1  0.5629060000000  0.5610020000000  0.5242820000000 1.0
C      1  0.5073930000000  0.5544440000000  0.5279670000000 1.0
C      1  0.4222960000000  0.5383350000000  0.5018860000000 1.0
C      1  0.4277790000000  0.5064210000000  0.5802330000000 1.0
C      1  0.4799640000000  0.5296020000000  0.4313110000000 1.0
C      1  0.4375460000000  0.4214800000000  0.4810570000000 1.0
C      1  0.4909150000000  0.5638750000000  0.4151980000000 1.0
C      1  0.5664810000000  0.4701370000000  0.4280060000000 1.0
C      1  0.4488030000000  0.4191630000000  0.5314130000000 1.0
C      1  0.5687740000000  0.4974500000000  0.4159190000000 1.0
C      1  0.5481490000000  0.5385070000000  0.5788580000000 1.0
C      1  0.5044710000000  0.4541240000000  0.5480720000000 1.0
C      1  0.4922560000000  0.4712970000000  0.5978460000000 1.0
C      1  0.5908950000000  0.4903800000000  0.5045360000000 1.0
C      1  0.5330110000000  0.4460900000000  0.5548710000000 1.0
C      1  0.4450290000000  0.5003340000000  0.4699970000000 1.0
END
