TITL C-2778426-5645-393 0.00236062262588702 125000 -350.799898695365 0 0 61 (C1) n - 1
REM
REM in /home/nfs/bkarasulu/CARBON/AIRSS/Generating-Clusters/REBO/Only-C1/SD-CG/HFTN-CG
REM
REM
REM
REM
REM
REM ./C.cell (11c1c37f851c82e70ff6c80c92926a4b)
REM
REM compiler GCC version 9.2.1 20190827 (Red Hat 9.2.1-1)
REM options -cpp -mtune=generic -march=x86-64 -g -O0 -fpre-include=/usr/include/finclude/math-vector-fortran.h
REM seed -572749807 1511721736 -767485709 667161453 -655682688 -1108722213 844877939 668242757 1682232296 863277637 -1755087667 1869368461 -582728169 1554532619 -1983225044 1681444003 -1360703027 -1558830487 -1584421310 35940071 1399206737 481377575 337813979 -15277009 2030072110 146937869 -214511924 710665373 -1264169050 946183706 -111498594 2073629557 1828934507
REM
CELL 1.54180   50.00000   50.00000   50.00000   90.00000   90.00000   90.00000
LATT -1
SFAC C  
C      1  0.4660400000000  0.4577120000000  0.4531210000000 1.0
C      1  0.5296060000000  0.5382980000000  0.5287130000000 1.0
C      1  0.4325230000000  0.5312570000000  0.5527420000000 1.0
C      1  0.5671340000000  0.5060080000000  0.5341000000000 1.0
C      1  0.5419370000000  0.4581580000000  0.4609240000000 1.0
C      1  0.5149470000000  0.4996910000000  0.4412130000000 1.0
C      1  0.5058930000000  0.5459070000000  0.4688240000000 1.0
C      1  0.4753940000000  0.4862500000000  0.4794880000000 1.0
C      1  0.4420990000000  0.5505880000000  0.5030030000000 1.0
C      1  0.4943700000000  0.4879120000000  0.5484050000000 1.0
C      1  0.5132130000000  0.5135630000000  0.5362710000000 1.0
C      1  0.4771810000000  0.4579770000000  0.5394640000000 1.0
C      1  0.4497770000000  0.4652090000000  0.5292010000000 1.0
C      1  0.5393820000000  0.5262460000000  0.4777980000000 1.0
C      1  0.4602840000000  0.4888520000000  0.4490580000000 1.0
C      1  0.5633860000000  0.4929150000000  0.5076490000000 1.0
C      1  0.5422170000000  0.4314900000000  0.5394300000000 1.0
C      1  0.4655060000000  0.5191300000000  0.5094670000000 1.0
C      1  0.4591420000000  0.5765360000000  0.4447770000000 1.0
C      1  0.5363940000000  0.4743880000000  0.5707780000000 1.0
C      1  0.5682150000000  0.5133630000000  0.4830000000000 1.0
C      1  0.5111000000000  0.4473010000000  0.4703520000000 1.0
C      1  0.5556960000000  0.4775570000000  0.4493890000000 1.0
C      1  0.4874660000000  0.4423960000000  0.4924490000000 1.0
C      1  0.5460900000000  0.5246370000000  0.4384380000000 1.0
C      1  0.4223550000000  0.5292000000000  0.5772690000000 1.0
C      1  0.4990910000000  0.5026390000000  0.4871290000000 1.0
C      1  0.4933180000000  0.4537010000000  0.4448120000000 1.0
C      1  0.5261780000000  0.5476070000000  0.4960740000000 1.0
C      1  0.5461640000000  0.4609900000000  0.5417680000000 1.0
C      1  0.4623820000000  0.4468650000000  0.4792480000000 1.0
C      1  0.4758410000000  0.5765440000000  0.4741950000000 1.0
C      1  0.5385780000000  0.4733140000000  0.5116240000000 1.0
C      1  0.4888110000000  0.5336360000000  0.4941850000000 1.0
C      1  0.5014640000000  0.4748990000000  0.4278610000000 1.0
C      1  0.5604610000000  0.5336850000000  0.5283470000000 1.0
C      1  0.5123910000000  0.4898290000000  0.5129890000000 1.0
C      1  0.4788400000000  0.4927910000000  0.5200360000000 1.0
C      1  0.5718490000000  0.5393280000000  0.5031530000000 1.0
C      1  0.4912940000000  0.4390460000000  0.5201390000000 1.0
C      1  0.4821110000000  0.5029240000000  0.4313560000000 1.0
C      1  0.4502260000000  0.5325690000000  0.4789850000000 1.0
C      1  0.4899840000000  0.5318030000000  0.4420690000000 1.0
C      1  0.5232700000000  0.5387200000000  0.4410410000000 1.0
C      1  0.5371270000000  0.4493130000000  0.4918810000000 1.0
C      1  0.4517230000000  0.4822890000000  0.5032280000000 1.0
C      1  0.4908150000000  0.5652840000000  0.5018620000000 1.0
C      1  0.4270290000000  0.4582890000000  0.5404770000000 1.0
C      1  0.5388120000000  0.4240320000000  0.5085610000000 1.0
C      1  0.5132590000000  0.4229060000000  0.5281330000000 1.0
C      1  0.5154520000000  0.5679500000000  0.5209300000000 1.0
C      1  0.4673470000000  0.5477160000000  0.4580690000000 1.0
C      1  0.5615610000000  0.5049790000000  0.4524860000000 1.0
C      1  0.4461570000000  0.5024610000000  0.4763410000000 1.0
C      1  0.4428770000000  0.5333510000000  0.5277690000000 1.0
C      1  0.5205240000000  0.5081020000000  0.4665940000000 1.0
C      1  0.5601770000000  0.4882750000000  0.5548280000000 1.0
C      1  0.4586070000000  0.5739030000000  0.5027720000000 1.0
C      1  0.5090620000000  0.4751940000000  0.5742670000000 1.0
C      1  0.4123470000000  0.5271760000000  0.6014050000000 1.0
C      1  0.4875250000000  0.4553500000000  0.5700600000000 1.0
END
