TITL C-2778427-5640-238 0.00100020767761477 125000 -850.697409254513 0 0 149 (C1) n - 1
REM
REM in /home/nfs/bkarasulu/CARBON/AIRSS/Generating-Clusters/REBO/Only-C1/SD-CG/HFTN-CG
REM
REM
REM
REM
REM
REM ./C.cell (11c1c37f851c82e70ff6c80c92926a4b)
REM
REM compiler GCC version 9.2.1 20190827 (Red Hat 9.2.1-1)
REM options -cpp -mtune=generic -march=x86-64 -g -O0 -fpre-include=/usr/include/finclude/math-vector-fortran.h
REM seed -160021153 1846436725 -906793704 106414381 504354265 -1414616132 -14510644 1825742680 -1895630819 1712479830 -2041633482 652683305 506848508 1464815497 -1669636139 692857315 233053739 871515913 822927170 -1086064231 551809293 957055572 1028626658 1846414048 441878377 -1203195937 -2085650161 1063855843 926319273 -175703671 2100508513 2007802676 294778983
REM
CELL 1.54180   50.00000   50.00000   50.00000   90.00000   90.00000   90.00000
LATT -1
SFAC C  
C      1  0.5478950000000  0.5888540000000  0.4798580000000 1.0
C      1  0.5653630000000  0.5187150000000  0.5757910000000 1.0
C      1  0.5288240000000  0.5222430000000  0.4634470000000 1.0
C      1  0.5197130000000  0.4565580000000  0.4104310000000 1.0
C      1  0.4852200000000  0.5504070000000  0.4866840000000 1.0
C      1  0.3998860000000  0.5374030000000  0.4633960000000 1.0
C      1  0.4481310000000  0.4647000000000  0.4606060000000 1.0
C      1  0.5447680000000  0.4389500000000  0.5130670000000 1.0
C      1  0.4323870000000  0.5203200000000  0.5439830000000 1.0
C      1  0.4582600000000  0.4885430000000  0.5663790000000 1.0
C      1  0.5529880000000  0.5207030000000  0.5060260000000 1.0
C      1  0.5066980000000  0.4989830000000  0.4297760000000 1.0
C      1  0.4396760000000  0.5845370000000  0.4604680000000 1.0
C      1  0.4185700000000  0.5629610000000  0.4506310000000 1.0
C      1  0.5270440000000  0.4139530000000  0.5665320000000 1.0
C      1  0.4501500000000  0.4325020000000  0.4650700000000 1.0
C      1  0.4256680000000  0.5095900000000  0.4736060000000 1.0
C      1  0.4259190000000  0.5122350000000  0.5058830000000 1.0
C      1  0.4819440000000  0.4868130000000  0.4093420000000 1.0
C      1  0.5905960000000  0.4805050000000  0.5232450000000 1.0
C      1  0.4925650000000  0.5377850000000  0.4558190000000 1.0
C      1  0.4297100000000  0.5648930000000  0.5059490000000 1.0
C      1  0.5252300000000  0.4710010000000  0.4848350000000 1.0
C      1  0.5780920000000  0.4203990000000  0.5022180000000 1.0
C      1  0.5198400000000  0.5820370000000  0.4762310000000 1.0
C      1  0.5714510000000  0.4541290000000  0.4536220000000 1.0
C      1  0.4710250000000  0.5556150000000  0.5407900000000 1.0
C      1  0.4582610000000  0.5322720000000  0.4756010000000 1.0
C      1  0.5607130000000  0.4696070000000  0.4373830000000 1.0
C      1  0.5539230000000  0.5124760000000  0.4752570000000 1.0
C      1  0.5138080000000  0.4523440000000  0.4585380000000 1.0
C      1  0.4719930000000  0.4634000000000  0.6109050000000 1.0
C      1  0.4874110000000  0.5080040000000  0.5118420000000 1.0
C      1  0.4340730000000  0.4564600000000  0.5412160000000 1.0
C      1  0.4607180000000  0.5635780000000  0.5960170000000 1.0
C      1  0.5496090000000  0.4023270000000  0.4979400000000 1.0
C      1  0.5137100000000  0.4330310000000  0.5053830000000 1.0
C      1  0.5268400000000  0.4549610000000  0.5528060000000 1.0
C      1  0.5551900000000  0.4689430000000  0.5151090000000 1.0
C      1  0.5232750000000  0.5823730000000  0.5246810000000 1.0
C      1  0.4600930000000  0.4741100000000  0.4893070000000 1.0
C      1  0.4992640000000  0.4142960000000  0.5536690000000 1.0
C      1  0.5975020000000  0.5304990000000  0.5045850000000 1.0
C      1  0.4976890000000  0.4985930000000  0.4809960000000 1.0
C      1  0.5059900000000  0.4387560000000  0.4301360000000 1.0
C      1  0.4471240000000  0.5840950000000  0.4884650000000 1.0
C      1  0.3852870000000  0.5495660000000  0.5119470000000 1.0
C      1  0.4048750000000  0.4646050000000  0.4796720000000 1.0
C      1  0.4738190000000  0.5388870000000  0.5166720000000 1.0
C      1  0.5943630000000  0.5449640000000  0.4787090000000 1.0
C      1  0.5617270000000  0.5514490000000  0.4425830000000 1.0
C      1  0.5758330000000  0.5275820000000  0.4601510000000 1.0
C      1  0.5355890000000  0.4719740000000  0.5877830000000 1.0
C      1  0.4383180000000  0.4755330000000  0.5155480000000 1.0
C      1  0.5099840000000  0.4939900000000  0.5934240000000 1.0
C      1  0.4638000000000  0.5853010000000  0.4439870000000 1.0
C      1  0.5492310000000  0.5340090000000  0.4156340000000 1.0
C      1  0.5057670000000  0.5215760000000  0.4040860000000 1.0
C      1  0.4962280000000  0.5957170000000  0.5126950000000 1.0
C      1  0.5148640000000  0.5181640000000  0.5285630000000 1.0
C      1  0.4785790000000  0.5832190000000  0.4902810000000 1.0
C      1  0.5181270000000  0.5877600000000  0.5574390000000 1.0
C      1  0.4864090000000  0.5156740000000  0.5792520000000 1.0
C      1  0.4719090000000  0.5753990000000  0.5662370000000 1.0
C      1  0.5427540000000  0.5665280000000  0.5556980000000 1.0
C      1  0.5592910000000  0.4861370000000  0.5729630000000 1.0
C      1  0.4904110000000  0.5895540000000  0.4601290000000 1.0
C      1  0.5868490000000  0.4901720000000  0.4711350000000 1.0
C      1  0.6011200000000  0.4977690000000  0.4957580000000 1.0
C      1  0.4010940000000  0.5689970000000  0.5160660000000 1.0
C      1  0.5348180000000  0.4818990000000  0.5340920000000 1.0
C      1  0.5759070000000  0.5172620000000  0.4286850000000 1.0
C      1  0.4286290000000  0.5434510000000  0.4818050000000 1.0
C      1  0.5672930000000  0.5638730000000  0.4739160000000 1.0
C      1  0.4923800000000  0.4744580000000  0.5565450000000 1.0
C      1  0.4609610000000  0.4213010000000  0.4412840000000 1.0
C      1  0.5041540000000  0.4474600000000  0.5296410000000 1.0
C      1  0.4754190000000  0.4394780000000  0.4266830000000 1.0
C      1  0.5761510000000  0.4426350000000  0.5531040000000 1.0
C      1  0.5043530000000  0.4142360000000  0.4536330000000 1.0
C      1  0.4922920000000  0.4339000000000  0.4789660000000 1.0
C      1  0.5909280000000  0.4951750000000  0.4427610000000 1.0
C      1  0.5074290000000  0.5049360000000  0.5553560000000 1.0
C      1  0.4759740000000  0.4892600000000  0.5954090000000 1.0
C      1  0.5182160000000  0.5493360000000  0.5286780000000 1.0
C      1  0.4974660000000  0.3943000000000  0.4799550000000 1.0
C      1  0.4883020000000  0.4457430000000  0.6023730000000 1.0
C      1  0.4769040000000  0.4044620000000  0.5012460000000 1.0
C      1  0.5257460000000  0.5206440000000  0.5795990000000 1.0
C      1  0.3897800000000  0.4961520000000  0.5095470000000 1.0
C      1  0.4829730000000  0.5456560000000  0.5775010000000 1.0
C      1  0.5103880000000  0.5441360000000  0.5603710000000 1.0
C      1  0.4076780000000  0.4757270000000  0.5047450000000 1.0
C      1  0.5219380000000  0.5546560000000  0.4176960000000 1.0
C      1  0.4312780000000  0.4233550000000  0.5081440000000 1.0
C      1  0.5120030000000  0.4834870000000  0.3936940000000 1.0
C      1  0.5252720000000  0.5015390000000  0.5007330000000 1.0
C      1  0.4632970000000  0.5061480000000  0.3928830000000 1.0
C      1  0.4653680000000  0.4679990000000  0.4312920000000 1.0
C      1  0.4840040000000  0.6093490000000  0.5339520000000 1.0
C      1  0.4457490000000  0.4946630000000  0.5427790000000 1.0
C      1  0.5486920000000  0.5519270000000  0.4998320000000 1.0
C      1  0.4715380000000  0.4088290000000  0.5341780000000 1.0
C      1  0.4092560000000  0.5171950000000  0.5601360000000 1.0
C      1  0.4577160000000  0.5051330000000  0.4962890000000 1.0
C      1  0.4214090000000  0.4802940000000  0.4585510000000 1.0
C      1  0.4625360000000  0.4978840000000  0.4441850000000 1.0
C      1  0.4453880000000  0.5426870000000  0.4456240000000 1.0
C      1  0.4907590000000  0.5974510000000  0.5595220000000 1.0
C      1  0.5566720000000  0.4811480000000  0.4789820000000 1.0
C      1  0.5575790000000  0.4477080000000  0.4820710000000 1.0
C      1  0.3957640000000  0.5252170000000  0.4950830000000 1.0
C      1  0.5357390000000  0.4815570000000  0.4252400000000 1.0
C      1  0.4420820000000  0.5385370000000  0.5191470000000 1.0
C      1  0.4653140000000  0.5605590000000  0.4292460000000 1.0
C      1  0.5773880000000  0.5106440000000  0.5241510000000 1.0
C      1  0.4810990000000  0.4424560000000  0.5528630000000 1.0
C      1  0.5019160000000  0.4800460000000  0.5248780000000 1.0
C      1  0.4390940000000  0.5124770000000  0.4033160000000 1.0
C      1  0.4080190000000  0.5092170000000  0.4457870000000 1.0
C      1  0.4380940000000  0.5149940000000  0.4339750000000 1.0
C      1  0.5601760000000  0.4263910000000  0.5371960000000 1.0
C      1  0.5791920000000  0.4696890000000  0.5531660000000 1.0
C      1  0.4906430000000  0.5081960000000  0.4547910000000 1.0
C      1  0.5308730000000  0.5462670000000  0.4488500000000 1.0
C      1  0.5855030000000  0.5272490000000  0.5521350000000 1.0
C      1  0.5331080000000  0.3953690000000  0.5212210000000 1.0
C      1  0.5025700000000  0.3991150000000  0.5233170000000 1.0
C      1  0.5403520000000  0.4389080000000  0.5798140000000 1.0
C      1  0.5830600000000  0.4488870000000  0.5122570000000 1.0
C      1  0.5351220000000  0.5071200000000  0.4031250000000 1.0
C      1  0.4910690000000  0.5491200000000  0.4290740000000 1.0
C      1  0.4155140000000  0.4674570000000  0.5596540000000 1.0
C      1  0.5467570000000  0.5056600000000  0.5491580000000 1.0
C      1  0.4032590000000  0.4909330000000  0.5672670000000 1.0
C      1  0.5815260000000  0.5499980000000  0.5269640000000 1.0
C      1  0.5558110000000  0.5721620000000  0.5246140000000 1.0
C      1  0.5161020000000  0.5760980000000  0.4438680000000 1.0
C      1  0.4518500000000  0.4347510000000  0.5434760000000 1.0
C      1  0.4911470000000  0.4659630000000  0.4880560000000 1.0
C      1  0.5317820000000  0.4325010000000  0.4762730000000 1.0
C      1  0.5536080000000  0.5370180000000  0.5424810000000 1.0
C      1  0.5451860000000  0.4039710000000  0.5462390000000 1.0
C      1  0.5467260000000  0.5454900000000  0.5806700000000 1.0
C      1  0.4841970000000  0.5256000000000  0.3886140000000 1.0
C      1  0.5061250000000  0.4565870000000  0.5803350000000 1.0
C      1  0.5299960000000  0.4006430000000  0.4719200000000 1.0
C      1  0.5163800000000  0.5563890000000  0.4953260000000 1.0
C      1  0.4522350000000  0.4198440000000  0.4900890000000 1.0
END
