TITL C-2778434-4341-469 0.00834870336876178 125000 -334.421501459135 0 0 60 (C1) n - 1
REM
REM in /home/nfs/bkarasulu/CARBON/AIRSS/Generating-Clusters/REBO/Only-C1/SD-CG/HFTN-CG
REM
REM
REM
REM
REM
REM ./C.cell (11c1c37f851c82e70ff6c80c92926a4b)
REM
REM compiler GCC version 9.2.1 20190827 (Red Hat 9.2.1-1)
REM options -cpp -mtune=generic -march=x86-64 -g -O0 -fpre-include=/usr/include/finclude/math-vector-fortran.h
REM seed -761073098 -77211681 -356619945 1398186154 224242252 1322658365 961897335 -2049804549 -1542181039 1894848194 -2001046695 768491804 -334957819 -2086466548 617641129 -1234975689 -896580721 1594394714 1742499558 -478010694 2069536392 -348017744 2079721163 -1379293060 -1599927621 -353587440 794596763 -1360797299 2122335092 -32164116 -1066111015 -46804352 1342544007
REM
CELL 1.54180   50.00000   50.00000   50.00000   90.00000   90.00000   90.00000
LATT -1
SFAC C  
C      1  0.5531220000000  0.5568430000000  0.5144190000000 1.0
C      1  0.4564540000000  0.4320160000000  0.4744820000000 1.0
C      1  0.5323460000000  0.5118290000000  0.4908460000000 1.0
C      1  0.5213680000000  0.4609890000000  0.4590420000000 1.0
C      1  0.5477150000000  0.3954470000000  0.4756540000000 1.0
C      1  0.5526100000000  0.4933430000000  0.4678510000000 1.0
C      1  0.5405810000000  0.4205260000000  0.4782950000000 1.0
C      1  0.5200850000000  0.5550970000000  0.5107250000000 1.0
C      1  0.5156510000000  0.5464980000000  0.5598950000000 1.0
C      1  0.4446420000000  0.4639150000000  0.4751390000000 1.0
C      1  0.4966130000000  0.4515200000000  0.4513050000000 1.0
C      1  0.4782420000000  0.4649880000000  0.5196370000000 1.0
C      1  0.5025000000000  0.5796340000000  0.5035240000000 1.0
C      1  0.5113690000000  0.5305510000000  0.4997750000000 1.0
C      1  0.4778800000000  0.5145010000000  0.5412310000000 1.0
C      1  0.4964420000000  0.4889810000000  0.4729540000000 1.0
C      1  0.5461480000000  0.4860720000000  0.5066230000000 1.0
C      1  0.4598630000000  0.5429730000000  0.5402990000000 1.0
C      1  0.5346260000000  0.4594810000000  0.5086220000000 1.0
C      1  0.5017040000000  0.5204190000000  0.4608610000000 1.0
C      1  0.5438510000000  0.4420150000000  0.5348120000000 1.0
C      1  0.5357260000000  0.5269010000000  0.5538910000000 1.0
C      1  0.5257070000000  0.5001740000000  0.5563500000000 1.0
C      1  0.4705810000000  0.5113160000000  0.4531300000000 1.0
C      1  0.5451100000000  0.5740530000000  0.4860650000000 1.0
C      1  0.4448070000000  0.5468230000000  0.5171500000000 1.0
C      1  0.5034490000000  0.4955740000000  0.5331340000000 1.0
C      1  0.4967810000000  0.4869380000000  0.5007700000000 1.0
C      1  0.4835070000000  0.5268990000000  0.4957740000000 1.0
C      1  0.4611850000000  0.5497960000000  0.4888460000000 1.0
C      1  0.4714320000000  0.4710070000000  0.4580030000000 1.0
C      1  0.4357480000000  0.5216920000000  0.5009650000000 1.0
C      1  0.4161230000000  0.4475400000000  0.4836890000000 1.0
C      1  0.5329040000000  0.4461380000000  0.5572820000000 1.0
C      1  0.5111610000000  0.4698570000000  0.5621970000000 1.0
C      1  0.4928770000000  0.4892090000000  0.4385250000000 1.0
C      1  0.4879660000000  0.5644980000000  0.4824920000000 1.0
C      1  0.5759860000000  0.4944550000000  0.4926250000000 1.0
C      1  0.4786920000000  0.4706460000000  0.5519130000000 1.0
C      1  0.5556200000000  0.5316820000000  0.5336690000000 1.0
C      1  0.5260370000000  0.4920610000000  0.4467090000000 1.0
C      1  0.4653140000000  0.4080880000000  0.4739880000000 1.0
C      1  0.5663030000000  0.5093570000000  0.5205960000000 1.0
C      1  0.5059560000000  0.5507810000000  0.4657160000000 1.0
C      1  0.4516350000000  0.5216270000000  0.4721960000000 1.0
C      1  0.4883540000000  0.5432660000000  0.5549230000000 1.0
C      1  0.4521180000000  0.4761930000000  0.5033080000000 1.0
C      1  0.4708840000000  0.5034310000000  0.5119340000000 1.0
C      1  0.4345220000000  0.4947770000000  0.5452070000000 1.0
C      1  0.4555180000000  0.4833490000000  0.5595470000000 1.0
C      1  0.5330090000000  0.4471450000000  0.4810990000000 1.0
C      1  0.4278750000000  0.4848880000000  0.4595820000000 1.0
C      1  0.4320020000000  0.4971480000000  0.5165520000000 1.0
C      1  0.3947040000000  0.4352420000000  0.4901100000000 1.0
C      1  0.5334610000000  0.5248410000000  0.4530550000000 1.0
C      1  0.5262410000000  0.5948030000000  0.4936880000000 1.0
C      1  0.5722110000000  0.5452110000000  0.4902500000000 1.0
C      1  0.5355540000000  0.5568090000000  0.4654150000000 1.0
C      1  0.5098910000000  0.4620750000000  0.5287530000000 1.0
C      1  0.5592380000000  0.5260700000000  0.4749100000000 1.0
END
