TITL C-2778432-5617-1184 0.00189988886148803 125000 -223.295384204285 0 0 40 (C1) n - 1
REM
REM in /home/nfs/bkarasulu/CARBON/AIRSS/Generating-Clusters/REBO/Only-C1/SD-CG/HFTN-CG
REM
REM
REM
REM
REM
REM ./C.cell (11c1c37f851c82e70ff6c80c92926a4b)
REM
REM compiler GCC version 9.2.1 20190827 (Red Hat 9.2.1-1)
REM options -cpp -mtune=generic -march=x86-64 -g -O0 -fpre-include=/usr/include/finclude/math-vector-fortran.h
REM seed -1010376498 -1567277102 597155047 -1090689516 -1907610453 1683959075 -819564699 883689746 1394710683 492514446 -911390270 -1613459178 -695180810 -531375140 179553482 -1591954750 -1783785977 1684405902 1879996256 -2123155636 748927349 -1742544643 -1807371369 -1400634053 -2036700043 1212770438 -2017325354 878912104 -1819698523 786764276 -1332255266 867195881 373673086
REM
CELL 1.54180   50.00000   50.00000   50.00000   90.00000   90.00000   90.00000
LATT -1
SFAC C  
C      1  0.4636280000000  0.4860580000000  0.5295910000000 1.0
C      1  0.5066830000000  0.5279550000000  0.4991680000000 1.0
C      1  0.4920170000000  0.4791430000000  0.5473470000000 1.0
C      1  0.4519040000000  0.5113300000000  0.5444810000000 1.0
C      1  0.5227890000000  0.4956980000000  0.4309440000000 1.0
C      1  0.4847270000000  0.5611980000000  0.4578230000000 1.0
C      1  0.5376430000000  0.5309510000000  0.4615780000000 1.0
C      1  0.4681250000000  0.5145670000000  0.5711750000000 1.0
C      1  0.5533530000000  0.5152270000000  0.5034990000000 1.0
C      1  0.5169310000000  0.4672840000000  0.4358070000000 1.0
C      1  0.4676550000000  0.5497640000000  0.4807970000000 1.0
C      1  0.5008250000000  0.4748270000000  0.4816800000000 1.0
C      1  0.4426450000000  0.5132640000000  0.4938490000000 1.0
C      1  0.5500290000000  0.4809090000000  0.4695770000000 1.0
C      1  0.4898590000000  0.5023970000000  0.4865980000000 1.0
C      1  0.5340290000000  0.4586440000000  0.4586680000000 1.0
C      1  0.4797760000000  0.4581840000000  0.4653280000000 1.0
C      1  0.5373910000000  0.5166720000000  0.5505700000000 1.0
C      1  0.5340900000000  0.5315360000000  0.4902740000000 1.0
C      1  0.4943600000000  0.5478600000000  0.5140650000000 1.0
C      1  0.5123700000000  0.4579640000000  0.5077940000000 1.0
C      1  0.4832590000000  0.4902390000000  0.5755210000000 1.0
C      1  0.5473380000000  0.5034900000000  0.4503390000000 1.0
C      1  0.4898770000000  0.4572400000000  0.4385580000000 1.0
C      1  0.5124200000000  0.5217980000000  0.4456180000000 1.0
C      1  0.5533490000000  0.4553280000000  0.5352020000000 1.0
C      1  0.5184420000000  0.4442700000000  0.4790230000000 1.0
C      1  0.4625580000000  0.4951400000000  0.4992150000000 1.0
C      1  0.5362760000000  0.4722820000000  0.5204280000000 1.0
C      1  0.5511910000000  0.4873800000000  0.4979300000000 1.0
C      1  0.4615090000000  0.4571390000000  0.5115240000000 1.0
C      1  0.4885890000000  0.4554420000000  0.5262290000000 1.0
C      1  0.4880370000000  0.5276000000000  0.4639200000000 1.0
C      1  0.4514750000000  0.5395440000000  0.5010740000000 1.0
C      1  0.4852190000000  0.5684140000000  0.5275540000000 1.0
C      1  0.5092230000000  0.5268280000000  0.5446550000000 1.0
C      1  0.4594000000000  0.4506340000000  0.4839170000000 1.0
C      1  0.4584720000000  0.5387410000000  0.5291820000000 1.0
C      1  0.5195930000000  0.4920240000000  0.5388140000000 1.0
C      1  0.4829460000000  0.5350300000000  0.5506830000000 1.0
END
