TITL C-2778425-5191-1086 -0.00576464229627827 125000 -937.574742880891 0 0 161 (C1) n - 1
REM
REM in /home/nfs/bkarasulu/CARBON/AIRSS/Generating-Clusters/REBO/Only-C1/SD-CG/HFTN-CG
REM
REM
REM
REM
REM
REM ./C.cell (11c1c37f851c82e70ff6c80c92926a4b)
REM
REM compiler GCC version 9.2.1 20190827 (Red Hat 9.2.1-1)
REM options -cpp -mtune=generic -march=x86-64 -g -O0 -fpre-include=/usr/include/finclude/math-vector-fortran.h
REM seed -534260051 -1666931786 870117144 -868655788 -1132161344 -1358195697 -1863970462 1316702897 1834618283 695277113 -2141620470 -1467134443 578852325 1612470452 -1601536144 1692727252 -362196630 2146392165 52857169 -1418669841 604906770 -2076977933 791179614 -394835911 -495516206 -1804023882 1715553946 1527900555 166550265 -1775773183 906584803 -1470694688 748735653
REM
CELL 1.54180   50.00000   50.00000   50.00000   90.00000   90.00000   90.00000
LATT -1
SFAC C  
C      1  0.5929760000000  0.5209390000000  0.4860350000000 1.0
C      1  0.4968290000000  0.5052680000000  0.5339500000000 1.0
C      1  0.5696620000000  0.5804790000000  0.4854830000000 1.0
C      1  0.5762800000000  0.4473850000000  0.5694680000000 1.0
C      1  0.5765720000000  0.4263320000000  0.5163790000000 1.0
C      1  0.5911460000000  0.5169000000000  0.5397590000000 1.0
C      1  0.5144040000000  0.5776820000000  0.4106400000000 1.0
C      1  0.4532810000000  0.5522650000000  0.4895560000000 1.0
C      1  0.5103450000000  0.5058650000000  0.4267870000000 1.0
C      1  0.5282770000000  0.4340680000000  0.4589960000000 1.0
C      1  0.4690120000000  0.5397580000000  0.5236320000000 1.0
C      1  0.5421550000000  0.5388460000000  0.4823240000000 1.0
C      1  0.5661160000000  0.5630040000000  0.5277400000000 1.0
C      1  0.4517230000000  0.5315910000000  0.5460970000000 1.0
C      1  0.5351020000000  0.4511040000000  0.5232170000000 1.0
C      1  0.5326030000000  0.5800370000000  0.4543050000000 1.0
C      1  0.5171900000000  0.3900990000000  0.4854330000000 1.0
C      1  0.4375470000000  0.4477510000000  0.4889500000000 1.0
C      1  0.5563420000000  0.5261580000000  0.5959450000000 1.0
C      1  0.4735090000000  0.4497640000000  0.5842040000000 1.0
C      1  0.4958810000000  0.5917980000000  0.4649030000000 1.0
C      1  0.5500490000000  0.4817220000000  0.4008170000000 1.0
C      1  0.4974250000000  0.5962110000000  0.4990030000000 1.0
C      1  0.5858530000000  0.5387980000000  0.5138520000000 1.0
C      1  0.5252800000000  0.5468830000000  0.5075690000000 1.0
C      1  0.4281810000000  0.5548530000000  0.4587880000000 1.0
C      1  0.5900840000000  0.4682440000000  0.5537760000000 1.0
C      1  0.4532500000000  0.4092480000000  0.5227170000000 1.0
C      1  0.4611180000000  0.5705480000000  0.5153420000000 1.0
C      1  0.5695510000000  0.5534340000000  0.4892700000000 1.0
C      1  0.5576930000000  0.5394160000000  0.4417690000000 1.0
C      1  0.5027860000000  0.5542650000000  0.3993740000000 1.0
C      1  0.5224840000000  0.4926450000000  0.3987020000000 1.0
C      1  0.5730060000000  0.5256840000000  0.4596700000000 1.0
C      1  0.5448090000000  0.4122300000000  0.4138500000000 1.0
C      1  0.5260610000000  0.5911200000000  0.5276120000000 1.0
C      1  0.4996890000000  0.5308960000000  0.5130680000000 1.0
C      1  0.5058730000000  0.4412940000000  0.4266960000000 1.0
C      1  0.4119310000000  0.5505280000000  0.5157310000000 1.0
C      1  0.4309590000000  0.5238800000000  0.5770380000000 1.0
C      1  0.5186500000000  0.4636440000000  0.4708770000000 1.0
C      1  0.5705870000000  0.4951330000000  0.3878450000000 1.0
C      1  0.5215100000000  0.6064450000000  0.4821110000000 1.0
C      1  0.5067360000000  0.4917810000000  0.6152830000000 1.0
C      1  0.3897840000000  0.5130730000000  0.5330990000000 1.0
C      1  0.4738760000000  0.4161630000000  0.4710320000000 1.0
C      1  0.4318350000000  0.5753890000000  0.5254860000000 1.0
C      1  0.4052990000000  0.4918290000000  0.5247960000000 1.0
C      1  0.5365110000000  0.4362020000000  0.4258320000000 1.0
C      1  0.4086510000000  0.5212690000000  0.4494170000000 1.0
C      1  0.5751820000000  0.5426520000000  0.5518830000000 1.0
C      1  0.4779440000000  0.5352420000000  0.4248090000000 1.0
C      1  0.4930370000000  0.4187840000000  0.4365220000000 1.0
C      1  0.4801040000000  0.4733580000000  0.5527990000000 1.0
C      1  0.4981790000000  0.5750370000000  0.5872890000000 1.0
C      1  0.4332650000000  0.6044150000000  0.4654990000000 1.0
C      1  0.4847250000000  0.5880840000000  0.5218610000000 1.0
C      1  0.4599280000000  0.5086770000000  0.3895100000000 1.0
C      1  0.5850800000000  0.4642600000000  0.5257540000000 1.0
C      1  0.5386060000000  0.5676110000000  0.5222230000000 1.0
C      1  0.5632380000000  0.5037690000000  0.5130590000000 1.0
C      1  0.4424170000000  0.5787350000000  0.4619490000000 1.0
C      1  0.4264680000000  0.4259650000000  0.4545180000000 1.0
C      1  0.5004790000000  0.4466410000000  0.5912840000000 1.0
C      1  0.5544840000000  0.4833410000000  0.4634650000000 1.0
C      1  0.4427740000000  0.4114140000000  0.4728840000000 1.0
C      1  0.4195940000000  0.4541710000000  0.4540090000000 1.0
C      1  0.4943000000000  0.5157280000000  0.4842480000000 1.0
C      1  0.5786450000000  0.4963630000000  0.5601710000000 1.0
C      1  0.4632100000000  0.4671360000000  0.5242780000000 1.0
C      1  0.4276940000000  0.4398600000000  0.5196670000000 1.0
C      1  0.5327760000000  0.5405470000000  0.5563990000000 1.0
C      1  0.4881930000000  0.4441020000000  0.5446910000000 1.0
C      1  0.5546850000000  0.4728930000000  0.5246990000000 1.0
C      1  0.5899850000000  0.5077990000000  0.3755920000000 1.0
C      1  0.5474950000000  0.4900200000000  0.5493210000000 1.0
C      1  0.4624170000000  0.4815990000000  0.5787450000000 1.0
C      1  0.4688120000000  0.5747570000000  0.5714800000000 1.0
C      1  0.4232520000000  0.4807360000000  0.5458810000000 1.0
C      1  0.4996970000000  0.4413460000000  0.4878360000000 1.0
C      1  0.5477940000000  0.5946960000000  0.4750850000000 1.0
C      1  0.4609620000000  0.5711770000000  0.4275520000000 1.0
C      1  0.4358310000000  0.4951950000000  0.5676240000000 1.0
C      1  0.4506160000000  0.4449060000000  0.5647570000000 1.0
C      1  0.5965860000000  0.5006220000000  0.5114070000000 1.0
C      1  0.5607800000000  0.4344610000000  0.4610110000000 1.0
C      1  0.5198380000000  0.5135420000000  0.6251160000000 1.0
C      1  0.4975000000000  0.4966860000000  0.5671060000000 1.0
C      1  0.5155550000000  0.5457380000000  0.5850080000000 1.0
C      1  0.4406920000000  0.4717000000000  0.4452810000000 1.0
C      1  0.4895750000000  0.4830650000000  0.5153910000000 1.0
C      1  0.4647230000000  0.5211420000000  0.4965920000000 1.0
C      1  0.5993370000000  0.4709660000000  0.5010580000000 1.0
C      1  0.4793090000000  0.5046400000000  0.4350350000000 1.0
C      1  0.4268790000000  0.5339370000000  0.4955490000000 1.0
C      1  0.5180240000000  0.4357970000000  0.5458270000000 1.0
C      1  0.5814010000000  0.4655700000000  0.4752030000000 1.0
C      1  0.5724250000000  0.4481800000000  0.4385630000000 1.0
C      1  0.4954650000000  0.4753150000000  0.3901380000000 1.0
C      1  0.5545160000000  0.4609910000000  0.4181530000000 1.0
C      1  0.5231370000000  0.4689820000000  0.6018590000000 1.0
C      1  0.4034950000000  0.4859350000000  0.4956740000000 1.0
C      1  0.4798310000000  0.5394000000000  0.4644260000000 1.0
C      1  0.4735670000000  0.5722660000000  0.4580190000000 1.0
C      1  0.4826650000000  0.4989630000000  0.5977830000000 1.0
C      1  0.4731500000000  0.5583920000000  0.4006620000000 1.0
C      1  0.5100540000000  0.5247290000000  0.3979050000000 1.0
C      1  0.4873650000000  0.5039410000000  0.3838940000000 1.0
C      1  0.3991150000000  0.5498430000000  0.4521070000000 1.0
C      1  0.5424170000000  0.5696910000000  0.5676610000000 1.0
C      1  0.4437700000000  0.5551470000000  0.5720950000000 1.0
C      1  0.4451590000000  0.5439090000000  0.4243030000000 1.0
C      1  0.5581070000000  0.4947670000000  0.5870960000000 1.0
C      1  0.4898010000000  0.4149050000000  0.5004750000000 1.0
C      1  0.5132640000000  0.5911240000000  0.4354960000000 1.0
C      1  0.4962540000000  0.3830920000000  0.5107160000000 1.0
C      1  0.4581040000000  0.3875300000000  0.5385500000000 1.0
C      1  0.4086000000000  0.4625310000000  0.4813340000000 1.0
C      1  0.5048380000000  0.4095460000000  0.5308310000000 1.0
C      1  0.5263300000000  0.4414800000000  0.5741060000000 1.0
C      1  0.4466810000000  0.4999430000000  0.4572970000000 1.0
C      1  0.4684430000000  0.5238460000000  0.5701620000000 1.0
C      1  0.5251310000000  0.5127760000000  0.5432300000000 1.0
C      1  0.4667020000000  0.5216880000000  0.6106480000000 1.0
C      1  0.5819030000000  0.4293600000000  0.5448930000000 1.0
C      1  0.5099930000000  0.4925550000000  0.4799320000000 1.0
C      1  0.5291520000000  0.4047880000000  0.5090690000000 1.0
C      1  0.4441420000000  0.5313230000000  0.6041610000000 1.0
C      1  0.4662050000000  0.4332600000000  0.5277250000000 1.0
C      1  0.4318190000000  0.4530340000000  0.5445810000000 1.0
C      1  0.4976390000000  0.4695760000000  0.4377330000000 1.0
C      1  0.5275750000000  0.4841680000000  0.4452540000000 1.0
C      1  0.4398540000000  0.5022620000000  0.4965560000000 1.0
C      1  0.5312710000000  0.5502030000000  0.4543870000000 1.0
C      1  0.5263020000000  0.4890910000000  0.5752760000000 1.0
C      1  0.4784020000000  0.4595070000000  0.4042220000000 1.0
C      1  0.5055250000000  0.5395920000000  0.4438430000000 1.0
C      1  0.5309030000000  0.5320610000000  0.6072030000000 1.0
C      1  0.5644460000000  0.5482540000000  0.5793490000000 1.0
C      1  0.4362880000000  0.4061640000000  0.4999630000000 1.0
C      1  0.4524620000000  0.5054780000000  0.4168070000000 1.0
C      1  0.5547460000000  0.5093070000000  0.4843080000000 1.0
C      1  0.4919200000000  0.5873960000000  0.5498720000000 1.0
C      1  0.4663620000000  0.4555850000000  0.4347860000000 1.0
C      1  0.4277530000000  0.5196170000000  0.4282290000000 1.0
C      1  0.4129540000000  0.5106980000000  0.4772990000000 1.0
C      1  0.5767870000000  0.4351020000000  0.4866250000000 1.0
C      1  0.4763410000000  0.4844470000000  0.4600920000000 1.0
C      1  0.5529390000000  0.5257090000000  0.5324400000000 1.0
C      1  0.4476870000000  0.5294570000000  0.4614700000000 1.0
C      1  0.4825850000000  0.5451500000000  0.5816980000000 1.0
C      1  0.4415670000000  0.4747060000000  0.5059120000000 1.0
C      1  0.4789030000000  0.4683410000000  0.4866110000000 1.0
C      1  0.4237240000000  0.5506630000000  0.5464440000000 1.0
C      1  0.4620320000000  0.4458960000000  0.4671490000000 1.0
C      1  0.5521880000000  0.4606560000000  0.5853550000000 1.0
C      1  0.5065750000000  0.4090380000000  0.4647280000000 1.0
C      1  0.5863720000000  0.4958880000000  0.4638820000000 1.0
C      1  0.5198680000000  0.5868470000000  0.5667640000000 1.0
C      1  0.5471730000000  0.4256660000000  0.5114350000000 1.0
C      1  0.5107170000000  0.4614440000000  0.5096100000000 1.0
END
