TITL C-2778432-5617-630 0.000525137913058316 125000 -358.957065501456 0 0 64 (C1) n - 1
REM
REM in /home/nfs/bkarasulu/CARBON/AIRSS/Generating-Clusters/REBO/Only-C1/SD-CG/HFTN-CG
REM
REM
REM
REM
REM
REM ./C.cell (11c1c37f851c82e70ff6c80c92926a4b)
REM
REM compiler GCC version 9.2.1 20190827 (Red Hat 9.2.1-1)
REM options -cpp -mtune=generic -march=x86-64 -g -O0 -fpre-include=/usr/include/finclude/math-vector-fortran.h
REM seed -1480544889 1829490823 1439905141 718549205 293379942 437302105 -1493225623 634332747 -722979248 -201395967 1630305305 -2119579447 -1364009550 -2067095383 565563211 -683192229 -1418859242 -498215789 1143241683 -157189549 -586409784 2110468176 -985404211 150828750 142329213 872782050 -963000956 1877574935 -1305876767 -1738691996 1076243637 -826099690 245334807
REM
CELL 1.54180   50.00000   50.00000   50.00000   90.00000   90.00000   90.00000
LATT -1
SFAC C  
C      1  0.5295480000000  0.5080920000000  0.5213000000000 1.0
C      1  0.5003400000000  0.4874130000000  0.5390890000000 1.0
C      1  0.5775960000000  0.5253980000000  0.5144700000000 1.0
C      1  0.4284910000000  0.4972500000000  0.4587890000000 1.0
C      1  0.4693410000000  0.4675730000000  0.4393520000000 1.0
C      1  0.5194490000000  0.5644890000000  0.5350180000000 1.0
C      1  0.4638290000000  0.4298920000000  0.5358520000000 1.0
C      1  0.4902350000000  0.4238510000000  0.5303870000000 1.0
C      1  0.5286970000000  0.4327020000000  0.4955520000000 1.0
C      1  0.4359600000000  0.4833040000000  0.5244840000000 1.0
C      1  0.4770450000000  0.4683550000000  0.4943970000000 1.0
C      1  0.4309120000000  0.5197580000000  0.4800280000000 1.0
C      1  0.4756030000000  0.5155680000000  0.4490560000000 1.0
C      1  0.4297430000000  0.4622340000000  0.5016680000000 1.0
C      1  0.5387290000000  0.5607600000000  0.5071660000000 1.0
C      1  0.5374080000000  0.4951580000000  0.4450340000000 1.0
C      1  0.4454600000000  0.4740380000000  0.4577780000000 1.0
C      1  0.5652740000000  0.5338560000000  0.5377700000000 1.0
C      1  0.4872600000000  0.4507750000000  0.4555280000000 1.0
C      1  0.5122060000000  0.4817270000000  0.5078970000000 1.0
C      1  0.4828600000000  0.5405520000000  0.5655810000000 1.0
C      1  0.4610840000000  0.4551460000000  0.4153040000000 1.0
C      1  0.5445870000000  0.5251610000000  0.5551150000000 1.0
C      1  0.5163380000000  0.5385290000000  0.5568850000000 1.0
C      1  0.5604500000000  0.4435170000000  0.4962480000000 1.0
C      1  0.5342070000000  0.5000910000000  0.4897950000000 1.0
C      1  0.5470010000000  0.5268140000000  0.4424260000000 1.0
C      1  0.5191120000000  0.5361740000000  0.5171900000000 1.0
C      1  0.5086210000000  0.4654800000000  0.5619870000000 1.0
C      1  0.4750630000000  0.4758240000000  0.5234120000000 1.0
C      1  0.4958420000000  0.5659610000000  0.4608520000000 1.0
C      1  0.4846210000000  0.4933670000000  0.4343010000000 1.0
C      1  0.5280880000000  0.5244170000000  0.4705080000000 1.0
C      1  0.5214000000000  0.5479550000000  0.4474440000000 1.0
C      1  0.4316840000000  0.5332060000000  0.5087560000000 1.0
C      1  0.4942960000000  0.5150420000000  0.5465630000000 1.0
C      1  0.5702780000000  0.5301960000000  0.4873800000000 1.0
C      1  0.4885100000000  0.5395830000000  0.4450050000000 1.0
C      1  0.4355230000000  0.5501060000000  0.5312050000000 1.0
C      1  0.5555670000000  0.5549280000000  0.4867210000000 1.0
C      1  0.5194930000000  0.4747670000000  0.4626050000000 1.0
C      1  0.4360940000000  0.4882060000000  0.5573100000000 1.0
C      1  0.4875870000000  0.5570810000000  0.5363710000000 1.0
C      1  0.4523500000000  0.5073260000000  0.5108690000000 1.0
C      1  0.4526400000000  0.4544820000000  0.5333890000000 1.0
C      1  0.5653720000000  0.4706590000000  0.5115390000000 1.0
C      1  0.4496750000000  0.4617750000000  0.4828840000000 1.0
C      1  0.4632210000000  0.4872680000000  0.5534050000000 1.0
C      1  0.5644130000000  0.5089400000000  0.4654130000000 1.0
C      1  0.5155480000000  0.4348830000000  0.5239690000000 1.0
C      1  0.5251650000000  0.4561020000000  0.5395150000000 1.0
C      1  0.4999220000000  0.5183560000000  0.4808060000000 1.0
C      1  0.5070010000000  0.4555440000000  0.4881610000000 1.0
C      1  0.5110740000000  0.4920190000000  0.4276120000000 1.0
C      1  0.5566980000000  0.4796990000000  0.4798680000000 1.0
C      1  0.4917730000000  0.4894360000000  0.4744120000000 1.0
C      1  0.4560900000000  0.5534440000000  0.5486570000000 1.0
C      1  0.5417840000000  0.4509260000000  0.4694420000000 1.0
C      1  0.4621410000000  0.5062880000000  0.4781540000000 1.0
C      1  0.4886240000000  0.5657750000000  0.4872930000000 1.0
C      1  0.5441640000000  0.4789040000000  0.5317850000000 1.0
C      1  0.4921370000000  0.5384620000000  0.5014300000000 1.0
C      1  0.4737950000000  0.5274320000000  0.5241240000000 1.0
C      1  0.5449830000000  0.4979870000000  0.5576910000000 1.0
END
