TITL C-2778431-5191-628 0.00319404261185863 125000 -1112.01112801951 0 0 188 (C1) n - 1
REM
REM in /home/nfs/bkarasulu/CARBON/AIRSS/Generating-Clusters/REBO/Only-C1/SD-CG/HFTN-CG
REM
REM
REM
REM
REM
REM ./C.cell (11c1c37f851c82e70ff6c80c92926a4b)
REM
REM compiler GCC version 9.2.1 20190827 (Red Hat 9.2.1-1)
REM options -cpp -mtune=generic -march=x86-64 -g -O0 -fpre-include=/usr/include/finclude/math-vector-fortran.h
REM seed 1062853292 -2045183423 1223578110 360234855 2038367572 -1527466255 -1602638655 -1564333843 2040742162 -918615159 -1716943832 430969649 835442617 -1884889053 708909621 2009958900 1227437709 1828534223 -1787679910 -1602453362 -2123560840 1403753783 -1092927112 1891474356 1775386795 -307110895 1323917175 -1803077302 870143815 -1986491412 211204149 10160288 -1823649217
REM
CELL 1.54180   50.00000   50.00000   50.00000   90.00000   90.00000   90.00000
LATT -1
SFAC C  
C      1  0.4237970000000  0.4875730000000  0.4218120000000 1.0
C      1  0.4219500000000  0.4829440000000  0.5071370000000 1.0
C      1  0.4347540000000  0.5136790000000  0.5812480000000 1.0
C      1  0.4957480000000  0.4789410000000  0.6149810000000 1.0
C      1  0.4415680000000  0.4814630000000  0.5486470000000 1.0
C      1  0.4534510000000  0.5499030000000  0.5139070000000 1.0
C      1  0.5019870000000  0.5373830000000  0.5928640000000 1.0
C      1  0.4694410000000  0.3860510000000  0.4985500000000 1.0
C      1  0.4428320000000  0.3917350000000  0.5185510000000 1.0
C      1  0.5121970000000  0.5073370000000  0.3864450000000 1.0
C      1  0.4084410000000  0.4667430000000  0.4804570000000 1.0
C      1  0.4412530000000  0.4577760000000  0.4832370000000 1.0
C      1  0.5325660000000  0.4945800000000  0.4439640000000 1.0
C      1  0.5250530000000  0.4348410000000  0.5709470000000 1.0
C      1  0.5866660000000  0.4983350000000  0.4686070000000 1.0
C      1  0.5532300000000  0.5703460000000  0.5237090000000 1.0
C      1  0.5623650000000  0.5142020000000  0.4164830000000 1.0
C      1  0.5598270000000  0.5491590000000  0.4607630000000 1.0
C      1  0.4935910000000  0.4164610000000  0.4101470000000 1.0
C      1  0.4665440000000  0.5659280000000  0.4959110000000 1.0
C      1  0.4932690000000  0.6100380000000  0.5575670000000 1.0
C      1  0.5717110000000  0.5469160000000  0.4226970000000 1.0
C      1  0.5307340000000  0.5763630000000  0.4572110000000 1.0
C      1  0.5609510000000  0.5403650000000  0.5326180000000 1.0
C      1  0.4582770000000  0.3901450000000  0.5432540000000 1.0
C      1  0.5914450000000  0.5461420000000  0.4508210000000 1.0
C      1  0.5714580000000  0.4637800000000  0.4371480000000 1.0
C      1  0.5406240000000  0.5438090000000  0.4848860000000 1.0
C      1  0.4727380000000  0.4973940000000  0.6076020000000 1.0
C      1  0.4467730000000  0.5881060000000  0.5270670000000 1.0
C      1  0.4749540000000  0.5122880000000  0.4475540000000 1.0
C      1  0.4871810000000  0.4370330000000  0.4997590000000 1.0
C      1  0.5333610000000  0.5982930000000  0.5266070000000 1.0
C      1  0.5025750000000  0.6058420000000  0.4800980000000 1.0
C      1  0.4608760000000  0.4604980000000  0.4281100000000 1.0
C      1  0.4341590000000  0.5132940000000  0.4967360000000 1.0
C      1  0.5333680000000  0.5155000000000  0.6044340000000 1.0
C      1  0.4475300000000  0.4609210000000  0.5149840000000 1.0
C      1  0.4102020000000  0.4954540000000  0.5430860000000 1.0
C      1  0.4871360000000  0.5592150000000  0.5762120000000 1.0
C      1  0.4890330000000  0.5536470000000  0.5335460000000 1.0
C      1  0.4985770000000  0.4277440000000  0.5906940000000 1.0
C      1  0.5909530000000  0.5534090000000  0.5266640000000 1.0
C      1  0.5963430000000  0.5666110000000  0.4991620000000 1.0
C      1  0.5206580000000  0.4909310000000  0.5116480000000 1.0
C      1  0.5594300000000  0.4285970000000  0.4676960000000 1.0
C      1  0.4749060000000  0.4147750000000  0.5164970000000 1.0
C      1  0.4088470000000  0.5361610000000  0.4589660000000 1.0
C      1  0.4280120000000  0.5688320000000  0.4857320000000 1.0
C      1  0.4507450000000  0.4086180000000  0.4832260000000 1.0
C      1  0.4835520000000  0.4418940000000  0.4010900000000 1.0
C      1  0.4577390000000  0.5177040000000  0.5565850000000 1.0
C      1  0.5437800000000  0.4806230000000  0.5880610000000 1.0
C      1  0.5036030000000  0.5685380000000  0.5096230000000 1.0
C      1  0.5635240000000  0.5330860000000  0.5629820000000 1.0
C      1  0.4667780000000  0.5085850000000  0.4086920000000 1.0
C      1  0.4485630000000  0.5059230000000  0.5259770000000 1.0
C      1  0.4801760000000  0.4816980000000  0.5782760000000 1.0
C      1  0.4857310000000  0.3923420000000  0.5474870000000 1.0
C      1  0.5506470000000  0.5995760000000  0.4969460000000 1.0
C      1  0.4650230000000  0.4594170000000  0.5570950000000 1.0
C      1  0.5822530000000  0.4716890000000  0.4629790000000 1.0
C      1  0.4182860000000  0.4415710000000  0.4513750000000 1.0
C      1  0.4001570000000  0.5548500000000  0.5214880000000 1.0
C      1  0.5162530000000  0.4132460000000  0.4278650000000 1.0
C      1  0.4829450000000  0.5229080000000  0.5373010000000 1.0
C      1  0.5636630000000  0.5054410000000  0.5831260000000 1.0
C      1  0.4183810000000  0.4360660000000  0.5294790000000 1.0
C      1  0.5420470000000  0.5705600000000  0.4107130000000 1.0
C      1  0.4953120000000  0.4929730000000  0.4079010000000 1.0
C      1  0.4617780000000  0.5408660000000  0.4520470000000 1.0
C      1  0.4559340000000  0.5190660000000  0.6030340000000 1.0
C      1  0.5633920000000  0.4944880000000  0.5007870000000 1.0
C      1  0.5176100000000  0.5333920000000  0.3928930000000 1.0
C      1  0.5808160000000  0.5894830000000  0.4942170000000 1.0
C      1  0.4427420000000  0.5910350000000  0.4761690000000 1.0
C      1  0.4145200000000  0.4277300000000  0.4750200000000 1.0
C      1  0.4801790000000  0.4442500000000  0.4467280000000 1.0
C      1  0.5139830000000  0.4251470000000  0.4897780000000 1.0
C      1  0.5301230000000  0.5465620000000  0.5979880000000 1.0
C      1  0.5455320000000  0.5399140000000  0.4016930000000 1.0
C      1  0.5452860000000  0.5887810000000  0.5575960000000 1.0
C      1  0.4093660000000  0.5225190000000  0.5303040000000 1.0
C      1  0.4871210000000  0.4733980000000  0.4731500000000 1.0
C      1  0.6178140000000  0.4870600000000  0.4909420000000 1.0
C      1  0.5681480000000  0.5010680000000  0.5340780000000 1.0
C      1  0.5410090000000  0.5057980000000  0.5443260000000 1.0
C      1  0.5277240000000  0.4303480000000  0.4619360000000 1.0
C      1  0.5027520000000  0.3952370000000  0.5181890000000 1.0
C      1  0.5335000000000  0.5701090000000  0.4986690000000 1.0
C      1  0.5517690000000  0.4182400000000  0.5391950000000 1.0
C      1  0.4581340000000  0.4360590000000  0.5329440000000 1.0
C      1  0.5197630000000  0.3929200000000  0.4915580000000 1.0
C      1  0.4698620000000  0.4828910000000  0.5204180000000 1.0
C      1  0.4267390000000  0.4666030000000  0.5764620000000 1.0
C      1  0.5009200000000  0.5936100000000  0.4279070000000 1.0
C      1  0.4394570000000  0.4900670000000  0.4724320000000 1.0
C      1  0.4151510000000  0.4948320000000  0.5749910000000 1.0
C      1  0.5151660000000  0.5274970000000  0.4580350000000 1.0
C      1  0.5018420000000  0.4637790000000  0.4125000000000 1.0
C      1  0.4546670000000  0.5907480000000  0.4513780000000 1.0
C      1  0.5115480000000  0.4001380000000  0.4590000000000 1.0
C      1  0.5167970000000  0.5118570000000  0.4861380000000 1.0
C      1  0.5877250000000  0.5089140000000  0.5608780000000 1.0
C      1  0.5513640000000  0.4508760000000  0.5776890000000 1.0
C      1  0.4206300000000  0.5726840000000  0.5133820000000 1.0
C      1  0.5094090000000  0.5571380000000  0.4602690000000 1.0
C      1  0.5581140000000  0.4447800000000  0.5387590000000 1.0
C      1  0.4619660000000  0.5424110000000  0.5798020000000 1.0
C      1  0.4550460000000  0.4515130000000  0.3976460000000 1.0
C      1  0.5100820000000  0.4473700000000  0.5464880000000 1.0
C      1  0.5280850000000  0.4612600000000  0.4992310000000 1.0
C      1  0.4618640000000  0.4169450000000  0.4536260000000 1.0
C      1  0.4343180000000  0.4269330000000  0.5538280000000 1.0
C      1  0.4786830000000  0.5622980000000  0.4671610000000 1.0
C      1  0.5178230000000  0.4681500000000  0.4700540000000 1.0
C      1  0.4618030000000  0.5994240000000  0.4999530000000 1.0
C      1  0.5555750000000  0.5723950000000  0.4386850000000 1.0
C      1  0.4061250000000  0.4976560000000  0.4691830000000 1.0
C      1  0.4360210000000  0.5391180000000  0.4743410000000 1.0
C      1  0.5779680000000  0.4529450000000  0.5603640000000 1.0
C      1  0.4897600000000  0.4578450000000  0.5219990000000 1.0
C      1  0.6073400000000  0.5449050000000  0.4773290000000 1.0
C      1  0.4102090000000  0.5324200000000  0.4322750000000 1.0
C      1  0.5776020000000  0.5162810000000  0.4468970000000 1.0
C      1  0.5665600000000  0.4162630000000  0.4967880000000 1.0
C      1  0.5023990000000  0.6002590000000  0.5121950000000 1.0
C      1  0.4702280000000  0.4474360000000  0.4780130000000 1.0
C      1  0.5459440000000  0.5222810000000  0.4518580000000 1.0
C      1  0.4810790000000  0.3964820000000  0.4690860000000 1.0
C      1  0.5749410000000  0.5738540000000  0.5489720000000 1.0
C      1  0.5133270000000  0.5494460000000  0.5564920000000 1.0
C      1  0.5508260000000  0.3940320000000  0.5009660000000 1.0
C      1  0.4372550000000  0.4405870000000  0.5786030000000 1.0
C      1  0.5512240000000  0.4823860000000  0.4213690000000 1.0
C      1  0.4416640000000  0.5770680000000  0.4305490000000 1.0
C      1  0.4967420000000  0.5474950000000  0.4044820000000 1.0
C      1  0.5224700000000  0.4878350000000  0.6119750000000 1.0
C      1  0.5189910000000  0.5850230000000  0.4098280000000 1.0
C      1  0.6245940000000  0.5153180000000  0.4803220000000 1.0
C      1  0.5323060000000  0.4578670000000  0.4108430000000 1.0
C      1  0.5301340000000  0.6000050000000  0.4725320000000 1.0
C      1  0.5200630000000  0.6095030000000  0.5624360000000 1.0
C      1  0.4346950000000  0.5194380000000  0.4147110000000 1.0
C      1  0.5937130000000  0.5198540000000  0.5229540000000 1.0
C      1  0.5102580000000  0.4516110000000  0.4434810000000 1.0
C      1  0.5383730000000  0.4321200000000  0.4227540000000 1.0
C      1  0.4423550000000  0.4357790000000  0.4382620000000 1.0
C      1  0.4779700000000  0.5875930000000  0.5675870000000 1.0
C      1  0.4093710000000  0.4731340000000  0.4463660000000 1.0
C      1  0.5413600000000  0.4915250000000  0.4769530000000 1.0
C      1  0.4372470000000  0.5516030000000  0.5609560000000 1.0
C      1  0.5935470000000  0.4622190000000  0.5324830000000 1.0
C      1  0.5113310000000  0.5375680000000  0.5034400000000 1.0
C      1  0.3894920000000  0.5301850000000  0.5043230000000 1.0
C      1  0.4699630000000  0.5386660000000  0.4183090000000 1.0
C      1  0.3907810000000  0.5224230000000  0.4780500000000 1.0
C      1  0.5028660000000  0.5070040000000  0.4353430000000 1.0
C      1  0.4689660000000  0.4925820000000  0.4683980000000 1.0
C      1  0.4992180000000  0.5095800000000  0.5806280000000 1.0
C      1  0.5415060000000  0.4690570000000  0.5285980000000 1.0
C      1  0.5479710000000  0.5237410000000  0.5087330000000 1.0
C      1  0.4858980000000  0.5931020000000  0.4549140000000 1.0
C      1  0.6063350000000  0.4924820000000  0.5390230000000 1.0
C      1  0.4895020000000  0.4523970000000  0.6097100000000 1.0
C      1  0.4969850000000  0.4961870000000  0.5303360000000 1.0
C      1  0.4414280000000  0.5527710000000  0.4193860000000 1.0
C      1  0.5287120000000  0.5162110000000  0.5721610000000 1.0
C      1  0.5067610000000  0.4055490000000  0.5688300000000 1.0
C      1  0.4670040000000  0.5720820000000  0.5442920000000 1.0
C      1  0.4307450000000  0.4670020000000  0.3964510000000 1.0
C      1  0.4108570000000  0.4636600000000  0.5306360000000 1.0
C      1  0.5226980000000  0.5291000000000  0.5323930000000 1.0
C      1  0.5789640000000  0.4505390000000  0.4811920000000 1.0
C      1  0.5311340000000  0.4790550000000  0.5582900000000 1.0
C      1  0.4353680000000  0.5424830000000  0.5349150000000 1.0
C      1  0.4682960000000  0.4420660000000  0.5862890000000 1.0
C      1  0.4260440000000  0.4178840000000  0.5047140000000 1.0
C      1  0.5005170000000  0.4776860000000  0.5549100000000 1.0
C      1  0.5213130000000  0.4091640000000  0.5405120000000 1.0
C      1  0.5843420000000  0.4413100000000  0.5089570000000 1.0
C      1  0.4547060000000  0.4894140000000  0.4313430000000 1.0
C      1  0.5421400000000  0.5572750000000  0.5701760000000 1.0
C      1  0.5934620000000  0.4802710000000  0.5036310000000 1.0
C      1  0.5223690000000  0.4354590000000  0.5186430000000 1.0
C      1  0.5940180000000  0.5188400000000  0.4930830000000 1.0
C      1  0.5616790000000  0.4366360000000  0.4382260000000 1.0
C      1  0.4758390000000  0.6080040000000  0.5293210000000 1.0
END
