TITL C-2778422-5617-673 0.000634927750516218 125000 -447.857053050776 0 0 78 (C1) n - 1
REM
REM in /home/nfs/bkarasulu/CARBON/AIRSS/Generating-Clusters/REBO/Only-C1/SD-CG/HFTN-CG
REM
REM
REM
REM
REM
REM ./C.cell (11c1c37f851c82e70ff6c80c92926a4b)
REM
REM compiler GCC version 9.2.1 20190827 (Red Hat 9.2.1-1)
REM options -cpp -mtune=generic -march=x86-64 -g -O0 -fpre-include=/usr/include/finclude/math-vector-fortran.h
REM seed 1866612219 1837191861 -1690965816 207470351 -1402590152 -300632839 1843866741 -1984523221 59320643 1946120755 -637007563 -572686389 -441658378 -929933772 -1818217933 -1575525713 1855911889 -1111340233 -1732370980 -871112085 -729378171 -1925042641 1942019573 -119855728 1808741135 -461790270 794552329 -2075461047 550940072 102300598 -1957067225 341964038 1341030265
REM
CELL 1.54180   50.00000   50.00000   50.00000   90.00000   90.00000   90.00000
LATT -1
SFAC C  
C      1  0.4654250000000  0.4830600000000  0.4908170000000 1.0
C      1  0.5145660000000  0.4323300000000  0.4730050000000 1.0
C      1  0.5056880000000  0.5785200000000  0.5208430000000 1.0
C      1  0.4206240000000  0.5255580000000  0.4694700000000 1.0
C      1  0.4332330000000  0.4742860000000  0.4982020000000 1.0
C      1  0.5776450000000  0.4441210000000  0.4481730000000 1.0
C      1  0.4963500000000  0.5422590000000  0.5620480000000 1.0
C      1  0.4912410000000  0.4418230000000  0.4584280000000 1.0
C      1  0.5472140000000  0.5407170000000  0.5411020000000 1.0
C      1  0.4288720000000  0.4817540000000  0.5371290000000 1.0
C      1  0.5202200000000  0.4593190000000  0.4235030000000 1.0
C      1  0.5603180000000  0.5183100000000  0.4456900000000 1.0
C      1  0.4538540000000  0.4624790000000  0.5462680000000 1.0
C      1  0.5552110000000  0.4581620000000  0.4560730000000 1.0
C      1  0.4816420000000  0.4793310000000  0.5367590000000 1.0
C      1  0.4693240000000  0.5049470000000  0.5246810000000 1.0
C      1  0.4456120000000  0.4704490000000  0.4665500000000 1.0
C      1  0.4808850000000  0.5498910000000  0.4604830000000 1.0
C      1  0.4919370000000  0.5579530000000  0.5385030000000 1.0
C      1  0.4026890000000  0.5299520000000  0.4517420000000 1.0
C      1  0.4569610000000  0.5814390000000  0.5006210000000 1.0
C      1  0.4591130000000  0.5039300000000  0.5766520000000 1.0
C      1  0.4681510000000  0.4465730000000  0.4746690000000 1.0
C      1  0.5587260000000  0.5199710000000  0.5559420000000 1.0
C      1  0.5448860000000  0.4553120000000  0.4841270000000 1.0
C      1  0.5364910000000  0.4800550000000  0.5775720000000 1.0
C      1  0.5425670000000  0.4218790000000  0.4894840000000 1.0
C      1  0.4810600000000  0.4857170000000  0.4339920000000 1.0
C      1  0.5287040000000  0.5535150000000  0.5234570000000 1.0
C      1  0.4686380000000  0.5334510000000  0.4365450000000 1.0
C      1  0.4372130000000  0.5028390000000  0.5159550000000 1.0
C      1  0.4729240000000  0.5444630000000  0.5217280000000 1.0
C      1  0.5275350000000  0.5505120000000  0.4359500000000 1.0
C      1  0.5161930000000  0.5246930000000  0.4308240000000 1.0
C      1  0.4898650000000  0.5170950000000  0.4238960000000 1.0
C      1  0.4510920000000  0.4883770000000  0.4422270000000 1.0
C      1  0.4872940000000  0.5216470000000  0.5042900000000 1.0
C      1  0.4979590000000  0.4988320000000  0.4582810000000 1.0
C      1  0.5509430000000  0.5468400000000  0.4533670000000 1.0
C      1  0.4496900000000  0.5546910000000  0.5092450000000 1.0
C      1  0.5312160000000  0.5012440000000  0.4507780000000 1.0
C      1  0.5112740000000  0.4708900000000  0.5275260000000 1.0
C      1  0.5465200000000  0.4917470000000  0.5267220000000 1.0
C      1  0.4977910000000  0.5634950000000  0.4804340000000 1.0
C      1  0.5003210000000  0.4751810000000  0.5807280000000 1.0
C      1  0.4940810000000  0.4577500000000  0.4342710000000 1.0
C      1  0.4450480000000  0.5159350000000  0.4393050000000 1.0
C      1  0.4985680000000  0.4367020000000  0.5444030000000 1.0
C      1  0.4860580000000  0.5856780000000  0.4972420000000 1.0
C      1  0.4462850000000  0.4519530000000  0.5169260000000 1.0
C      1  0.5686430000000  0.4721200000000  0.5424330000000 1.0
C      1  0.5791310000000  0.5292920000000  0.4958480000000 1.0
C      1  0.4326460000000  0.5308960000000  0.5000500000000 1.0
C      1  0.4784160000000  0.5208670000000  0.4731780000000 1.0
C      1  0.4922590000000  0.4371850000000  0.5177420000000 1.0
C      1  0.5602810000000  0.4917800000000  0.5641250000000 1.0
C      1  0.5257830000000  0.5072590000000  0.5372660000000 1.0
C      1  0.5614700000000  0.4219990000000  0.5129270000000 1.0
C      1  0.5391520000000  0.4732460000000  0.4390520000000 1.0
C      1  0.5712860000000  0.4471640000000  0.5235540000000 1.0
C      1  0.5100600000000  0.5446050000000  0.5001210000000 1.0
C      1  0.5180240000000  0.4589030000000  0.5583870000000 1.0
C      1  0.5158790000000  0.5037250000000  0.5839540000000 1.0
C      1  0.4680220000000  0.4400340000000  0.5029690000000 1.0
C      1  0.4489500000000  0.5102660000000  0.4786200000000 1.0
C      1  0.5377960000000  0.5028250000000  0.4843470000000 1.0
C      1  0.5154350000000  0.5208380000000  0.5607960000000 1.0
C      1  0.5182980000000  0.5743310000000  0.4270630000000 1.0
C      1  0.4725870000000  0.4778940000000  0.5693130000000 1.0
C      1  0.5612280000000  0.4713630000000  0.5036230000000 1.0
C      1  0.4714720000000  0.5331370000000  0.5724610000000 1.0
C      1  0.5165230000000  0.4485660000000  0.5019850000000 1.0
C      1  0.4517690000000  0.5209580000000  0.5484300000000 1.0
C      1  0.4938580000000  0.4866420000000  0.4861310000000 1.0
C      1  0.4279910000000  0.5326850000000  0.5409370000000 1.0
C      1  0.5165280000000  0.4882820000000  0.5007410000000 1.0
C      1  0.5691140000000  0.5015370000000  0.4959860000000 1.0
C      1  0.5516770000000  0.5339780000000  0.4813300000000 1.0
END
