TITL C-2778429-3646-317 -0.000143893168768352 125000 -753.801602374706 0 0 129 (C1) n - 1
REM
REM in /home/nfs/bkarasulu/CARBON/AIRSS/Generating-Clusters/REBO/Only-C1/SD-CG/HFTN-CG
REM
REM
REM
REM
REM
REM ./C.cell (11c1c37f851c82e70ff6c80c92926a4b)
REM
REM compiler GCC version 9.2.1 20190827 (Red Hat 9.2.1-1)
REM options -cpp -mtune=generic -march=x86-64 -g -O0 -fpre-include=/usr/include/finclude/math-vector-fortran.h
REM seed -1523203298 -439813602 -787999259 -1405014357 -155953038 331685899 1503035627 -979169797 2025058095 -535853567 -1537992133 331971472 -130753480 725657302 -439434331 -28083462 -1831426738 -1184501478 -149541937 1334078823 2092901570 -1582874896 -1880157792 -1537043302 -14164886 1853577782 451704034 1357143259 -191467514 -569359308 1663339476 -102460677 496636851
REM
CELL 1.54180   50.00000   50.00000   50.00000   90.00000   90.00000   90.00000
LATT -1
SFAC C  
C      1  0.5013480000000  0.5717070000000  0.4278670000000 1.0
C      1  0.4289210000000  0.4889990000000  0.4366710000000 1.0
C      1  0.4541510000000  0.5384400000000  0.5499640000000 1.0
C      1  0.4339480000000  0.4358670000000  0.5011180000000 1.0
C      1  0.5299110000000  0.4641990000000  0.5891960000000 1.0
C      1  0.4687780000000  0.4707130000000  0.5800260000000 1.0
C      1  0.5672830000000  0.5151700000000  0.5152020000000 1.0
C      1  0.5192180000000  0.4446200000000  0.5391180000000 1.0
C      1  0.4527740000000  0.5458800000000  0.4984270000000 1.0
C      1  0.4767880000000  0.4554710000000  0.4173660000000 1.0
C      1  0.5334120000000  0.4683940000000  0.5250730000000 1.0
C      1  0.4781880000000  0.5094870000000  0.5678130000000 1.0
C      1  0.5284810000000  0.5784550000000  0.5167430000000 1.0
C      1  0.4155810000000  0.4588470000000  0.5117220000000 1.0
C      1  0.5400180000000  0.4259370000000  0.5582970000000 1.0
C      1  0.4987860000000  0.5489230000000  0.5289920000000 1.0
C      1  0.5153300000000  0.4139990000000  0.5266440000000 1.0
C      1  0.4175770000000  0.5112880000000  0.4524780000000 1.0
C      1  0.4850860000000  0.5500520000000  0.4102180000000 1.0
C      1  0.5522450000000  0.4962140000000  0.5805950000000 1.0
C      1  0.4992650000000  0.4466180000000  0.4793040000000 1.0
C      1  0.6056440000000  0.4793730000000  0.4708130000000 1.0
C      1  0.4257390000000  0.5264020000000  0.5455970000000 1.0
C      1  0.4258730000000  0.4749700000000  0.4668920000000 1.0
C      1  0.5670400000000  0.4940000000000  0.5576470000000 1.0
C      1  0.5285440000000  0.5505620000000  0.4244590000000 1.0
C      1  0.4853600000000  0.4883590000000  0.5429440000000 1.0
C      1  0.5302300000000  0.4793470000000  0.4577050000000 1.0
C      1  0.5740030000000  0.5024040000000  0.4629770000000 1.0
C      1  0.4764280000000  0.4272100000000  0.4370550000000 1.0
C      1  0.5518140000000  0.4540190000000  0.5840650000000 1.0
C      1  0.5090180000000  0.4268620000000  0.4437510000000 1.0
C      1  0.5572300000000  0.4509910000000  0.4361980000000 1.0
C      1  0.4983020000000  0.4777450000000  0.4929010000000 1.0
C      1  0.5544770000000  0.5646320000000  0.5006770000000 1.0
C      1  0.5638190000000  0.4843240000000  0.4896450000000 1.0
C      1  0.5056030000000  0.5365140000000  0.4692970000000 1.0
C      1  0.5068630000000  0.4953760000000  0.4673430000000 1.0
C      1  0.5606800000000  0.4319170000000  0.5002570000000 1.0
C      1  0.5174210000000  0.5603980000000  0.4539920000000 1.0
C      1  0.5025380000000  0.4753840000000  0.5766240000000 1.0
C      1  0.5131740000000  0.4109970000000  0.5599110000000 1.0
C      1  0.4925720000000  0.5422860000000  0.4969360000000 1.0
C      1  0.5294220000000  0.4535060000000  0.4730410000000 1.0
C      1  0.5540080000000  0.5465410000000  0.4467670000000 1.0
C      1  0.4628960000000  0.5114190000000  0.5312510000000 1.0
C      1  0.5079790000000  0.5709860000000  0.5497490000000 1.0
C      1  0.5672080000000  0.4410650000000  0.5578570000000 1.0
C      1  0.4542260000000  0.4533130000000  0.5198110000000 1.0
C      1  0.4496590000000  0.4199610000000  0.4833040000000 1.0
C      1  0.5522830000000  0.5654130000000  0.5338480000000 1.0
C      1  0.4638720000000  0.5514630000000  0.5763330000000 1.0
C      1  0.5437340000000  0.5433720000000  0.4785160000000 1.0
C      1  0.4258510000000  0.5619790000000  0.5067740000000 1.0
C      1  0.4820980000000  0.5312760000000  0.5937700000000 1.0
C      1  0.5760670000000  0.4425840000000  0.5256260000000 1.0
C      1  0.4372020000000  0.4999390000000  0.5181780000000 1.0
C      1  0.4739220000000  0.4103440000000  0.4959120000000 1.0
C      1  0.5026880000000  0.5546250000000  0.5850260000000 1.0
C      1  0.4964980000000  0.4168320000000  0.4803240000000 1.0
C      1  0.4522710000000  0.5776320000000  0.5576400000000 1.0
C      1  0.4690890000000  0.4268400000000  0.5456710000000 1.0
C      1  0.4831150000000  0.5806630000000  0.4552020000000 1.0
C      1  0.5623110000000  0.4697080000000  0.5409480000000 1.0
C      1  0.4942210000000  0.4569900000000  0.5526800000000 1.0
C      1  0.5687070000000  0.5212130000000  0.4395560000000 1.0
C      1  0.4768110000000  0.5834400000000  0.5208950000000 1.0
C      1  0.4383730000000  0.4524130000000  0.4485940000000 1.0
C      1  0.5376230000000  0.4239840000000  0.4578760000000 1.0
C      1  0.4247420000000  0.5036710000000  0.5609620000000 1.0
C      1  0.4481870000000  0.4938410000000  0.5697530000000 1.0
C      1  0.5662310000000  0.4393970000000  0.4674970000000 1.0
C      1  0.5011880000000  0.5326250000000  0.5587710000000 1.0
C      1  0.5044130000000  0.5027170000000  0.4121570000000 1.0
C      1  0.4773300000000  0.5083440000000  0.4783870000000 1.0
C      1  0.5316730000000  0.5598780000000  0.5679050000000 1.0
C      1  0.5365530000000  0.4106800000000  0.5047070000000 1.0
C      1  0.5010750000000  0.4577450000000  0.4411240000000 1.0
C      1  0.5064470000000  0.4718890000000  0.4118920000000 1.0
C      1  0.4069160000000  0.4785370000000  0.4923540000000 1.0
C      1  0.5356720000000  0.5815100000000  0.4696570000000 1.0
C      1  0.4681720000000  0.4661540000000  0.4949020000000 1.0
C      1  0.5377980000000  0.5152490000000  0.5167210000000 1.0
C      1  0.5536190000000  0.5416330000000  0.5538630000000 1.0
C      1  0.5642270000000  0.5736280000000  0.4632200000000 1.0
C      1  0.4148370000000  0.5108650000000  0.4852890000000 1.0
C      1  0.4534030000000  0.4292230000000  0.4556190000000 1.0
C      1  0.5528930000000  0.5081990000000  0.4178710000000 1.0
C      1  0.5784510000000  0.4690310000000  0.4559690000000 1.0
C      1  0.4663930000000  0.4924290000000  0.4502370000000 1.0
C      1  0.4743170000000  0.5670170000000  0.4847010000000 1.0
C      1  0.4873730000000  0.5118360000000  0.5106940000000 1.0
C      1  0.5453830000000  0.4889360000000  0.4385070000000 1.0
C      1  0.6077960000000  0.5006840000000  0.4841410000000 1.0
C      1  0.4354940000000  0.5740930000000  0.4761510000000 1.0
C      1  0.4937760000000  0.5084190000000  0.4419480000000 1.0
C      1  0.5811830000000  0.5527190000000  0.4840260000000 1.0
C      1  0.4904990000000  0.4268210000000  0.5670150000000 1.0
C      1  0.5267780000000  0.5226480000000  0.4920790000000 1.0
C      1  0.4197640000000  0.5291590000000  0.5135310000000 1.0
C      1  0.5288890000000  0.5187280000000  0.5494070000000 1.0
C      1  0.4569160000000  0.5153090000000  0.4282810000000 1.0
C      1  0.4671090000000  0.5512280000000  0.5260130000000 1.0
C      1  0.4865890000000  0.5377910000000  0.4424500000000 1.0
C      1  0.4537320000000  0.5432990000000  0.4413850000000 1.0
C      1  0.5093440000000  0.4874870000000  0.5200140000000 1.0
C      1  0.4979250000000  0.5056550000000  0.6022530000000 1.0
C      1  0.4543930000000  0.4556330000000  0.5538400000000 1.0
C      1  0.4835340000000  0.5785740000000  0.5698380000000 1.0
C      1  0.4479660000000  0.5202710000000  0.4856980000000 1.0
C      1  0.5474590000000  0.4619500000000  0.4975350000000 1.0
C      1  0.4772860000000  0.5202850000000  0.4076930000000 1.0
C      1  0.5042450000000  0.5869050000000  0.5067800000000 1.0
C      1  0.5714240000000  0.5177860000000  0.5436970000000 1.0
C      1  0.4488060000000  0.4674650000000  0.4237200000000 1.0
C      1  0.5231840000000  0.4065450000000  0.4795430000000 1.0
C      1  0.4510630000000  0.5691010000000  0.4525600000000 1.0
C      1  0.5830800000000  0.5215560000000  0.4897990000000 1.0
C      1  0.4814200000000  0.4135250000000  0.5231830000000 1.0
C      1  0.4423140000000  0.5821350000000  0.5289500000000 1.0
C      1  0.5063820000000  0.5898270000000  0.4782960000000 1.0
C      1  0.5349740000000  0.4551150000000  0.4201020000000 1.0
C      1  0.4529350000000  0.5899800000000  0.4985350000000 1.0
C      1  0.4316200000000  0.4733540000000  0.5358430000000 1.0
C      1  0.5210940000000  0.5020600000000  0.5781770000000 1.0
C      1  0.5292410000000  0.5223620000000  0.4095660000000 1.0
C      1  0.4458500000000  0.4864240000000  0.4892270000000 1.0
C      1  0.4804830000000  0.4839510000000  0.6083810000000 1.0
C      1  0.4765680000000  0.4652720000000  0.4619160000000 1.0
END
