TITL C-2778425-5191-758 -0.00151940207566163 125000 -434.638634982666 0 0 74 (C1) n - 1
REM
REM in /home/nfs/bkarasulu/CARBON/AIRSS/Generating-Clusters/REBO/Only-C1/SD-CG/HFTN-CG
REM
REM
REM
REM
REM
REM ./C.cell (11c1c37f851c82e70ff6c80c92926a4b)
REM
REM compiler GCC version 9.2.1 20190827 (Red Hat 9.2.1-1)
REM options -cpp -mtune=generic -march=x86-64 -g -O0 -fpre-include=/usr/include/finclude/math-vector-fortran.h
REM seed 104635612 -466981065 151355266 -620444967 -679339939 792258042 1554308419 -1442338664 -1257721430 395801450 1624960858 589292603 746266880 -1663210729 1352076527 -1211728472 896336904 1903189214 -1640954680 -71738271 1721473849 1086267345 363650611 551145542 -1711436635 -389490179 -399951094 -1029629291 -1140987915 -1786057700 -837325536 -252377725 -1765495778
REM
CELL 1.54180   50.00000   50.00000   50.00000   90.00000   90.00000   90.00000
LATT -1
SFAC C  
C      1  0.4773580000000  0.4487290000000  0.4756130000000 1.0
C      1  0.5579790000000  0.4377760000000  0.5006440000000 1.0
C      1  0.5223560000000  0.4869090000000  0.5937580000000 1.0
C      1  0.5418690000000  0.4435500000000  0.5478540000000 1.0
C      1  0.4660200000000  0.4572750000000  0.4150380000000 1.0
C      1  0.4283480000000  0.4789590000000  0.4707050000000 1.0
C      1  0.4637420000000  0.4723420000000  0.4378230000000 1.0
C      1  0.5102410000000  0.5101160000000  0.5777290000000 1.0
C      1  0.5280230000000  0.5838030000000  0.4383270000000 1.0
C      1  0.5153230000000  0.4733800000000  0.4525290000000 1.0
C      1  0.5390500000000  0.5373580000000  0.4631110000000 1.0
C      1  0.4536820000000  0.5329200000000  0.4689180000000 1.0
C      1  0.5631270000000  0.4790510000000  0.5219550000000 1.0
C      1  0.5227820000000  0.5091470000000  0.5472870000000 1.0
C      1  0.4976010000000  0.5675480000000  0.5480840000000 1.0
C      1  0.4681970000000  0.4428690000000  0.3932540000000 1.0
C      1  0.4757260000000  0.5199270000000  0.4279360000000 1.0
C      1  0.4640500000000  0.5551330000000  0.5124070000000 1.0
C      1  0.5491520000000  0.5528620000000  0.5548740000000 1.0
C      1  0.5580630000000  0.5267650000000  0.5642230000000 1.0
C      1  0.5696670000000  0.5565440000000  0.4980870000000 1.0
C      1  0.4508600000000  0.5136980000000  0.4935540000000 1.0
C      1  0.4691810000000  0.5541770000000  0.4827180000000 1.0
C      1  0.4786140000000  0.5026490000000  0.4772710000000 1.0
C      1  0.5613190000000  0.5010000000000  0.5419480000000 1.0
C      1  0.4313590000000  0.4583720000000  0.5178880000000 1.0
C      1  0.4265690000000  0.4972460000000  0.4924690000000 1.0
C      1  0.5330790000000  0.4611730000000  0.5745250000000 1.0
C      1  0.4528130000000  0.5176190000000  0.4449910000000 1.0
C      1  0.4843950000000  0.4753620000000  0.4608430000000 1.0
C      1  0.4978510000000  0.5492990000000  0.4791630000000 1.0
C      1  0.5434580000000  0.5249390000000  0.5270710000000 1.0
C      1  0.4577500000000  0.4599010000000  0.5311050000000 1.0
C      1  0.4865940000000  0.4563650000000  0.5447060000000 1.0
C      1  0.5596000000000  0.5543080000000  0.5260480000000 1.0
C      1  0.4560340000000  0.5285860000000  0.5191600000000 1.0
C      1  0.5144220000000  0.5729340000000  0.4835870000000 1.0
C      1  0.5232720000000  0.4984410000000  0.4383610000000 1.0
C      1  0.4109690000000  0.4347760000000  0.5063130000000 1.0
C      1  0.4513060000000  0.4080140000000  0.4693770000000 1.0
C      1  0.4851870000000  0.5985120000000  0.5130080000000 1.0
C      1  0.5765690000000  0.5316680000000  0.4845780000000 1.0
C      1  0.5064690000000  0.4920260000000  0.5269300000000 1.0
C      1  0.5223780000000  0.5622610000000  0.5580280000000 1.0
C      1  0.5018630000000  0.5123220000000  0.4261650000000 1.0
C      1  0.4181390000000  0.4859570000000  0.5169950000000 1.0
C      1  0.5135440000000  0.4628890000000  0.4848570000000 1.0
C      1  0.5017940000000  0.5971880000000  0.4910210000000 1.0
C      1  0.5235730000000  0.5035320000000  0.4998470000000 1.0
C      1  0.4763920000000  0.4878640000000  0.5363970000000 1.0
C      1  0.4037500000000  0.4970790000000  0.5375310000000 1.0
C      1  0.5439660000000  0.4914880000000  0.5679390000000 1.0
C      1  0.5638680000000  0.5080550000000  0.4740870000000 1.0
C      1  0.4643310000000  0.5245100000000  0.5671490000000 1.0
C      1  0.4423620000000  0.4896970000000  0.4475280000000 1.0
C      1  0.4543830000000  0.4346120000000  0.4759990000000 1.0
C      1  0.5404650000000  0.5658300000000  0.4908280000000 1.0
C      1  0.5023400000000  0.5201000000000  0.4816590000000 1.0
C      1  0.5453900000000  0.5117020000000  0.4498590000000 1.0
C      1  0.5529040000000  0.4576330000000  0.4807300000000 1.0
C      1  0.5129590000000  0.4661930000000  0.5091080000000 1.0
C      1  0.5587230000000  0.4110190000000  0.4967180000000 1.0
C      1  0.5397920000000  0.4535180000000  0.4563850000000 1.0
C      1  0.4791240000000  0.5746130000000  0.5275830000000 1.0
C      1  0.5376480000000  0.5329000000000  0.4954100000000 1.0
C      1  0.5437680000000  0.4329770000000  0.4384290000000 1.0
C      1  0.5333960000000  0.5611730000000  0.4504030000000 1.0
C      1  0.4619780000000  0.5134870000000  0.5414920000000 1.0
C      1  0.4308570000000  0.4506430000000  0.4846290000000 1.0
C      1  0.5103320000000  0.4478450000000  0.5539400000000 1.0
C      1  0.5518640000000  0.4868210000000  0.4934570000000 1.0
C      1  0.4866020000000  0.5239240000000  0.5828550000000 1.0
C      1  0.5585210000000  0.4510130000000  0.5264280000000 1.0
C      1  0.3929660000000  0.4171270000000  0.5107740000000 1.0
END
