TITL C-2778422-5617-694 -0.0392909609619413 125000 -222.375740193615 0 0 40 (C1) n - 1
REM
REM in /home/nfs/bkarasulu/CARBON/AIRSS/Generating-Clusters/REBO/Only-C1/SD-CG/HFTN-CG
REM
REM
REM
REM
REM
REM ./C.cell (11c1c37f851c82e70ff6c80c92926a4b)
REM
REM compiler GCC version 9.2.1 20190827 (Red Hat 9.2.1-1)
REM options -cpp -mtune=generic -march=x86-64 -g -O0 -fpre-include=/usr/include/finclude/math-vector-fortran.h
REM seed -249258928 106433071 -1768480005 2075608785 1562997031 1636837115 -425071628 -1016502756 -1854920784 72952732 -1416367708 -698001235 391066843 -1013129674 -1219590143 -95317449 1339482421 1021219897 577294342 1185874097 88192229 1691252478 -534271484 -1909020634 -83572043 1475996328 2119375527 1946260113 -839696242 -232227304 1266121337 1854165375 892202700
REM
CELL 1.54180   50.00000   50.00000   50.00000   90.00000   90.00000   90.00000
LATT -1
SFAC C  
C      1  0.5143940000000  0.5366160000000  0.4981180000000 1.0
C      1  0.5039450000000  0.5394700000000  0.4464530000000 1.0
C      1  0.4717560000000  0.4279230000000  0.4864390000000 1.0
C      1  0.5291240000000  0.4383570000000  0.4768460000000 1.0
C      1  0.4601270000000  0.4998450000000  0.5144280000000 1.0
C      1  0.5329180000000  0.4677730000000  0.4633260000000 1.0
C      1  0.5270830000000  0.5429680000000  0.4708710000000 1.0
C      1  0.4841940000000  0.4843600000000  0.4580190000000 1.0
C      1  0.4493240000000  0.5462840000000  0.5359110000000 1.0
C      1  0.5063870000000  0.5564600000000  0.4243780000000 1.0
C      1  0.4946980000000  0.4683510000000  0.5322950000000 1.0
C      1  0.4912110000000  0.4687290000000  0.5635550000000 1.0
C      1  0.5028110000000  0.4347830000000  0.4930240000000 1.0
C      1  0.4849370000000  0.4983610000000  0.6027820000000 1.0
C      1  0.4756420000000  0.5362240000000  0.4571750000000 1.0
C      1  0.4785380000000  0.4543790000000  0.5069660000000 1.0
C      1  0.5441530000000  0.4515320000000  0.5114490000000 1.0
C      1  0.4876510000000  0.4932580000000  0.5758620000000 1.0
C      1  0.4623250000000  0.4779320000000  0.4908100000000 1.0
C      1  0.4869760000000  0.5157360000000  0.5552350000000 1.0
C      1  0.5523420000000  0.4276150000000  0.4931190000000 1.0
C      1  0.4915840000000  0.4994270000000  0.5276750000000 1.0
C      1  0.4589780000000  0.5197980000000  0.5376250000000 1.0
C      1  0.4968020000000  0.5151930000000  0.5007280000000 1.0
C      1  0.5044350000000  0.5403010000000  0.5563250000000 1.0
C      1  0.4666990000000  0.5677430000000  0.5350770000000 1.0
C      1  0.5551850000000  0.4928060000000  0.4705160000000 1.0
C      1  0.5341960000000  0.5381420000000  0.5466030000000 1.0
C      1  0.4519140000000  0.5335020000000  0.4661640000000 1.0
C      1  0.5196980000000  0.5521550000000  0.5216190000000 1.0
C      1  0.5483710000000  0.4736980000000  0.4940320000000 1.0
C      1  0.5206250000000  0.5126270000000  0.4458420000000 1.0
C      1  0.4812390000000  0.5037930000000  0.4808610000000 1.0
C      1  0.4611550000000  0.4642870000000  0.4600880000000 1.0
C      1  0.5405690000000  0.5677020000000  0.4700980000000 1.0
C      1  0.5161650000000  0.4491610000000  0.5190460000000 1.0
C      1  0.4602450000000  0.4360590000000  0.4627600000000 1.0
C      1  0.5459130000000  0.5171070000000  0.4611050000000 1.0
C      1  0.5112900000000  0.4857710000000  0.4488100000000 1.0
C      1  0.4944010000000  0.5637740000000  0.5379630000000 1.0
END
