TITL C-2778427-5640-133 0.00188164511201206 125000 -791.88274554364 0 0 135 (C1) n - 1
REM
REM in /home/nfs/bkarasulu/CARBON/AIRSS/Generating-Clusters/REBO/Only-C1/SD-CG/HFTN-CG
REM
REM
REM
REM
REM
REM ./C.cell (11c1c37f851c82e70ff6c80c92926a4b)
REM
REM compiler GCC version 9.2.1 20190827 (Red Hat 9.2.1-1)
REM options -cpp -mtune=generic -march=x86-64 -g -O0 -fpre-include=/usr/include/finclude/math-vector-fortran.h
REM seed 1853556200 -1214967174 939618121 901790937 -1129017351 -236637056 -1401289369 -450159354 -754420635 695601791 -1754898206 1473352689 371010604 559100390 -1463814415 1564336209 -614960808 100478568 1648089101 -986637025 2110217570 -1867077681 1130044804 -1552778869 -2087073540 -168990448 540214633 927425774 711612921 988133716 -329177333 -568520335 1585032249
REM
CELL 1.54180   50.00000   50.00000   50.00000   90.00000   90.00000   90.00000
LATT -1
SFAC C  
C      1  0.4820670000000  0.4732570000000  0.4312020000000 1.0
C      1  0.4867110000000  0.4043410000000  0.4742850000000 1.0
C      1  0.5650410000000  0.4839710000000  0.5738530000000 1.0
C      1  0.5472240000000  0.5301960000000  0.4976860000000 1.0
C      1  0.5078920000000  0.5731780000000  0.5624910000000 1.0
C      1  0.5568030000000  0.5103080000000  0.5623130000000 1.0
C      1  0.5579340000000  0.5473790000000  0.5760210000000 1.0
C      1  0.4727410000000  0.4787370000000  0.5560670000000 1.0
C      1  0.5705870000000  0.5378190000000  0.5476130000000 1.0
C      1  0.4584580000000  0.4056380000000  0.5279510000000 1.0
C      1  0.4268540000000  0.5579080000000  0.4577490000000 1.0
C      1  0.4829250000000  0.5081160000000  0.5187330000000 1.0
C      1  0.4409550000000  0.4804140000000  0.4516550000000 1.0
C      1  0.4983620000000  0.5513160000000  0.4221660000000 1.0
C      1  0.4538740000000  0.4300100000000  0.4494670000000 1.0
C      1  0.5001610000000  0.4900510000000  0.4532790000000 1.0
C      1  0.5581470000000  0.5790950000000  0.4648490000000 1.0
C      1  0.5352530000000  0.5811220000000  0.4396910000000 1.0
C      1  0.5114980000000  0.5864900000000  0.5361240000000 1.0
C      1  0.4406050000000  0.5066300000000  0.4357810000000 1.0
C      1  0.5314010000000  0.5281610000000  0.5762380000000 1.0
C      1  0.4229400000000  0.5228050000000  0.5014090000000 1.0
C      1  0.5700690000000  0.5123150000000  0.5248430000000 1.0
C      1  0.4842080000000  0.5281050000000  0.5655730000000 1.0
C      1  0.5257930000000  0.4539960000000  0.4754500000000 1.0
C      1  0.5321500000000  0.4303550000000  0.5321050000000 1.0
C      1  0.4260120000000  0.5216720000000  0.5721550000000 1.0
C      1  0.4974920000000  0.4638800000000  0.6048630000000 1.0
C      1  0.4320330000000  0.4278800000000  0.5290030000000 1.0
C      1  0.5808790000000  0.5596960000000  0.4689570000000 1.0
C      1  0.5138060000000  0.5397800000000  0.4722410000000 1.0
C      1  0.4339090000000  0.5624140000000  0.5333870000000 1.0
C      1  0.5124510000000  0.4692660000000  0.4055320000000 1.0
C      1  0.4254710000000  0.5499670000000  0.5582410000000 1.0
C      1  0.5383420000000  0.4818560000000  0.4615060000000 1.0
C      1  0.5199180000000  0.5443740000000  0.5261890000000 1.0
C      1  0.4644590000000  0.4935080000000  0.3969270000000 1.0
C      1  0.4927480000000  0.4822060000000  0.3871420000000 1.0
C      1  0.5737000000000  0.4551960000000  0.5641720000000 1.0
C      1  0.5039780000000  0.5849910000000  0.5856320000000 1.0
C      1  0.4815920000000  0.4393120000000  0.4336980000000 1.0
C      1  0.4755100000000  0.4536040000000  0.5873480000000 1.0
C      1  0.5666810000000  0.4823830000000  0.5339930000000 1.0
C      1  0.5397190000000  0.4734590000000  0.5451970000000 1.0
C      1  0.4239280000000  0.5300880000000  0.4520490000000 1.0
C      1  0.4134620000000  0.5150220000000  0.4744620000000 1.0
C      1  0.4238230000000  0.4584950000000  0.5232300000000 1.0
C      1  0.5055690000000  0.5759880000000  0.4365220000000 1.0
C      1  0.4180050000000  0.4648850000000  0.4932310000000 1.0
C      1  0.4698020000000  0.4726220000000  0.4915140000000 1.0
C      1  0.5390090000000  0.4089800000000  0.5064920000000 1.0
C      1  0.4737940000000  0.5562130000000  0.4974990000000 1.0
C      1  0.5213010000000  0.4741380000000  0.5180050000000 1.0
C      1  0.5243770000000  0.4858650000000  0.4318880000000 1.0
C      1  0.4509960000000  0.5329260000000  0.5002420000000 1.0
C      1  0.5680820000000  0.4520800000000  0.4887370000000 1.0
C      1  0.5033730000000  0.4203990000000  0.5474120000000 1.0
C      1  0.4911640000000  0.5014510000000  0.4160270000000 1.0
C      1  0.4888530000000  0.4383110000000  0.4668270000000 1.0
C      1  0.4892730000000  0.4020330000000  0.5291560000000 1.0
C      1  0.5271690000000  0.5656350000000  0.4685290000000 1.0
C      1  0.5112020000000  0.4467870000000  0.4243770000000 1.0
C      1  0.5324780000000  0.4471150000000  0.4427820000000 1.0
C      1  0.4694380000000  0.5353540000000  0.5954070000000 1.0
C      1  0.4319440000000  0.4894530000000  0.4812940000000 1.0
C      1  0.4866350000000  0.5857370000000  0.4850690000000 1.0
C      1  0.5379440000000  0.5187640000000  0.5348770000000 1.0
C      1  0.5109320000000  0.5224700000000  0.4230860000000 1.0
C      1  0.4609920000000  0.5683370000000  0.5270770000000 1.0
C      1  0.4717240000000  0.4557760000000  0.5371560000000 1.0
C      1  0.4204660000000  0.5072650000000  0.5247520000000 1.0
C      1  0.5017760000000  0.5388700000000  0.5021050000000 1.0
C      1  0.4530820000000  0.4769530000000  0.5810890000000 1.0
C      1  0.5386110000000  0.5859250000000  0.4919240000000 1.0
C      1  0.5703400000000  0.4705780000000  0.4602190000000 1.0
C      1  0.4405960000000  0.5156860000000  0.5448370000000 1.0
C      1  0.4581610000000  0.4135780000000  0.4724860000000 1.0
C      1  0.5364540000000  0.5078320000000  0.4803750000000 1.0
C      1  0.4170350000000  0.5649580000000  0.5104570000000 1.0
C      1  0.4832380000000  0.4331480000000  0.5678370000000 1.0
C      1  0.4975930000000  0.5073980000000  0.4892250000000 1.0
C      1  0.5296200000000  0.5214790000000  0.4499880000000 1.0
C      1  0.5395880000000  0.5080340000000  0.4127490000000 1.0
C      1  0.4907810000000  0.5185670000000  0.4587910000000 1.0
C      1  0.5388040000000  0.4668440000000  0.5788770000000 1.0
C      1  0.4525020000000  0.5762860000000  0.4458570000000 1.0
C      1  0.4633380000000  0.5242980000000  0.4463880000000 1.0
C      1  0.5591660000000  0.5506310000000  0.5217260000000 1.0
C      1  0.5772240000000  0.5453720000000  0.4946790000000 1.0
C      1  0.5120710000000  0.5010090000000  0.5320270000000 1.0
C      1  0.4995470000000  0.4039050000000  0.5024860000000 1.0
C      1  0.4587170000000  0.5016330000000  0.4965950000000 1.0
C      1  0.4842040000000  0.5851240000000  0.4546340000000 1.0
C      1  0.4169050000000  0.5658410000000  0.4832150000000 1.0
C      1  0.5662560000000  0.5650420000000  0.5933330000000 1.0
C      1  0.5727350000000  0.5111220000000  0.4199830000000 1.0
C      1  0.5094870000000  0.5422790000000  0.5584980000000 1.0
C      1  0.4331860000000  0.4488900000000  0.4517100000000 1.0
C      1  0.5907000000000  0.4652040000000  0.5295140000000 1.0
C      1  0.5939890000000  0.5444250000000  0.4504340000000 1.0
C      1  0.5000080000000  0.4514150000000  0.5210620000000 1.0
C      1  0.4992290000000  0.4340190000000  0.4970600000000 1.0
C      1  0.5786220000000  0.4838510000000  0.4962720000000 1.0
C      1  0.4689120000000  0.4652640000000  0.4608170000000 1.0
C      1  0.4694370000000  0.5088220000000  0.5458010000000 1.0
C      1  0.4147770000000  0.4456590000000  0.4736880000000 1.0
C      1  0.5021060000000  0.4746810000000  0.4808750000000 1.0
C      1  0.4690300000000  0.5513450000000  0.4301560000000 1.0
C      1  0.5023000000000  0.4911080000000  0.5600550000000 1.0
C      1  0.5095220000000  0.4592210000000  0.5529500000000 1.0
C      1  0.4655000000000  0.5515300000000  0.4652360000000 1.0
C      1  0.5552680000000  0.5320330000000  0.4402890000000 1.0
C      1  0.5886160000000  0.4984580000000  0.4671920000000 1.0
C      1  0.5468880000000  0.4853340000000  0.5031870000000 1.0
C      1  0.5400720000000  0.4403890000000  0.4996950000000 1.0
C      1  0.5116660000000  0.5051630000000  0.5849610000000 1.0
C      1  0.5374830000000  0.5727110000000  0.5208690000000 1.0
C      1  0.4255880000000  0.4884190000000  0.5695460000000 1.0
C      1  0.5039240000000  0.4918520000000  0.6077670000000 1.0
C      1  0.5565160000000  0.4377470000000  0.5512910000000 1.0
C      1  0.5595580000000  0.4803600000000  0.4137970000000 1.0
C      1  0.4552730000000  0.4538310000000  0.5097810000000 1.0
C      1  0.5152430000000  0.4509750000000  0.5846640000000 1.0
C      1  0.4486080000000  0.4219400000000  0.4996410000000 1.0
C      1  0.4174420000000  0.5064640000000  0.3914200000000 1.0
C      1  0.4831260000000  0.5886080000000  0.5188780000000 1.0
C      1  0.4676340000000  0.5052630000000  0.5855640000000 1.0
C      1  0.4404500000000  0.5025450000000  0.4060690000000 1.0
C      1  0.4193000000000  0.4819930000000  0.5414970000000 1.0
C      1  0.5915630000000  0.4487740000000  0.5102150000000 1.0
C      1  0.5873850000000  0.5153870000000  0.4968380000000 1.0
C      1  0.5920980000000  0.5176030000000  0.4441300000000 1.0
C      1  0.5119380000000  0.5978230000000  0.5035910000000 1.0
C      1  0.5570500000000  0.4600310000000  0.4339610000000 1.0
C      1  0.4570730000000  0.4291300000000  0.5506680000000 1.0
END
