TITL C-2778424-3986-1149 -0.00517153483607186 125000 -764.232031061172 0 0 132 (C1) n - 1
REM
REM in /home/nfs/bkarasulu/CARBON/AIRSS/Generating-Clusters/REBO/Only-C1/SD-CG/HFTN-CG
REM
REM
REM
REM
REM
REM ./C.cell (11c1c37f851c82e70ff6c80c92926a4b)
REM
REM compiler GCC version 9.2.1 20190827 (Red Hat 9.2.1-1)
REM options -cpp -mtune=generic -march=x86-64 -g -O0 -fpre-include=/usr/include/finclude/math-vector-fortran.h
REM seed -183941073 681846717 -2132841610 -1230281325 1458199965 1581031269 717377102 184789520 -1627157521 -973797732 -1194876134 -605577254 -530432459 -740212052 785401010 1915943044 1324864997 -2014744722 1148433028 -545023170 -528974029 -485696171 1424387189 -844906305 -1688540927 1436331713 -785719756 -1265977307 -2145904297 -14536422 681028007 -743772772 -763370300
REM
CELL 1.54180   50.00000   50.00000   50.00000   90.00000   90.00000   90.00000
LATT -1
SFAC C  
C      1  0.4871890000000  0.4642780000000  0.4151890000000 1.0
C      1  0.4560790000000  0.4799990000000  0.4743270000000 1.0
C      1  0.5015690000000  0.3951590000000  0.4731100000000 1.0
C      1  0.5245600000000  0.5393520000000  0.5413110000000 1.0
C      1  0.5226990000000  0.3843590000000  0.4594870000000 1.0
C      1  0.5884650000000  0.4636710000000  0.5185020000000 1.0
C      1  0.5463900000000  0.4846140000000  0.5181630000000 1.0
C      1  0.5114690000000  0.5443410000000  0.4668630000000 1.0
C      1  0.4274770000000  0.5336430000000  0.5696080000000 1.0
C      1  0.4819410000000  0.5353710000000  0.5878670000000 1.0
C      1  0.5368050000000  0.4993700000000  0.4116220000000 1.0
C      1  0.4448090000000  0.4295240000000  0.5573330000000 1.0
C      1  0.5442230000000  0.4926320000000  0.4441430000000 1.0
C      1  0.5002000000000  0.4636400000000  0.4593140000000 1.0
C      1  0.5242480000000  0.5064360000000  0.4930370000000 1.0
C      1  0.5554760000000  0.4614620000000  0.5591970000000 1.0
C      1  0.4581210000000  0.5324090000000  0.4597560000000 1.0
C      1  0.5539070000000  0.5424400000000  0.4803170000000 1.0
C      1  0.4245020000000  0.4837140000000  0.4684780000000 1.0
C      1  0.4718870000000  0.4676950000000  0.4519600000000 1.0
C      1  0.4785390000000  0.4285970000000  0.4472880000000 1.0
C      1  0.4741780000000  0.5278390000000  0.5563920000000 1.0
C      1  0.5586950000000  0.5298390000000  0.4428400000000 1.0
C      1  0.4911240000000  0.4215200000000  0.4723070000000 1.0
C      1  0.5248000000000  0.4430300000000  0.4706210000000 1.0
C      1  0.4971560000000  0.4399600000000  0.4273470000000 1.0
C      1  0.4454860000000  0.4706860000000  0.4370490000000 1.0
C      1  0.4592560000000  0.4661910000000  0.5526690000000 1.0
C      1  0.5415810000000  0.3976310000000  0.4448020000000 1.0
C      1  0.4048920000000  0.5400350000000  0.5263340000000 1.0
C      1  0.5727920000000  0.4837800000000  0.4473790000000 1.0
C      1  0.5280690000000  0.5323100000000  0.4131970000000 1.0
C      1  0.4765500000000  0.5791710000000  0.4656030000000 1.0
C      1  0.4320410000000  0.4306870000000  0.4804020000000 1.0
C      1  0.5272110000000  0.4419020000000  0.4283900000000 1.0
C      1  0.4642250000000  0.5078100000000  0.5892920000000 1.0
C      1  0.5215540000000  0.4837330000000  0.6226320000000 1.0
C      1  0.4346320000000  0.5147780000000  0.5180200000000 1.0
C      1  0.5038650000000  0.5172110000000  0.5183390000000 1.0
C      1  0.5646490000000  0.5484590000000  0.5303930000000 1.0
C      1  0.5930120000000  0.4815260000000  0.4929160000000 1.0
C      1  0.5170630000000  0.5504150000000  0.4936410000000 1.0
C      1  0.4113250000000  0.5335750000000  0.4718120000000 1.0
C      1  0.5522940000000  0.5687280000000  0.4601380000000 1.0
C      1  0.4955470000000  0.5105080000000  0.5484010000000 1.0
C      1  0.4212560000000  0.5488660000000  0.5469740000000 1.0
C      1  0.4839310000000  0.4381610000000  0.5182180000000 1.0
C      1  0.4867030000000  0.5560680000000  0.4214760000000 1.0
C      1  0.5295900000000  0.5701460000000  0.5526880000000 1.0
C      1  0.5488870000000  0.4590310000000  0.4875940000000 1.0
C      1  0.4246070000000  0.4530630000000  0.4555570000000 1.0
C      1  0.5157420000000  0.5909690000000  0.4926230000000 1.0
C      1  0.4639280000000  0.6053970000000  0.5032880000000 1.0
C      1  0.5781100000000  0.5268340000000  0.4651360000000 1.0
C      1  0.4373470000000  0.4975300000000  0.4332850000000 1.0
C      1  0.4565300000000  0.5835400000000  0.4861540000000 1.0
C      1  0.4381710000000  0.5087030000000  0.5777830000000 1.0
C      1  0.5238930000000  0.4198650000000  0.4950180000000 1.0
C      1  0.5885280000000  0.5014250000000  0.4662360000000 1.0
C      1  0.5058040000000  0.4710370000000  0.4914530000000 1.0
C      1  0.5638010000000  0.4194500000000  0.4960930000000 1.0
C      1  0.4217090000000  0.5394330000000  0.4983390000000 1.0
C      1  0.4157440000000  0.4553260000000  0.4941490000000 1.0
C      1  0.5051400000000  0.4256930000000  0.5558100000000 1.0
C      1  0.4723620000000  0.5587650000000  0.5994110000000 1.0
C      1  0.5640500000000  0.4363670000000  0.4670810000000 1.0
C      1  0.4229560000000  0.4874040000000  0.5349030000000 1.0
C      1  0.5285540000000  0.5235500000000  0.4521780000000 1.0
C      1  0.4939460000000  0.4856950000000  0.5163160000000 1.0
C      1  0.5341980000000  0.4188700000000  0.5400630000000 1.0
C      1  0.4184040000000  0.4560430000000  0.5242170000000 1.0
C      1  0.5792680000000  0.5642940000000  0.4804610000000 1.0
C      1  0.5656800000000  0.4874520000000  0.5765710000000 1.0
C      1  0.4966770000000  0.5084320000000  0.4759270000000 1.0
C      1  0.5079610000000  0.5887430000000  0.4650720000000 1.0
C      1  0.4442620000000  0.5660790000000  0.5336150000000 1.0
C      1  0.4295470000000  0.4308060000000  0.5321520000000 1.0
C      1  0.4269830000000  0.4857330000000  0.5649550000000 1.0
C      1  0.5537040000000  0.4127700000000  0.5206300000000 1.0
C      1  0.4924260000000  0.4891970000000  0.4252220000000 1.0
C      1  0.5147630000000  0.5282990000000  0.5933750000000 1.0
C      1  0.4975250000000  0.5687260000000  0.5118720000000 1.0
C      1  0.5640720000000  0.5166020000000  0.4190320000000 1.0
C      1  0.4365070000000  0.4570190000000  0.5715600000000 1.0
C      1  0.4866310000000  0.5995500000000  0.5184720000000 1.0
C      1  0.4899990000000  0.5554790000000  0.4527710000000 1.0
C      1  0.5577850000000  0.5030130000000  0.4952580000000 1.0
C      1  0.5098120000000  0.4954740000000  0.6008740000000 1.0
C      1  0.5783700000000  0.5130760000000  0.5585000000000 1.0
C      1  0.4230340000000  0.4878430000000  0.5007830000000 1.0
C      1  0.4402830000000  0.4162190000000  0.5075380000000 1.0
C      1  0.4826240000000  0.4862380000000  0.5901240000000 1.0
C      1  0.5930260000000  0.5073210000000  0.5359270000000 1.0
C      1  0.4558900000000  0.5643260000000  0.4153720000000 1.0
C      1  0.5127120000000  0.4985620000000  0.5670260000000 1.0
C      1  0.5870730000000  0.5133370000000  0.5042860000000 1.0
C      1  0.5021860000000  0.5046230000000  0.4442990000000 1.0
C      1  0.5424160000000  0.5389210000000  0.5076010000000 1.0
C      1  0.5412550000000  0.4986670000000  0.5565170000000 1.0
C      1  0.5359620000000  0.4662920000000  0.4153750000000 1.0
C      1  0.4912790000000  0.4424440000000  0.4920280000000 1.0
C      1  0.4511380000000  0.4323380000000  0.4521640000000 1.0
C      1  0.5182280000000  0.5556520000000  0.4246070000000 1.0
C      1  0.5171200000000  0.6054340000000  0.5207680000000 1.0
C      1  0.5631500000000  0.4660640000000  0.5315240000000 1.0
C      1  0.5340410000000  0.4427570000000  0.5619570000000 1.0
C      1  0.5823820000000  0.4623320000000  0.4668670000000 1.0
C      1  0.4535760000000  0.5891750000000  0.5452640000000 1.0
C      1  0.4322610000000  0.5551100000000  0.4247690000000 1.0
C      1  0.4577490000000  0.5363660000000  0.5305400000000 1.0
C      1  0.4764720000000  0.4218280000000  0.5538800000000 1.0
C      1  0.5329570000000  0.4450630000000  0.5095750000000 1.0
C      1  0.5304020000000  0.5946650000000  0.5428760000000 1.0
C      1  0.5266520000000  0.4835850000000  0.4676580000000 1.0
C      1  0.4727860000000  0.4933400000000  0.4921530000000 1.0
C      1  0.5418940000000  0.5143490000000  0.5299640000000 1.0
C      1  0.5438450000000  0.5108190000000  0.5883880000000 1.0
C      1  0.4408730000000  0.5644040000000  0.5005660000000 1.0
C      1  0.4730340000000  0.5282900000000  0.4137730000000 1.0
C      1  0.5276460000000  0.5745820000000  0.4464550000000 1.0
C      1  0.4851190000000  0.4698010000000  0.5681450000000 1.0
C      1  0.4857150000000  0.4633240000000  0.5347470000000 1.0
C      1  0.4130010000000  0.5072280000000  0.4515970000000 1.0
C      1  0.5470540000000  0.4254190000000  0.4430810000000 1.0
C      1  0.4166600000000  0.5394550000000  0.4409620000000 1.0
C      1  0.4562470000000  0.5187190000000  0.4343100000000 1.0
C      1  0.4822790000000  0.5397870000000  0.5101010000000 1.0
C      1  0.4655660000000  0.4156170000000  0.5240180000000 1.0
C      1  0.5624590000000  0.5364790000000  0.5561500000000 1.0
C      1  0.5841660000000  0.5454900000000  0.5060640000000 1.0
C      1  0.5341300000000  0.5444990000000  0.5731750000000 1.0
C      1  0.4752420000000  0.5312340000000  0.4808760000000 1.0
END
