TITL C-2778434-4341-1297 0.00136684141811383 125000 -888.543344469079 0 0 154 (C1) n - 1
REM
REM in /home/nfs/bkarasulu/CARBON/AIRSS/Generating-Clusters/REBO/Only-C1/SD-CG/HFTN-CG
REM
REM
REM
REM
REM
REM ./C.cell (11c1c37f851c82e70ff6c80c92926a4b)
REM
REM compiler GCC version 9.2.1 20190827 (Red Hat 9.2.1-1)
REM options -cpp -mtune=generic -march=x86-64 -g -O0 -fpre-include=/usr/include/finclude/math-vector-fortran.h
REM seed -2003562396 -1644239336 1481232278 -556550881 -776374567 117513486 -777184799 1134576852 1609644028 -245890523 1557642160 1652414880 -1335083025 -8882867 660256743 1846874944 881905807 313398616 -256373136 -1956511595 1631676775 1553393961 1605749322 731854365 617626196 -77400544 -93517427 1023963456 -325818887 300388797 1295733606 -624281512 -1235172187
REM
CELL 1.54180   50.00000   50.00000   50.00000   90.00000   90.00000   90.00000
LATT -1
SFAC C  
C      1  0.4391210000000  0.4653800000000  0.4171710000000 1.0
C      1  0.4093670000000  0.5873420000000  0.4585730000000 1.0
C      1  0.5306870000000  0.5192180000000  0.4175640000000 1.0
C      1  0.4842290000000  0.4213150000000  0.4442640000000 1.0
C      1  0.4613470000000  0.5765840000000  0.4341090000000 1.0
C      1  0.4294500000000  0.5589730000000  0.4994330000000 1.0
C      1  0.4865540000000  0.4663210000000  0.5487300000000 1.0
C      1  0.4696720000000  0.5187580000000  0.4379940000000 1.0
C      1  0.5670570000000  0.4535730000000  0.5198990000000 1.0
C      1  0.5635010000000  0.5549520000000  0.4540470000000 1.0
C      1  0.4823830000000  0.3667260000000  0.5427490000000 1.0
C      1  0.5890470000000  0.5334750000000  0.4718600000000 1.0
C      1  0.6317580000000  0.4732850000000  0.4466730000000 1.0
C      1  0.4219530000000  0.4275760000000  0.5364690000000 1.0
C      1  0.5741210000000  0.5590280000000  0.4869100000000 1.0
C      1  0.4681230000000  0.5004560000000  0.5020910000000 1.0
C      1  0.5486120000000  0.5063770000000  0.4361300000000 1.0
C      1  0.5591840000000  0.5268400000000  0.5442350000000 1.0
C      1  0.4744540000000  0.4682070000000  0.5745790000000 1.0
C      1  0.5177610000000  0.4838810000000  0.5205690000000 1.0
C      1  0.4890280000000  0.5518770000000  0.4982430000000 1.0
C      1  0.5420020000000  0.4299840000000  0.4505550000000 1.0
C      1  0.4552550000000  0.5885250000000  0.5313920000000 1.0
C      1  0.4129760000000  0.4928470000000  0.5579420000000 1.0
C      1  0.4879510000000  0.4230490000000  0.4160210000000 1.0
C      1  0.4807240000000  0.5332620000000  0.3881140000000 1.0
C      1  0.5177950000000  0.4830840000000  0.6002910000000 1.0
C      1  0.4368340000000  0.4736430000000  0.5155430000000 1.0
C      1  0.5455060000000  0.4705050000000  0.5487640000000 1.0
C      1  0.5179920000000  0.5453000000000  0.4602480000000 1.0
C      1  0.5134760000000  0.5347550000000  0.5058250000000 1.0
C      1  0.4977620000000  0.4673570000000  0.4355870000000 1.0
C      1  0.5252920000000  0.4376610000000  0.4902250000000 1.0
C      1  0.4551070000000  0.5471060000000  0.5800180000000 1.0
C      1  0.4480830000000  0.5487690000000  0.4739240000000 1.0
C      1  0.3901350000000  0.5270800000000  0.5114750000000 1.0
C      1  0.4836820000000  0.4824530000000  0.5212080000000 1.0
C      1  0.5044280000000  0.4456680000000  0.5480140000000 1.0
C      1  0.4542310000000  0.4667920000000  0.4432640000000 1.0
C      1  0.4424890000000  0.4167900000000  0.5229750000000 1.0
C      1  0.5815270000000  0.4793870000000  0.5268820000000 1.0
C      1  0.5703210000000  0.5729400000000  0.5405530000000 1.0
C      1  0.5081270000000  0.5039160000000  0.5461910000000 1.0
C      1  0.5815750000000  0.5294150000000  0.5677010000000 1.0
C      1  0.5303870000000  0.5651100000000  0.5259030000000 1.0
C      1  0.6026670000000  0.5051460000000  0.5240920000000 1.0
C      1  0.4991610000000  0.5318250000000  0.4146040000000 1.0
C      1  0.4714960000000  0.5043350000000  0.4008250000000 1.0
C      1  0.4932590000000  0.4097830000000  0.5634610000000 1.0
C      1  0.4605600000000  0.5177310000000  0.5372900000000 1.0
C      1  0.5544960000000  0.4489130000000  0.5712370000000 1.0
C      1  0.5677160000000  0.5604760000000  0.5668230000000 1.0
C      1  0.4384030000000  0.5170230000000  0.4994020000000 1.0
C      1  0.4205290000000  0.4580480000000  0.5401410000000 1.0
C      1  0.5237920000000  0.5499490000000  0.4279240000000 1.0
C      1  0.5479460000000  0.5773240000000  0.4831140000000 1.0
C      1  0.5112780000000  0.5775960000000  0.5631910000000 1.0
C      1  0.4263470000000  0.4641870000000  0.3951110000000 1.0
C      1  0.4134160000000  0.5428700000000  0.5169070000000 1.0
C      1  0.5285680000000  0.4514320000000  0.5933300000000 1.0
C      1  0.5600130000000  0.5173970000000  0.4782660000000 1.0
C      1  0.5172530000000  0.4302870000000  0.5737750000000 1.0
C      1  0.4222760000000  0.5282250000000  0.4206840000000 1.0
C      1  0.4693470000000  0.5577210000000  0.4088840000000 1.0
C      1  0.5361870000000  0.5442480000000  0.5486510000000 1.0
C      1  0.4790960000000  0.5491870000000  0.5998780000000 1.0
C      1  0.5802620000000  0.4833150000000  0.4733860000000 1.0
C      1  0.4479340000000  0.4653720000000  0.4902010000000 1.0
C      1  0.5134910000000  0.4317230000000  0.5208580000000 1.0
C      1  0.5101490000000  0.5978860000000  0.5359110000000 1.0
C      1  0.5079240000000  0.6015950000000  0.5020880000000 1.0
C      1  0.5854520000000  0.4931020000000  0.4350440000000 1.0
C      1  0.5395570000000  0.5777250000000  0.4514800000000 1.0
C      1  0.5213640000000  0.3927110000000  0.5215950000000 1.0
C      1  0.5778000000000  0.5512650000000  0.5187690000000 1.0
C      1  0.4499270000000  0.5171610000000  0.4612930000000 1.0
C      1  0.4579920000000  0.4160230000000  0.4966450000000 1.0
C      1  0.4745430000000  0.4248250000000  0.5315370000000 1.0
C      1  0.4651250000000  0.4398850000000  0.4545700000000 1.0
C      1  0.4932450000000  0.5883630000000  0.4743040000000 1.0
C      1  0.4554760000000  0.4454640000000  0.5768120000000 1.0
C      1  0.4334120000000  0.4985720000000  0.5347710000000 1.0
C      1  0.5491380000000  0.5912240000000  0.5306780000000 1.0
C      1  0.3909710000000  0.5012800000000  0.5035370000000 1.0
C      1  0.4718710000000  0.5660000000000  0.4601280000000 1.0
C      1  0.6051930000000  0.4750350000000  0.4523000000000 1.0
C      1  0.4205570000000  0.5641690000000  0.4609040000000 1.0
C      1  0.5371680000000  0.4956600000000  0.5556370000000 1.0
C      1  0.4670210000000  0.5336290000000  0.5077950000000 1.0
C      1  0.5135270000000  0.5014320000000  0.4771990000000 1.0
C      1  0.5299460000000  0.4761240000000  0.4833380000000 1.0
C      1  0.4105730000000  0.5002610000000  0.4319140000000 1.0
C      1  0.5168380000000  0.4976090000000  0.3994250000000 1.0
C      1  0.4172220000000  0.5227630000000  0.4826000000000 1.0
C      1  0.4832680000000  0.4928250000000  0.4767450000000 1.0
C      1  0.5966740000000  0.5305030000000  0.5370990000000 1.0
C      1  0.4181470000000  0.5335570000000  0.4526320000000 1.0
C      1  0.5530330000000  0.4060230000000  0.5257480000000 1.0
C      1  0.4381090000000  0.5831800000000  0.5111130000000 1.0
C      1  0.4290640000000  0.5315410000000  0.5391530000000 1.0
C      1  0.4871630000000  0.4499180000000  0.5122810000000 1.0
C      1  0.4928010000000  0.4878550000000  0.4088210000000 1.0
C      1  0.5336580000000  0.5092250000000  0.5108550000000 1.0
C      1  0.5118670000000  0.5834880000000  0.4460430000000 1.0
C      1  0.5496600000000  0.4779750000000  0.5890350000000 1.0
C      1  0.4983010000000  0.5712730000000  0.4206540000000 1.0
C      1  0.4864530000000  0.4071490000000  0.5046720000000 1.0
C      1  0.4815160000000  0.5044050000000  0.5596750000000 1.0
C      1  0.5130040000000  0.3999450000000  0.4892760000000 1.0
C      1  0.5125040000000  0.4155640000000  0.4597730000000 1.0
C      1  0.4763080000000  0.4901360000000  0.4474560000000 1.0
C      1  0.5753440000000  0.5249340000000  0.4422820000000 1.0
C      1  0.4036740000000  0.4734370000000  0.5149100000000 1.0
C      1  0.5161530000000  0.5662680000000  0.4817830000000 1.0
C      1  0.5883630000000  0.4516470000000  0.4701590000000 1.0
C      1  0.4961070000000  0.4484020000000  0.4089330000000 1.0
C      1  0.5092070000000  0.4493880000000  0.4621340000000 1.0
C      1  0.5617460000000  0.4263510000000  0.4724800000000 1.0
C      1  0.5360970000000  0.5294960000000  0.5924300000000 1.0
C      1  0.5356610000000  0.5584370000000  0.5772740000000 1.0
C      1  0.4770730000000  0.5774560000000  0.5425240000000 1.0
C      1  0.5861020000000  0.5040440000000  0.4959730000000 1.0
C      1  0.5385980000000  0.4609610000000  0.5105770000000 1.0
C      1  0.4057600000000  0.5422150000000  0.4029800000000 1.0
C      1  0.4893280000000  0.5417800000000  0.4459380000000 1.0
C      1  0.5117510000000  0.5315300000000  0.5367030000000 1.0
C      1  0.5563840000000  0.5096440000000  0.5793310000000 1.0
C      1  0.4115390000000  0.4832810000000  0.4830310000000 1.0
C      1  0.5798570000000  0.4380500000000  0.4973380000000 1.0
C      1  0.5289780000000  0.4150150000000  0.5465490000000 1.0
C      1  0.5506990000000  0.4883500000000  0.4647090000000 1.0
C      1  0.4391440000000  0.5271290000000  0.5695920000000 1.0
C      1  0.5630300000000  0.5069140000000  0.5212710000000 1.0
C      1  0.4985340000000  0.3892400000000  0.5443820000000 1.0
C      1  0.4878690000000  0.4899340000000  0.5899810000000 1.0
C      1  0.5623440000000  0.4336330000000  0.5434140000000 1.0
C      1  0.5478720000000  0.4505900000000  0.4334540000000 1.0
C      1  0.4664720000000  0.4231650000000  0.5636050000000 1.0
C      1  0.5596130000000  0.4754010000000  0.4280660000000 1.0
C      1  0.4996490000000  0.5684180000000  0.5224180000000 1.0
C      1  0.5377210000000  0.5975860000000  0.5038760000000 1.0
C      1  0.4051690000000  0.4869700000000  0.4518060000000 1.0
C      1  0.4933540000000  0.5299860000000  0.6134200000000 1.0
C      1  0.5296410000000  0.5215390000000  0.4717400000000 1.0
C      1  0.4498880000000  0.4994060000000  0.5711560000000 1.0
C      1  0.4516960000000  0.5287960000000  0.4139770000000 1.0
C      1  0.5156250000000  0.5150490000000  0.6057900000000 1.0
C      1  0.4351410000000  0.4688800000000  0.5677510000000 1.0
C      1  0.4975430000000  0.4662180000000  0.4870180000000 1.0
C      1  0.5466430000000  0.5411870000000  0.5093480000000 1.0
C      1  0.4811470000000  0.5674450000000  0.5717690000000 1.0
C      1  0.5450480000000  0.4103810000000  0.4950320000000 1.0
C      1  0.4418680000000  0.4874450000000  0.4675010000000 1.0
C      1  0.4564840000000  0.4400230000000  0.4813460000000 1.0
END
