TITL C-2778427-5640-1067 0.00345543922119744 125000 -158.780671858745 0 0 29 (C1) n - 1
REM
REM in /home/nfs/bkarasulu/CARBON/AIRSS/Generating-Clusters/REBO/Only-C1/SD-CG/HFTN-CG
REM
REM
REM
REM
REM
REM ./C.cell (11c1c37f851c82e70ff6c80c92926a4b)
REM
REM compiler GCC version 9.2.1 20190827 (Red Hat 9.2.1-1)
REM options -cpp -mtune=generic -march=x86-64 -g -O0 -fpre-include=/usr/include/finclude/math-vector-fortran.h
REM seed 2041530614 -1332440214 1108948127 -1378052173 -590321749 896728259 -2088520776 2124243239 -1114829977 107722778 -1557674005 924669085 -78033550 -495967707 -1119477046 1456986696 183368034 1030385884 -192860357 -664168697 -1209858684 -794159138 -218754961 1361868726 -442895082 -1806940869 1804716032 -1395474371 1410971168 -772751316 1007219445 -1517452888 90797591
REM
CELL 1.54180   50.00000   50.00000   50.00000   90.00000   90.00000   90.00000
LATT -1
SFAC C  
C      1  0.5557750000000  0.4174980000000  0.5212360000000 1.0
C      1  0.5432790000000  0.4935120000000  0.5100420000000 1.0
C      1  0.5163460000000  0.5534550000000  0.5326750000000 1.0
C      1  0.5112660000000  0.5573460000000  0.5050900000000 1.0
C      1  0.4646250000000  0.4873590000000  0.4642950000000 1.0
C      1  0.5006800000000  0.4723360000000  0.4583680000000 1.0
C      1  0.5447420000000  0.4394330000000  0.5115580000000 1.0
C      1  0.4652030000000  0.4887780000000  0.5178890000000 1.0
C      1  0.4896440000000  0.4934480000000  0.5305140000000 1.0
C      1  0.5321560000000  0.4644560000000  0.5005180000000 1.0
C      1  0.4907350000000  0.5118780000000  0.5529060000000 1.0
C      1  0.4521350000000  0.4996520000000  0.4882730000000 1.0
C      1  0.4904970000000  0.5114820000000  0.4257000000000 1.0
C      1  0.5707660000000  0.5124380000000  0.5044440000000 1.0
C      1  0.5667310000000  0.3957170000000  0.5308460000000 1.0
C      1  0.4250350000000  0.5418490000000  0.4897060000000 1.0
C      1  0.4721760000000  0.4587520000000  0.4598810000000 1.0
C      1  0.4492600000000  0.5293970000000  0.4853290000000 1.0
C      1  0.5429410000000  0.5219180000000  0.4927920000000 1.0
C      1  0.5074780000000  0.5344130000000  0.5499400000000 1.0
C      1  0.4905560000000  0.5041470000000  0.4527700000000 1.0
C      1  0.4841940000000  0.5643850000000  0.4966900000000 1.0
C      1  0.4736860000000  0.5426390000000  0.4806250000000 1.0
C      1  0.4967250000000  0.5268660000000  0.4716960000000 1.0
C      1  0.5198270000000  0.5356240000000  0.4867280000000 1.0
C      1  0.5132190000000  0.4840030000000  0.5201430000000 1.0
C      1  0.4741920000000  0.5088060000000  0.5743050000000 1.0
C      1  0.5219000000000  0.4635200000000  0.4719490000000 1.0
C      1  0.4342310000000  0.4848930000000  0.5130910000000 1.0
END
