TITL C-2778436-5916-1290 -0.00647185124739262 125000 -866.910584091057 0 0 148 (C1) n - 1
REM
REM in /home/nfs/bkarasulu/CARBON/AIRSS/Generating-Clusters/REBO/Only-C1/SD-CG/HFTN-CG
REM
REM
REM
REM
REM
REM ./C.cell (11c1c37f851c82e70ff6c80c92926a4b)
REM
REM compiler GCC version 9.2.1 20190827 (Red Hat 9.2.1-1)
REM options -cpp -mtune=generic -march=x86-64 -g -O0 -fpre-include=/usr/include/finclude/math-vector-fortran.h
REM seed 289309732 664601328 -272053185 300080317 1418799667 1301693942 1196122750 -2002668964 1408160359 -440469752 1185702073 -2120663200 -1827890246 1778027059 -155620097 214776786 -1820527490 1710227205 1494026417 153913417 -81836204 -1921788864 145172979 -1307713005 -624927375 -1737494491 -1129424667 -1295522321 1590223860 2094184337 970378079 -1091333815 478480084
REM
CELL 1.54180   50.00000   50.00000   50.00000   90.00000   90.00000   90.00000
LATT -1
SFAC C  
C      1  0.5342470000000  0.4621770000000  0.5697350000000 1.0
C      1  0.4347770000000  0.4922290000000  0.5749100000000 1.0
C      1  0.5495340000000  0.4240450000000  0.5254010000000 1.0
C      1  0.5614630000000  0.5628160000000  0.5836510000000 1.0
C      1  0.5038400000000  0.5642020000000  0.4616590000000 1.0
C      1  0.4531580000000  0.4654610000000  0.5643980000000 1.0
C      1  0.4616190000000  0.5562000000000  0.4364940000000 1.0
C      1  0.4359810000000  0.4788760000000  0.4855120000000 1.0
C      1  0.4645560000000  0.4522650000000  0.4822340000000 1.0
C      1  0.5409870000000  0.4996330000000  0.5405910000000 1.0
C      1  0.4193300000000  0.4432430000000  0.5312850000000 1.0
C      1  0.4944770000000  0.5252130000000  0.3924360000000 1.0
C      1  0.5304530000000  0.5986790000000  0.4937900000000 1.0
C      1  0.4774820000000  0.5173630000000  0.4152310000000 1.0
C      1  0.4041020000000  0.5140410000000  0.5196470000000 1.0
C      1  0.4120390000000  0.4921940000000  0.4477540000000 1.0
C      1  0.4810820000000  0.5520790000000  0.5117960000000 1.0
C      1  0.5355440000000  0.4785930000000  0.4462140000000 1.0
C      1  0.5022170000000  0.5521000000000  0.3957620000000 1.0
C      1  0.5987950000000  0.5409730000000  0.5619830000000 1.0
C      1  0.5723470000000  0.4953130000000  0.4422780000000 1.0
C      1  0.5143490000000  0.4306500000000  0.5937650000000 1.0
C      1  0.5270050000000  0.5195200000000  0.5721150000000 1.0
C      1  0.5011710000000  0.4777180000000  0.4194120000000 1.0
C      1  0.5319330000000  0.5593730000000  0.4023600000000 1.0
C      1  0.4761650000000  0.4758080000000  0.3977830000000 1.0
C      1  0.4828250000000  0.4934240000000  0.5638740000000 1.0
C      1  0.4060510000000  0.4753250000000  0.5113440000000 1.0
C      1  0.4889180000000  0.4516670000000  0.4602220000000 1.0
C      1  0.5950840000000  0.5354570000000  0.5338830000000 1.0
C      1  0.4848010000000  0.4086900000000  0.4571480000000 1.0
C      1  0.4991910000000  0.6064770000000  0.4985440000000 1.0
C      1  0.4410510000000  0.5749350000000  0.4545330000000 1.0
C      1  0.4099610000000  0.4926010000000  0.4754920000000 1.0
C      1  0.4410070000000  0.4338860000000  0.4525790000000 1.0
C      1  0.4559520000000  0.4100230000000  0.4611280000000 1.0
C      1  0.4817550000000  0.5419480000000  0.5691740000000 1.0
C      1  0.5396810000000  0.5758800000000  0.5667860000000 1.0
C      1  0.5506890000000  0.5541030000000  0.5177900000000 1.0
C      1  0.4326380000000  0.5228710000000  0.4628450000000 1.0
C      1  0.5000110000000  0.5358970000000  0.4750290000000 1.0
C      1  0.5470740000000  0.5859720000000  0.4752920000000 1.0
C      1  0.4072350000000  0.4448000000000  0.5001650000000 1.0
C      1  0.4365940000000  0.4892520000000  0.5171890000000 1.0
C      1  0.5163810000000  0.5159100000000  0.5234420000000 1.0
C      1  0.5068570000000  0.4784780000000  0.6080830000000 1.0
C      1  0.5068410000000  0.4773720000000  0.5744590000000 1.0
C      1  0.5364830000000  0.5561010000000  0.5424040000000 1.0
C      1  0.4988200000000  0.4300200000000  0.4385690000000 1.0
C      1  0.4336080000000  0.5275600000000  0.5573020000000 1.0
C      1  0.5509950000000  0.4777210000000  0.4750130000000 1.0
C      1  0.4606570000000  0.5717710000000  0.5275690000000 1.0
C      1  0.5057530000000  0.3982950000000  0.5231190000000 1.0
C      1  0.5261580000000  0.4712200000000  0.5317550000000 1.0
C      1  0.5644130000000  0.5209640000000  0.4611320000000 1.0
C      1  0.4861460000000  0.5247820000000  0.4394670000000 1.0
C      1  0.4404280000000  0.5520860000000  0.5656880000000 1.0
C      1  0.5700370000000  0.4678000000000  0.5595990000000 1.0
C      1  0.4617260000000  0.4806890000000  0.4631720000000 1.0
C      1  0.5116980000000  0.4547690000000  0.4928830000000 1.0
C      1  0.5201430000000  0.5333570000000  0.5478120000000 1.0
C      1  0.4583080000000  0.4474850000000  0.3977460000000 1.0
C      1  0.5009610000000  0.4962830000000  0.3908340000000 1.0
C      1  0.4520320000000  0.5843040000000  0.4793290000000 1.0
C      1  0.4699020000000  0.5370400000000  0.4634540000000 1.0
C      1  0.4150790000000  0.5007440000000  0.5485020000000 1.0
C      1  0.4353560000000  0.4212050000000  0.5373880000000 1.0
C      1  0.5177050000000  0.4971700000000  0.4684570000000 1.0
C      1  0.5318220000000  0.4084850000000  0.4812100000000 1.0
C      1  0.5738020000000  0.5398010000000  0.5757420000000 1.0
C      1  0.5788030000000  0.5540970000000  0.5197540000000 1.0
C      1  0.5572030000000  0.5125370000000  0.5682260000000 1.0
C      1  0.4443610000000  0.5270840000000  0.4347370000000 1.0
C      1  0.5009660000000  0.4804680000000  0.4892410000000 1.0
C      1  0.5323610000000  0.5422660000000  0.4974600000000 1.0
C      1  0.4947420000000  0.4499380000000  0.6007140000000 1.0
C      1  0.5596890000000  0.5150860000000  0.4195030000000 1.0
C      1  0.5117000000000  0.5864750000000  0.5491510000000 1.0
C      1  0.5541450000000  0.4779520000000  0.5880440000000 1.0
C      1  0.4544280000000  0.3954270000000  0.5321080000000 1.0
C      1  0.4776960000000  0.6005100000000  0.4811710000000 1.0
C      1  0.5366340000000  0.4490280000000  0.4774450000000 1.0
C      1  0.5126310000000  0.5865250000000  0.5832590000000 1.0
C      1  0.4548580000000  0.4287220000000  0.5033260000000 1.0
C      1  0.4458270000000  0.4434770000000  0.4273360000000 1.0
C      1  0.4099070000000  0.5405830000000  0.4717200000000 1.0
C      1  0.5330010000000  0.5702220000000  0.4536720000000 1.0
C      1  0.4719710000000  0.5935690000000  0.4058130000000 1.0
C      1  0.5735840000000  0.4905650000000  0.5392640000000 1.0
C      1  0.5902390000000  0.5562480000000  0.4815580000000 1.0
C      1  0.4723040000000  0.5189830000000  0.5520620000000 1.0
C      1  0.5471780000000  0.5426690000000  0.4454190000000 1.0
C      1  0.4458680000000  0.5676220000000  0.5012240000000 1.0
C      1  0.4482510000000  0.4748320000000  0.4158080000000 1.0
C      1  0.5072130000000  0.3996760000000  0.4734120000000 1.0
C      1  0.4865580000000  0.5729420000000  0.5680060000000 1.0
C      1  0.4706930000000  0.4514000000000  0.5878420000000 1.0
C      1  0.4040430000000  0.5166730000000  0.4907130000000 1.0
C      1  0.5533410000000  0.4383350000000  0.5546880000000 1.0
C      1  0.4481990000000  0.5155920000000  0.5297260000000 1.0
C      1  0.4772360000000  0.4978990000000  0.4957770000000 1.0
C      1  0.5003740000000  0.5185440000000  0.5005360000000 1.0
C      1  0.4910870000000  0.4327750000000  0.4889600000000 1.0
C      1  0.4932610000000  0.4820660000000  0.4500740000000 1.0
C      1  0.4585650000000  0.5712070000000  0.5552070000000 1.0
C      1  0.5736540000000  0.5779130000000  0.4802110000000 1.0
C      1  0.5347290000000  0.5065720000000  0.4335580000000 1.0
C      1  0.5294360000000  0.4015860000000  0.5282540000000 1.0
C      1  0.5495680000000  0.4539470000000  0.4274160000000 1.0
C      1  0.5077970000000  0.5568620000000  0.5089350000000 1.0
C      1  0.5570770000000  0.4283510000000  0.4923440000000 1.0
C      1  0.4608320000000  0.5009980000000  0.5858630000000 1.0
C      1  0.5164990000000  0.5297190000000  0.4456320000000 1.0
C      1  0.6222550000000  0.5489790000000  0.5729340000000 1.0
C      1  0.4138880000000  0.5655800000000  0.4582590000000 1.0
C      1  0.5161040000000  0.5741180000000  0.4251640000000 1.0
C      1  0.4826750000000  0.4090570000000  0.5074100000000 1.0
C      1  0.5763080000000  0.4494010000000  0.4735090000000 1.0
C      1  0.5020830000000  0.4634320000000  0.5460920000000 1.0
C      1  0.5100040000000  0.5104360000000  0.5966690000000 1.0
C      1  0.5375900000000  0.4922820000000  0.6060140000000 1.0
C      1  0.5822880000000  0.4807420000000  0.4859820000000 1.0
C      1  0.4428220000000  0.4934690000000  0.4379060000000 1.0
C      1  0.4673100000000  0.4244370000000  0.5409550000000 1.0
C      1  0.5365800000000  0.5204520000000  0.4787530000000 1.0
C      1  0.5869300000000  0.5283630000000  0.4796350000000 1.0
C      1  0.5735870000000  0.4666990000000  0.4443560000000 1.0
C      1  0.4823760000000  0.5221410000000  0.5915750000000 1.0
C      1  0.4289830000000  0.4697670000000  0.5431630000000 1.0
C      1  0.4262680000000  0.4487960000000  0.4725290000000 1.0
C      1  0.5925670000000  0.5062280000000  0.4960630000000 1.0
C      1  0.5359050000000  0.4234730000000  0.5788520000000 1.0
C      1  0.5915590000000  0.5083760000000  0.5245370000000 1.0
C      1  0.4595290000000  0.3863850000000  0.5036390000000 1.0
C      1  0.5839290000000  0.5012770000000  0.5762760000000 1.0
C      1  0.4831160000000  0.5702470000000  0.4175100000000 1.0
C      1  0.4772100000000  0.4493010000000  0.5484660000000 1.0
C      1  0.5165850000000  0.4518860000000  0.4204250000000 1.0
C      1  0.5671310000000  0.4651860000000  0.5090970000000 1.0
C      1  0.4551800000000  0.5175080000000  0.4833630000000 1.0
C      1  0.5296210000000  0.4392260000000  0.4498000000000 1.0
C      1  0.4260880000000  0.4187040000000  0.4985590000000 1.0
C      1  0.5448420000000  0.4548880000000  0.5194560000000 1.0
C      1  0.4858640000000  0.5839190000000  0.4580440000000 1.0
C      1  0.4529000000000  0.5353720000000  0.5079100000000 1.0
C      1  0.5139880000000  0.5851980000000  0.5200530000000 1.0
C      1  0.5542690000000  0.5445080000000  0.4132390000000 1.0
C      1  0.4418700000000  0.3968360000000  0.4832850000000 1.0
END
