TITL C-2778427-5640-765 0.00221305074858297 125000 -214.427249530588 0 0 37 (C1) n - 1
REM
REM in /home/nfs/bkarasulu/CARBON/AIRSS/Generating-Clusters/REBO/Only-C1/SD-CG/HFTN-CG
REM
REM
REM
REM
REM
REM ./C.cell (11c1c37f851c82e70ff6c80c92926a4b)
REM
REM compiler GCC version 9.2.1 20190827 (Red Hat 9.2.1-1)
REM options -cpp -mtune=generic -march=x86-64 -g -O0 -fpre-include=/usr/include/finclude/math-vector-fortran.h
REM seed -1174628296 -1793392356 1060265951 114169422 -1106173361 880649095 -355941347 -1623545776 -1947056368 1779492604 -329781465 -2142528516 1807742534 691141424 111907802 -971527815 379459255 -748388042 -1873767069 -321597361 -2136955076 306385710 -1305700677 1474269793 -129904809 -986855934 1496375480 203917006 1626814092 230849824 1215960920 841965164 -2013151678
REM
CELL 1.54180   50.00000   50.00000   50.00000   90.00000   90.00000   90.00000
LATT -1
SFAC C  
C      1  0.5241980000000  0.5283720000000  0.4557750000000 1.0
C      1  0.5802010000000  0.4644780000000  0.4666640000000 1.0
C      1  0.4929030000000  0.5315110000000  0.5123840000000 1.0
C      1  0.4967450000000  0.4659590000000  0.4549770000000 1.0
C      1  0.4636230000000  0.4699240000000  0.5421150000000 1.0
C      1  0.4726780000000  0.4809390000000  0.4595720000000 1.0
C      1  0.4746140000000  0.5088340000000  0.4529680000000 1.0
C      1  0.4563020000000  0.5295960000000  0.4588760000000 1.0
C      1  0.4741870000000  0.5691880000000  0.4866260000000 1.0
C      1  0.5564090000000  0.5146450000000  0.5206570000000 1.0
C      1  0.4919780000000  0.4707560000000  0.5424050000000 1.0
C      1  0.5217070000000  0.5401560000000  0.5421000000000 1.0
C      1  0.5186550000000  0.4902100000000  0.5391700000000 1.0
C      1  0.4585380000000  0.5161610000000  0.5523180000000 1.0
C      1  0.5329050000000  0.5144280000000  0.5375150000000 1.0
C      1  0.4583850000000  0.5544150000000  0.4699700000000 1.0
C      1  0.4926660000000  0.5615890000000  0.5062000000000 1.0
C      1  0.4653110000000  0.4446280000000  0.4956740000000 1.0
C      1  0.4549210000000  0.4696160000000  0.4789030000000 1.0
C      1  0.5740380000000  0.4925730000000  0.5180870000000 1.0
C      1  0.5008810000000  0.5180040000000  0.4472730000000 1.0
C      1  0.4508770000000  0.4903220000000  0.5572520000000 1.0
C      1  0.5250870000000  0.4974000000000  0.4853340000000 1.0
C      1  0.5548540000000  0.5317030000000  0.4980410000000 1.0
C      1  0.5758140000000  0.4770470000000  0.4952670000000 1.0
C      1  0.4508860000000  0.4616600000000  0.5176230000000 1.0
C      1  0.5105810000000  0.5151150000000  0.4979750000000 1.0
C      1  0.4342250000000  0.4817490000000  0.4995020000000 1.0
C      1  0.5163540000000  0.4612790000000  0.5240320000000 1.0
C      1  0.4160260000000  0.5010420000000  0.5015300000000 1.0
C      1  0.5135950000000  0.4485100000000  0.4992290000000 1.0
C      1  0.5107380000000  0.5624630000000  0.5302890000000 1.0
C      1  0.4905200000000  0.4324000000000  0.4959930000000 1.0
C      1  0.5499090000000  0.4778410000000  0.4743520000000 1.0
C      1  0.5196460000000  0.4660210000000  0.4755660000000 1.0
C      1  0.5429220000000  0.5345760000000  0.4740200000000 1.0
C      1  0.4761210000000  0.5248890000000  0.5337670000000 1.0
END
