TITL C-2778422-5617-1447 -0.000794829382368736 125000 -331.447218995722 0 0 56 (C1) n - 1
REM
REM in /home/nfs/bkarasulu/CARBON/AIRSS/Generating-Clusters/REBO/Only-C1/SD-CG/HFTN-CG
REM
REM
REM
REM
REM
REM ./C.cell (11c1c37f851c82e70ff6c80c92926a4b)
REM
REM compiler GCC version 9.2.1 20190827 (Red Hat 9.2.1-1)
REM options -cpp -mtune=generic -march=x86-64 -g -O0 -fpre-include=/usr/include/finclude/math-vector-fortran.h
REM seed -1092988798 -832775066 -800441938 974811722 1606687620 -230857216 -535938594 -849176349 -884460169 301123350 -351191024 1803733240 -1203118914 1600362117 -36973339 1647150154 -1130808904 1761618702 2073812977 -735177969 793503368 1705794390 17027875 1244918699 -1951127347 733937861 680248076 452166719 -1413330931 809271560 1526900811 -1009374151 307666402
REM
CELL 1.54180   50.00000   50.00000   50.00000   90.00000   90.00000   90.00000
LATT -1
SFAC C  
C      1  0.4321710000000  0.4495400000000  0.5119080000000 1.0
C      1  0.4916510000000  0.5757860000000  0.5686180000000 1.0
C      1  0.5136990000000  0.4802800000000  0.3997180000000 1.0
C      1  0.4802260000000  0.4524280000000  0.4847780000000 1.0
C      1  0.5016890000000  0.5388230000000  0.5352010000000 1.0
C      1  0.5174730000000  0.4887780000000  0.4916740000000 1.0
C      1  0.4886060000000  0.5341540000000  0.4421380000000 1.0
C      1  0.5103740000000  0.4896270000000  0.4254520000000 1.0
C      1  0.5154200000000  0.4805190000000  0.5238150000000 1.0
C      1  0.5028500000000  0.4372340000000  0.4901930000000 1.0
C      1  0.5464850000000  0.5491710000000  0.5034050000000 1.0
C      1  0.4992620000000  0.4739830000000  0.4472190000000 1.0
C      1  0.4212090000000  0.4951990000000  0.5087190000000 1.0
C      1  0.5833370000000  0.5016630000000  0.4582770000000 1.0
C      1  0.4706260000000  0.4748060000000  0.4531640000000 1.0
C      1  0.5279480000000  0.4974830000000  0.5460670000000 1.0
C      1  0.4361600000000  0.5199570000000  0.5093150000000 1.0
C      1  0.4485560000000  0.4830860000000  0.5489720000000 1.0
C      1  0.5167190000000  0.5180020000000  0.4331130000000 1.0
C      1  0.4642530000000  0.5293030000000  0.5455170000000 1.0
C      1  0.5627330000000  0.4733990000000  0.5235430000000 1.0
C      1  0.5381410000000  0.4596580000000  0.5160480000000 1.0
C      1  0.5661230000000  0.5241020000000  0.4632870000000 1.0
C      1  0.4612160000000  0.5176730000000  0.4962600000000 1.0
C      1  0.4933340000000  0.5097900000000  0.5775020000000 1.0
C      1  0.5674970000000  0.4563090000000  0.4673370000000 1.0
C      1  0.5102860000000  0.5171810000000  0.5561330000000 1.0
C      1  0.4547450000000  0.4516820000000  0.4667590000000 1.0
C      1  0.5278680000000  0.4383700000000  0.5010590000000 1.0
C      1  0.5404020000000  0.4536980000000  0.4663110000000 1.0
C      1  0.4755350000000  0.4806830000000  0.4921640000000 1.0
C      1  0.5800670000000  0.4863260000000  0.5032100000000 1.0
C      1  0.4394960000000  0.5327980000000  0.4361890000000 1.0
C      1  0.4304190000000  0.4551820000000  0.4825260000000 1.0
C      1  0.4379610000000  0.5389850000000  0.5312180000000 1.0
C      1  0.5267730000000  0.5523090000000  0.5215440000000 1.0
C      1  0.4815260000000  0.5584560000000  0.5498710000000 1.0
C      1  0.4867900000000  0.4925390000000  0.5168340000000 1.0
C      1  0.4684140000000  0.5020210000000  0.5397470000000 1.0
C      1  0.5821050000000  0.4790670000000  0.4757060000000 1.0
C      1  0.4891830000000  0.5248180000000  0.5110620000000 1.0
C      1  0.4635270000000  0.5022600000000  0.4685210000000 1.0
C      1  0.5729930000000  0.5175980000000  0.5377070000000 1.0
C      1  0.5660410000000  0.5328190000000  0.4909130000000 1.0
C      1  0.5176560000000  0.4700620000000  0.4698550000000 1.0
C      1  0.4171830000000  0.4816870000000  0.4829280000000 1.0
C      1  0.5102490000000  0.5281340000000  0.4644290000000 1.0
C      1  0.5564160000000  0.4945790000000  0.5441990000000 1.0
C      1  0.5804910000000  0.5155660000000  0.5095000000000 1.0
C      1  0.4520800000000  0.5658500000000  0.5362580000000 1.0
C      1  0.4523400000000  0.4798980000000  0.5770810000000 1.0
C      1  0.4733490000000  0.4943560000000  0.5880690000000 1.0
C      1  0.4304030000000  0.4741860000000  0.5280990000000 1.0
C      1  0.5450760000000  0.5281800000000  0.4448990000000 1.0
C      1  0.4631840000000  0.5242670000000  0.4473960000000 1.0
C      1  0.5096830000000  0.5156870000000  0.4885740000000 1.0
END
