TITL C-2778436-5916-1491 -0.00468153828726708 125000 -648.22108601337 0 0 112 (C1) n - 1
REM
REM in /home/nfs/bkarasulu/CARBON/AIRSS/Generating-Clusters/REBO/Only-C1/SD-CG/HFTN-CG
REM
REM
REM
REM
REM
REM ./C.cell (11c1c37f851c82e70ff6c80c92926a4b)
REM
REM compiler GCC version 9.2.1 20190827 (Red Hat 9.2.1-1)
REM options -cpp -mtune=generic -march=x86-64 -g -O0 -fpre-include=/usr/include/finclude/math-vector-fortran.h
REM seed 1029655394 -59027481 -622708047 894865392 -1503587608 1574561926 -1794711955 -511848235 1830172842 -632796489 737247175 -526389859 1341119201 234963758 -1490264153 -1425580683 899635809 7183042 -1772496609 -915961317 2001702693 276618653 678017028 760735124 1564768955 -1921784956 627650961 440303357 -1930790352 1711754166 551742494 -1133345085 -1019292210
REM
CELL 1.54180   50.00000   50.00000   50.00000   90.00000   90.00000   90.00000
LATT -1
SFAC C  
C      1  0.4836700000000  0.5904440000000  0.5030340000000 1.0
C      1  0.4974160000000  0.4468480000000  0.4775900000000 1.0
C      1  0.4957190000000  0.4807670000000  0.4387020000000 1.0
C      1  0.4933960000000  0.4781490000000  0.4717970000000 1.0
C      1  0.5121200000000  0.5770120000000  0.5040530000000 1.0
C      1  0.5386390000000  0.5235010000000  0.5887530000000 1.0
C      1  0.5232690000000  0.5106720000000  0.4638370000000 1.0
C      1  0.4288160000000  0.4604980000000  0.5457010000000 1.0
C      1  0.6095530000000  0.4737220000000  0.4378150000000 1.0
C      1  0.4731510000000  0.4586970000000  0.5226700000000 1.0
C      1  0.5778470000000  0.4938260000000  0.5552260000000 1.0
C      1  0.4511760000000  0.4523520000000  0.4524640000000 1.0
C      1  0.5430870000000  0.5819240000000  0.5173790000000 1.0
C      1  0.4870750000000  0.4850400000000  0.5867440000000 1.0
C      1  0.4191110000000  0.5093730000000  0.5414240000000 1.0
C      1  0.5122160000000  0.5330240000000  0.5141050000000 1.0
C      1  0.4662430000000  0.4480900000000  0.4274880000000 1.0
C      1  0.4864450000000  0.4787380000000  0.6146830000000 1.0
C      1  0.4797410000000  0.5731580000000  0.5320650000000 1.0
C      1  0.5305370000000  0.4271590000000  0.4858530000000 1.0
C      1  0.5629240000000  0.5376350000000  0.4840800000000 1.0
C      1  0.4605520000000  0.4794060000000  0.5055790000000 1.0
C      1  0.4611140000000  0.5500170000000  0.4319770000000 1.0
C      1  0.4573070000000  0.5185720000000  0.4362770000000 1.0
C      1  0.5101760000000  0.4524340000000  0.4463480000000 1.0
C      1  0.5192110000000  0.4372730000000  0.5146300000000 1.0
C      1  0.3976310000000  0.5161030000000  0.4992810000000 1.0
C      1  0.4535290000000  0.5452400000000  0.5076670000000 1.0
C      1  0.4386220000000  0.4872810000000  0.5570230000000 1.0
C      1  0.5658780000000  0.4617440000000  0.4545330000000 1.0
C      1  0.5142590000000  0.4503790000000  0.5602710000000 1.0
C      1  0.4865140000000  0.5449740000000  0.5164250000000 1.0
C      1  0.5040070000000  0.4081200000000  0.4834700000000 1.0
C      1  0.4581390000000  0.5094010000000  0.5400300000000 1.0
C      1  0.5143650000000  0.5034400000000  0.4351650000000 1.0
C      1  0.4536890000000  0.4056800000000  0.5487440000000 1.0
C      1  0.4503830000000  0.4320200000000  0.4985930000000 1.0
C      1  0.4957520000000  0.5669520000000  0.5581410000000 1.0
C      1  0.5312140000000  0.5321930000000  0.4845250000000 1.0
C      1  0.5328460000000  0.4960480000000  0.4093060000000 1.0
C      1  0.4382660000000  0.5331930000000  0.5307180000000 1.0
C      1  0.5392680000000  0.4921840000000  0.5127400000000 1.0
C      1  0.4906490000000  0.5367090000000  0.4239930000000 1.0
C      1  0.4760210000000  0.5249670000000  0.4589260000000 1.0
C      1  0.4844650000000  0.5076150000000  0.4090480000000 1.0
C      1  0.4338270000000  0.4428070000000  0.5170590000000 1.0
C      1  0.4854440000000  0.5412500000000  0.5682460000000 1.0
C      1  0.4815440000000  0.4283120000000  0.4982200000000 1.0
C      1  0.4580190000000  0.5319200000000  0.5765000000000 1.0
C      1  0.5185220000000  0.5805070000000  0.5374830000000 1.0
C      1  0.5358040000000  0.5509310000000  0.5840730000000 1.0
C      1  0.5391740000000  0.4585780000000  0.4753680000000 1.0
C      1  0.5390300000000  0.4521440000000  0.4359030000000 1.0
C      1  0.4676510000000  0.4524180000000  0.5499430000000 1.0
C      1  0.5252330000000  0.4841020000000  0.4826840000000 1.0
C      1  0.4544770000000  0.4286330000000  0.4690090000000 1.0
C      1  0.4700120000000  0.5802020000000  0.4739720000000 1.0
C      1  0.4592450000000  0.5020840000000  0.5790420000000 1.0
C      1  0.5789070000000  0.5158600000000  0.4721100000000 1.0
C      1  0.4885140000000  0.4311990000000  0.4375840000000 1.0
C      1  0.5207840000000  0.5276420000000  0.4135850000000 1.0
C      1  0.5118980000000  0.5403000000000  0.4504640000000 1.0
C      1  0.4551370000000  0.4908720000000  0.4361270000000 1.0
C      1  0.4116970000000  0.4687540000000  0.5173540000000 1.0
C      1  0.5585130000000  0.4463340000000  0.5392720000000 1.0
C      1  0.5410360000000  0.5468770000000  0.4240240000000 1.0
C      1  0.5287080000000  0.4757510000000  0.5501750000000 1.0
C      1  0.4318110000000  0.4737250000000  0.4921740000000 1.0
C      1  0.4836250000000  0.5180460000000  0.5491750000000 1.0
C      1  0.4853340000000  0.5031160000000  0.5019810000000 1.0
C      1  0.5668070000000  0.5123400000000  0.5884760000000 1.0
C      1  0.5674870000000  0.5658460000000  0.4725140000000 1.0
C      1  0.4892320000000  0.4001060000000  0.5131540000000 1.0
C      1  0.4970360000000  0.5815230000000  0.4540810000000 1.0
C      1  0.5391250000000  0.5220590000000  0.5222050000000 1.0
C      1  0.5485180000000  0.4888480000000  0.5719720000000 1.0
C      1  0.4903300000000  0.5273330000000  0.4812770000000 1.0
C      1  0.4410370000000  0.5494050000000  0.5584300000000 1.0
C      1  0.5648150000000  0.5345420000000  0.4292750000000 1.0
C      1  0.5939440000000  0.4934580000000  0.4832810000000 1.0
C      1  0.4222310000000  0.4888240000000  0.4712250000000 1.0
C      1  0.5094110000000  0.5556890000000  0.4815750000000 1.0
C      1  0.5415260000000  0.4698480000000  0.4098160000000 1.0
C      1  0.5007200000000  0.4587280000000  0.5155870000000 1.0
C      1  0.4168020000000  0.5161040000000  0.4779030000000 1.0
C      1  0.5168430000000  0.4999370000000  0.5794690000000 1.0
C      1  0.5515140000000  0.5802700000000  0.4598380000000 1.0
C      1  0.5263110000000  0.5702080000000  0.5684280000000 1.0
C      1  0.5636270000000  0.5652140000000  0.5228950000000 1.0
C      1  0.4530710000000  0.5576810000000  0.4597250000000 1.0
C      1  0.5762200000000  0.5132120000000  0.4429590000000 1.0
C      1  0.4608900000000  0.4806630000000  0.4656110000000 1.0
C      1  0.6053630000000  0.4839600000000  0.5058800000000 1.0
C      1  0.4020760000000  0.4982530000000  0.5213930000000 1.0
C      1  0.5080790000000  0.4884320000000  0.5183440000000 1.0
C      1  0.5061750000000  0.4995630000000  0.5478480000000 1.0
C      1  0.4736380000000  0.3936960000000  0.5340360000000 1.0
C      1  0.5868850000000  0.4821430000000  0.4523340000000 1.0
C      1  0.5516950000000  0.4308370000000  0.4594690000000 1.0
C      1  0.5933220000000  0.5125830000000  0.5724120000000 1.0
C      1  0.5587840000000  0.4781200000000  0.5348500000000 1.0
C      1  0.4800400000000  0.4152660000000  0.4604760000000 1.0
C      1  0.4738500000000  0.4760840000000  0.4144890000000 1.0
C      1  0.5319050000000  0.4357540000000  0.5401270000000 1.0
C      1  0.4433010000000  0.5351560000000  0.4794670000000 1.0
C      1  0.5273120000000  0.5696920000000  0.4440560000000 1.0
C      1  0.4457290000000  0.4321010000000  0.5536870000000 1.0
C      1  0.4884250000000  0.4580750000000  0.5688680000000 1.0
C      1  0.4523980000000  0.5777070000000  0.5037320000000 1.0
C      1  0.4478340000000  0.5714360000000  0.5371930000000 1.0
C      1  0.5609990000000  0.5383460000000  0.5145280000000 1.0
C      1  0.4547420000000  0.5060200000000  0.4867170000000 1.0
END
