TITL C-2778433-5640-285 0.000783768223489199 125000 -1092.92645130484 0 0 185 (C1) n - 1
REM
REM in /home/nfs/bkarasulu/CARBON/AIRSS/Generating-Clusters/REBO/Only-C1/SD-CG/HFTN-CG
REM
REM
REM
REM
REM
REM ./C.cell (11c1c37f851c82e70ff6c80c92926a4b)
REM
REM compiler GCC version 9.2.1 20190827 (Red Hat 9.2.1-1)
REM options -cpp -mtune=generic -march=x86-64 -g -O0 -fpre-include=/usr/include/finclude/math-vector-fortran.h
REM seed -574644975 1825839498 -86788478 -421323673 2048175392 511675708 -176493131 -1066161871 -1532157684 505782803 1595768658 1098364026 904176436 -2065029747 -1540313993 -1573694916 1300500629 173946617 -1419324534 1451306128 -1242842472 870541387 -1005256089 -1855158402 -928949838 738172446 -785778151 -857883625 -2107492932 -1394769510 265118212 662991049 612510755
REM
CELL 1.54180   50.00000   50.00000   50.00000   90.00000   90.00000   90.00000
LATT -1
SFAC C  
C      1  0.5535190000000  0.5162700000000  0.5014450000000 1.0
C      1  0.6027120000000  0.5291580000000  0.4767060000000 1.0
C      1  0.4752400000000  0.4492220000000  0.5465980000000 1.0
C      1  0.4395430000000  0.4334220000000  0.5596080000000 1.0
C      1  0.6299510000000  0.4715080000000  0.4713720000000 1.0
C      1  0.4518680000000  0.5509660000000  0.4168920000000 1.0
C      1  0.4903110000000  0.6057380000000  0.4566960000000 1.0
C      1  0.4246200000000  0.4769740000000  0.5438460000000 1.0
C      1  0.4730130000000  0.5382710000000  0.4037950000000 1.0
C      1  0.4249000000000  0.4960170000000  0.4807740000000 1.0
C      1  0.5499620000000  0.5779550000000  0.4785990000000 1.0
C      1  0.4772000000000  0.4307500000000  0.5727510000000 1.0
C      1  0.3960750000000  0.4880320000000  0.5476220000000 1.0
C      1  0.4970650000000  0.4574900000000  0.4286990000000 1.0
C      1  0.6045660000000  0.5499050000000  0.5301110000000 1.0
C      1  0.4790620000000  0.5587550000000  0.4748730000000 1.0
C      1  0.5048390000000  0.4023560000000  0.4833780000000 1.0
C      1  0.5967170000000  0.4714260000000  0.5460480000000 1.0
C      1  0.5110760000000  0.4349090000000  0.4755430000000 1.0
C      1  0.4186430000000  0.5770050000000  0.4800270000000 1.0
C      1  0.5142320000000  0.5383430000000  0.5543630000000 1.0
C      1  0.5476200000000  0.4316830000000  0.4426940000000 1.0
C      1  0.5613560000000  0.5741810000000  0.4320260000000 1.0
C      1  0.5916410000000  0.5340580000000  0.5476200000000 1.0
C      1  0.4290170000000  0.4153320000000  0.4356680000000 1.0
C      1  0.4635750000000  0.4798290000000  0.5874260000000 1.0
C      1  0.5551530000000  0.5508960000000  0.5896840000000 1.0
C      1  0.4772500000000  0.5907020000000  0.5188640000000 1.0
C      1  0.4131960000000  0.5417410000000  0.4439890000000 1.0
C      1  0.5781050000000  0.5338090000000  0.4561550000000 1.0
C      1  0.4324880000000  0.5324670000000  0.4953300000000 1.0
C      1  0.5430650000000  0.4583230000000  0.4613740000000 1.0
C      1  0.4645370000000  0.5301680000000  0.4854470000000 1.0
C      1  0.4343710000000  0.4599190000000  0.4185130000000 1.0
C      1  0.4692800000000  0.4912060000000  0.4546940000000 1.0
C      1  0.5612540000000  0.5171680000000  0.5900420000000 1.0
C      1  0.4428910000000  0.4093400000000  0.4660980000000 1.0
C      1  0.4633240000000  0.4111800000000  0.5490800000000 1.0
C      1  0.4739960000000  0.4289230000000  0.4130220000000 1.0
C      1  0.3983240000000  0.4797440000000  0.4673730000000 1.0
C      1  0.5278240000000  0.5380730000000  0.4538510000000 1.0
C      1  0.5543130000000  0.4136180000000  0.4970430000000 1.0
C      1  0.5921790000000  0.4480120000000  0.4525340000000 1.0
C      1  0.4108920000000  0.5900180000000  0.5014140000000 1.0
C      1  0.5413580000000  0.6052080000000  0.5184000000000 1.0
C      1  0.5254750000000  0.5070090000000  0.5489710000000 1.0
C      1  0.4703510000000  0.5123380000000  0.5896670000000 1.0
C      1  0.5032140000000  0.4963680000000  0.4547570000000 1.0
C      1  0.4938870000000  0.4445230000000  0.4537740000000 1.0
C      1  0.4234230000000  0.4718150000000  0.4454790000000 1.0
C      1  0.4666400000000  0.5955290000000  0.4473440000000 1.0
C      1  0.4055210000000  0.4471560000000  0.4739090000000 1.0
C      1  0.5308060000000  0.4601380000000  0.4078770000000 1.0
C      1  0.5319120000000  0.4873430000000  0.4529920000000 1.0
C      1  0.5505730000000  0.5832330000000  0.5403110000000 1.0
C      1  0.4587940000000  0.4765100000000  0.5480420000000 1.0
C      1  0.4549440000000  0.5676060000000  0.4442450000000 1.0
C      1  0.5194650000000  0.5261430000000  0.4043270000000 1.0
C      1  0.4840510000000  0.6038870000000  0.5487730000000 1.0
C      1  0.5912400000000  0.5025980000000  0.5455260000000 1.0
C      1  0.5675760000000  0.4342810000000  0.5752620000000 1.0
C      1  0.4792810000000  0.4590700000000  0.3996370000000 1.0
C      1  0.4857250000000  0.5814380000000  0.5697120000000 1.0
C      1  0.4540750000000  0.4478120000000  0.5874890000000 1.0
C      1  0.5386240000000  0.5916850000000  0.4323220000000 1.0
C      1  0.4400170000000  0.4133000000000  0.5251410000000 1.0
C      1  0.5922870000000  0.4782880000000  0.4404090000000 1.0
C      1  0.4896860000000  0.6128640000000  0.4882160000000 1.0
C      1  0.5070860000000  0.5638160000000  0.4566980000000 1.0
C      1  0.4257980000000  0.5268750000000  0.5845570000000 1.0
C      1  0.3891730000000  0.5150690000000  0.5435740000000 1.0
C      1  0.4895700000000  0.5171370000000  0.6112540000000 1.0
C      1  0.5282260000000  0.4343260000000  0.5689120000000 1.0
C      1  0.3868450000000  0.5041800000000  0.4884830000000 1.0
C      1  0.5413530000000  0.5526720000000  0.5389720000000 1.0
C      1  0.5953380000000  0.5671340000000  0.5097770000000 1.0
C      1  0.3989690000000  0.5191070000000  0.4604310000000 1.0
C      1  0.4973180000000  0.4464160000000  0.5911740000000 1.0
C      1  0.5691310000000  0.5224010000000  0.4271310000000 1.0
C      1  0.4385230000000  0.5199510000000  0.4658810000000 1.0
C      1  0.5638570000000  0.5418570000000  0.5588650000000 1.0
C      1  0.4972840000000  0.4038310000000  0.4524800000000 1.0
C      1  0.5476770000000  0.4725630000000  0.5072790000000 1.0
C      1  0.5125990000000  0.5249450000000  0.6073460000000 1.0
C      1  0.5089050000000  0.4726400000000  0.3939920000000 1.0
C      1  0.4954290000000  0.4743360000000  0.5811730000000 1.0
C      1  0.5804550000000  0.4590320000000  0.5729840000000 1.0
C      1  0.6019940000000  0.5094500000000  0.4964500000000 1.0
C      1  0.5541730000000  0.5104980000000  0.5577750000000 1.0
C      1  0.5490460000000  0.4541820000000  0.5323290000000 1.0
C      1  0.4559210000000  0.4414680000000  0.5241120000000 1.0
C      1  0.4913180000000  0.4991910000000  0.5300860000000 1.0
C      1  0.5234690000000  0.5640840000000  0.4838350000000 1.0
C      1  0.3885950000000  0.5232730000000  0.5149150000000 1.0
C      1  0.4867460000000  0.6234250000000  0.5209000000000 1.0
C      1  0.4387870000000  0.4655180000000  0.5153570000000 1.0
C      1  0.4234860000000  0.5040250000000  0.5121030000000 1.0
C      1  0.4997940000000  0.5258520000000  0.4659590000000 1.0
C      1  0.4997900000000  0.5491160000000  0.5265850000000 1.0
C      1  0.4056830000000  0.5339270000000  0.5594820000000 1.0
C      1  0.4809120000000  0.5565200000000  0.5500690000000 1.0
C      1  0.5778090000000  0.4301300000000  0.4370590000000 1.0
C      1  0.6003890000000  0.4603940000000  0.5149120000000 1.0
C      1  0.5046330000000  0.5739150000000  0.5074980000000 1.0
C      1  0.4748110000000  0.5065450000000  0.4006790000000 1.0
C      1  0.5099460000000  0.5357930000000  0.4969690000000 1.0
C      1  0.4368130000000  0.5051900000000  0.4128700000000 1.0
C      1  0.4512320000000  0.4163870000000  0.4939750000000 1.0
C      1  0.5031490000000  0.4182090000000  0.4251320000000 1.0
C      1  0.4714580000000  0.5840340000000  0.4876020000000 1.0
C      1  0.5595550000000  0.4190480000000  0.5480860000000 1.0
C      1  0.4505510000000  0.4699240000000  0.4625970000000 1.0
C      1  0.4352660000000  0.5792120000000  0.5589600000000 1.0
C      1  0.5134810000000  0.6053010000000  0.5111480000000 1.0
C      1  0.5564310000000  0.4969130000000  0.4741660000000 1.0
C      1  0.5313630000000  0.5255550000000  0.5207360000000 1.0
C      1  0.3997110000000  0.4797850000000  0.5087990000000 1.0
C      1  0.4422520000000  0.4324310000000  0.4183110000000 1.0
C      1  0.4542290000000  0.4792910000000  0.4019510000000 1.0
C      1  0.5447700000000  0.4301730000000  0.5955180000000 1.0
C      1  0.4753350000000  0.5063360000000  0.5015520000000 1.0
C      1  0.4852230000000  0.5551990000000  0.5998500000000 1.0
C      1  0.5067690000000  0.5010760000000  0.3952140000000 1.0
C      1  0.4524600000000  0.4951440000000  0.5217390000000 1.0
C      1  0.5761340000000  0.4911220000000  0.5738360000000 1.0
C      1  0.5667430000000  0.5534640000000  0.4144390000000 1.0
C      1  0.4281450000000  0.5354160000000  0.4196190000000 1.0
C      1  0.4105890000000  0.5420910000000  0.5137320000000 1.0
C      1  0.5593700000000  0.5981740000000  0.4957930000000 1.0
C      1  0.4667980000000  0.4466430000000  0.4940650000000 1.0
C      1  0.5301120000000  0.5297890000000  0.5832380000000 1.0
C      1  0.5320460000000  0.4592460000000  0.5561170000000 1.0
C      1  0.4730810000000  0.5042970000000  0.5566960000000 1.0
C      1  0.5829650000000  0.4863060000000  0.4701080000000 1.0
C      1  0.4938180000000  0.4108290000000  0.5395990000000 1.0
C      1  0.4958800000000  0.4659520000000  0.5319240000000 1.0
C      1  0.5374150000000  0.5290870000000  0.4261460000000 1.0
C      1  0.5849280000000  0.4466010000000  0.4807040000000 1.0
C      1  0.4536380000000  0.5448590000000  0.5925720000000 1.0
C      1  0.5159150000000  0.4814070000000  0.5628140000000 1.0
C      1  0.4835700000000  0.4732440000000  0.5007550000000 1.0
C      1  0.5436700000000  0.3993560000000  0.5253200000000 1.0
C      1  0.4680330000000  0.4158400000000  0.4439930000000 1.0
C      1  0.5809850000000  0.5121360000000  0.5160690000000 1.0
C      1  0.4122800000000  0.4232670000000  0.4612660000000 1.0
C      1  0.4363550000000  0.4963110000000  0.5767030000000 1.0
C      1  0.5510460000000  0.5357470000000  0.4736830000000 1.0
C      1  0.5356860000000  0.5754250000000  0.5877520000000 1.0
C      1  0.5181840000000  0.4368380000000  0.6074920000000 1.0
C      1  0.4267930000000  0.5633180000000  0.4575360000000 1.0
C      1  0.4173690000000  0.4372510000000  0.5338550000000 1.0
C      1  0.5762980000000  0.5863680000000  0.5181900000000 1.0
C      1  0.5840220000000  0.4211550000000  0.4940370000000 1.0
C      1  0.6235270000000  0.4721580000000  0.4467370000000 1.0
C      1  0.5952430000000  0.5582700000000  0.4824180000000 1.0
C      1  0.4217380000000  0.5028330000000  0.4416760000000 1.0
C      1  0.4601330000000  0.5161130000000  0.4346280000000 1.0
C      1  0.5336990000000  0.4354330000000  0.5116390000000 1.0
C      1  0.4742990000000  0.5396960000000  0.4479690000000 1.0
C      1  0.5059710000000  0.4193720000000  0.5119750000000 1.0
C      1  0.5274990000000  0.4332360000000  0.4202590000000 1.0
C      1  0.5241590000000  0.4117270000000  0.5488720000000 1.0
C      1  0.5080300000000  0.5719130000000  0.5908200000000 1.0
C      1  0.5584300000000  0.4586700000000  0.4851500000000 1.0
C      1  0.4562940000000  0.5732720000000  0.5793270000000 1.0
C      1  0.5187040000000  0.4851680000000  0.5150890000000 1.0
C      1  0.4007330000000  0.4548750000000  0.5207110000000 1.0
C      1  0.5127390000000  0.4563640000000  0.4972400000000 1.0
C      1  0.5132910000000  0.5914940000000  0.4451720000000 1.0
C      1  0.4645380000000  0.4427200000000  0.4628420000000 1.0
C      1  0.5261480000000  0.3860890000000  0.5032880000000 1.0
C      1  0.4471750000000  0.5238350000000  0.5591670000000 1.0
C      1  0.5449290000000  0.5933750000000  0.5689670000000 1.0
C      1  0.5457220000000  0.4792130000000  0.4244580000000 1.0
C      1  0.4302000000000  0.4637090000000  0.5726600000000 1.0
C      1  0.5785380000000  0.4445770000000  0.5358040000000 1.0
C      1  0.5000430000000  0.5475250000000  0.4016780000000 1.0
C      1  0.4196360000000  0.5491340000000  0.5394730000000 1.0
C      1  0.4514130000000  0.5515510000000  0.5462230000000 1.0
C      1  0.5382400000000  0.4199120000000  0.4705730000000 1.0
C      1  0.5714440000000  0.5670540000000  0.4601990000000 1.0
C      1  0.4861980000000  0.4876580000000  0.4265860000000 1.0
C      1  0.5718860000000  0.4921420000000  0.4230700000000 1.0
C      1  0.6074340000000  0.4789350000000  0.4917930000000 1.0
C      1  0.4295190000000  0.4646300000000  0.4869770000000 1.0
END
