TITL C-2778433-5640-899 0.00014260105705899 125000 -150.607401124963 0 0 27 (C1) n - 1
REM
REM in /home/nfs/bkarasulu/CARBON/AIRSS/Generating-Clusters/REBO/Only-C1/SD-CG/HFTN-CG
REM
REM
REM
REM
REM
REM ./C.cell (11c1c37f851c82e70ff6c80c92926a4b)
REM
REM compiler GCC version 9.2.1 20190827 (Red Hat 9.2.1-1)
REM options -cpp -mtune=generic -march=x86-64 -g -O0 -fpre-include=/usr/include/finclude/math-vector-fortran.h
REM seed 1501119526 -448079083 1290239187 1013075411 -1043552586 -1169266563 -1384259047 -1175010058 209881989 -767663438 1282574929 2048582467 -2074383281 1900671118 393483723 -2056965514 1874639827 -1209005524 -1782305210 -1252885838 -2007864440 -595525044 -374348906 -1062511031 1760701394 -1573960015 -236365787 113818347 -2055753850 -1129069146 641332405 -943984214 1491997224
REM
CELL 1.54180   50.00000   50.00000   50.00000   90.00000   90.00000   90.00000
LATT -1
SFAC C  
C      1  0.4938910000000  0.4079530000000  0.5216670000000 1.0
C      1  0.5232430000000  0.5521000000000  0.5025070000000 1.0
C      1  0.5382240000000  0.4791920000000  0.4923480000000 1.0
C      1  0.4999610000000  0.4396590000000  0.5229700000000 1.0
C      1  0.5119820000000  0.5223130000000  0.4572780000000 1.0
C      1  0.5027700000000  0.4656280000000  0.5309790000000 1.0
C      1  0.4840190000000  0.4635990000000  0.4318890000000 1.0
C      1  0.5321480000000  0.4607210000000  0.4657550000000 1.0
C      1  0.5427070000000  0.5158380000000  0.4616440000000 1.0
C      1  0.4666110000000  0.4453030000000  0.4215000000000 1.0
C      1  0.5242720000000  0.5256750000000  0.4885070000000 1.0
C      1  0.4427630000000  0.6044600000000  0.6230090000000 1.0
C      1  0.4940230000000  0.5105460000000  0.4405610000000 1.0
C      1  0.4643290000000  0.5678080000000  0.5916500000000 1.0
C      1  0.5502900000000  0.4887090000000  0.4644470000000 1.0
C      1  0.4860690000000  0.5308620000000  0.5600400000000 1.0
C      1  0.4800370000000  0.4912610000000  0.4257750000000 1.0
C      1  0.4621680000000  0.4985110000000  0.4065030000000 1.0
C      1  0.4534600000000  0.5862810000000  0.6074550000000 1.0
C      1  0.5120880000000  0.4353870000000  0.4720800000000 1.0
C      1  0.5241940000000  0.4997810000000  0.5056030000000 1.0
C      1  0.5040620000000  0.4556620000000  0.4488050000000 1.0
C      1  0.5038700000000  0.4233420000000  0.4948110000000 1.0
C      1  0.5083180000000  0.4930480000000  0.5276880000000 1.0
C      1  0.4969380000000  0.5123890000000  0.5442350000000 1.0
C      1  0.4751990000000  0.5493350000000  0.5758450000000 1.0
C      1  0.5223650000000  0.5746370000000  0.5144480000000 1.0
END
