TITL C-2778429-3646-90 -0.00065723334240687 125000 -167.281283719921 0 0 30 (C1) n - 1
REM
REM in /home/nfs/bkarasulu/CARBON/AIRSS/Generating-Clusters/REBO/Only-C1/SD-CG/HFTN-CG
REM
REM
REM
REM
REM
REM ./C.cell (11c1c37f851c82e70ff6c80c92926a4b)
REM
REM compiler GCC version 9.2.1 20190827 (Red Hat 9.2.1-1)
REM options -cpp -mtune=generic -march=x86-64 -g -O0 -fpre-include=/usr/include/finclude/math-vector-fortran.h
REM seed 119282945 712491479 -138177604 527087678 1203349635 1665969477 724867245 -54066502 -2105341056 -607662783 -1698951311 -831670983 469975845 -910393128 366243602 -2141048713 1321534695 362643872 -747984999 -702112219 -639779114 235675309 1627101948 683736223 -499755760 -1475992537 -72424360 1920607672 2132590585 1714173532 -361794311 2129062232 -1998753211
REM
CELL 1.54180   50.00000   50.00000   50.00000   90.00000   90.00000   90.00000
LATT -1
SFAC C  
C      1  0.5370800000000  0.4450860000000  0.5176440000000 1.0
C      1  0.4667950000000  0.5279960000000  0.4978140000000 1.0
C      1  0.4551070000000  0.4174620000000  0.5118290000000 1.0
C      1  0.4631140000000  0.4527830000000  0.5288080000000 1.0
C      1  0.5341010000000  0.5791410000000  0.5369660000000 1.0
C      1  0.5096760000000  0.4495180000000  0.5119140000000 1.0
C      1  0.4895480000000  0.5464010000000  0.5001010000000 1.0
C      1  0.4864270000000  0.4389490000000  0.5243740000000 1.0
C      1  0.5508270000000  0.5399630000000  0.5027330000000 1.0
C      1  0.5109950000000  0.5657320000000  0.5444510000000 1.0
C      1  0.4671150000000  0.4458430000000  0.4458540000000 1.0
C      1  0.4882760000000  0.4947160000000  0.4552610000000 1.0
C      1  0.5146390000000  0.5180940000000  0.5305310000000 1.0
C      1  0.5447600000000  0.5698780000000  0.5126090000000 1.0
C      1  0.5031920000000  0.5437150000000  0.5283850000000 1.0
C      1  0.4520760000000  0.4763670000000  0.5209020000000 1.0
C      1  0.5006620000000  0.5560410000000  0.4698310000000 1.0
C      1  0.5148890000000  0.4968520000000  0.5138460000000 1.0
C      1  0.5613440000000  0.5151730000000  0.5062470000000 1.0
C      1  0.4387690000000  0.5180110000000  0.4865930000000 1.0
C      1  0.4919260000000  0.5173920000000  0.4415940000000 1.0
C      1  0.5642800000000  0.4889800000000  0.5114570000000 1.0
C      1  0.4961400000000  0.5437330000000  0.4466680000000 1.0
C      1  0.4810560000000  0.4788410000000  0.4807140000000 1.0
C      1  0.4621610000000  0.4341430000000  0.4928860000000 1.0
C      1  0.4607870000000  0.4944650000000  0.4975670000000 1.0
C      1  0.5050490000000  0.4749730000000  0.4995890000000 1.0
C      1  0.4696070000000  0.4517490000000  0.4727840000000 1.0
C      1  0.5222780000000  0.5546410000000  0.4937860000000 1.0
C      1  0.5573230000000  0.4633610000000  0.5162660000000 1.0
END
