TITL C-2778434-4341-738 0.00489731711594966 125000 -1108.24362320346 0 0 189 (C1) n - 1
REM
REM in /home/nfs/bkarasulu/CARBON/AIRSS/Generating-Clusters/REBO/Only-C1/SD-CG/HFTN-CG
REM
REM
REM
REM
REM
REM ./C.cell (11c1c37f851c82e70ff6c80c92926a4b)
REM
REM compiler GCC version 9.2.1 20190827 (Red Hat 9.2.1-1)
REM options -cpp -mtune=generic -march=x86-64 -g -O0 -fpre-include=/usr/include/finclude/math-vector-fortran.h
REM seed -1776269544 1711756738 1317074102 -654770122 -1187270631 1482545369 -56243232 1793940114 -1711782076 1493416129 1393011419 -33677081 893754307 1323374773 -289203959 1472727500 926922576 -413090714 -115087006 -255691864 1978032219 1271865808 605864711 -494735699 640835863 1153134828 1176687963 -1021592657 592966676 -1328812177 850325964 826269096 -1854540047
REM
CELL 1.54180   50.00000   50.00000   50.00000   90.00000   90.00000   90.00000
LATT -1
SFAC C  
C      1  0.5552520000000  0.4444610000000  0.5409990000000 1.0
C      1  0.5038730000000  0.4041520000000  0.4222270000000 1.0
C      1  0.4841120000000  0.5050810000000  0.4934690000000 1.0
C      1  0.5398230000000  0.4325390000000  0.4305680000000 1.0
C      1  0.4889400000000  0.4732020000000  0.5046150000000 1.0
C      1  0.5132910000000  0.4926490000000  0.4696100000000 1.0
C      1  0.4776010000000  0.4081930000000  0.5732920000000 1.0
C      1  0.5629870000000  0.5121990000000  0.4556140000000 1.0
C      1  0.5713230000000  0.5528450000000  0.4306400000000 1.0
C      1  0.5898700000000  0.4634120000000  0.4694120000000 1.0
C      1  0.4928250000000  0.4972430000000  0.4284530000000 1.0
C      1  0.5792690000000  0.5474150000000  0.5638570000000 1.0
C      1  0.4106250000000  0.5372840000000  0.5649620000000 1.0
C      1  0.5117590000000  0.5619020000000  0.5869930000000 1.0
C      1  0.4904960000000  0.4364800000000  0.5846310000000 1.0
C      1  0.5184750000000  0.4518830000000  0.5935450000000 1.0
C      1  0.5293540000000  0.4329550000000  0.5538240000000 1.0
C      1  0.5593230000000  0.5213030000000  0.4842940000000 1.0
C      1  0.5444670000000  0.4625310000000  0.5185090000000 1.0
C      1  0.5531620000000  0.4115810000000  0.4618060000000 1.0
C      1  0.4026320000000  0.4786210000000  0.5523690000000 1.0
C      1  0.4784720000000  0.5284670000000  0.6045100000000 1.0
C      1  0.4601460000000  0.5099640000000  0.5247750000000 1.0
C      1  0.4347120000000  0.4540960000000  0.5853380000000 1.0
C      1  0.5166760000000  0.5643470000000  0.5202300000000 1.0
C      1  0.5025040000000  0.5013320000000  0.5754520000000 1.0
C      1  0.5041490000000  0.6128840000000  0.5066070000000 1.0
C      1  0.5238860000000  0.4029010000000  0.5075910000000 1.0
C      1  0.4237110000000  0.4387680000000  0.4651700000000 1.0
C      1  0.4141470000000  0.4530870000000  0.5653110000000 1.0
C      1  0.4797410000000  0.6000510000000  0.5636910000000 1.0
C      1  0.5811320000000  0.4306540000000  0.4664390000000 1.0
C      1  0.5501660000000  0.5854190000000  0.4603680000000 1.0
C      1  0.4931590000000  0.4397020000000  0.5091480000000 1.0
C      1  0.4045470000000  0.5238200000000  0.4612260000000 1.0
C      1  0.5323390000000  0.5117890000000  0.4516390000000 1.0
C      1  0.5605890000000  0.5234070000000  0.4164700000000 1.0
C      1  0.4613360000000  0.4413250000000  0.5575950000000 1.0
C      1  0.5464350000000  0.5875370000000  0.5634970000000 1.0
C      1  0.4442950000000  0.5740970000000  0.5232810000000 1.0
C      1  0.4777110000000  0.6020010000000  0.4936010000000 1.0
C      1  0.4253830000000  0.5122990000000  0.4366120000000 1.0
C      1  0.4347030000000  0.5409040000000  0.4805220000000 1.0
C      1  0.5858660000000  0.4343340000000  0.5000720000000 1.0
C      1  0.4113870000000  0.4198340000000  0.4892610000000 1.0
C      1  0.5893580000000  0.5291310000000  0.4421390000000 1.0
C      1  0.4898730000000  0.5403960000000  0.4512380000000 1.0
C      1  0.4769370000000  0.4571280000000  0.4248130000000 1.0
C      1  0.4230580000000  0.4100730000000  0.5177850000000 1.0
C      1  0.5563680000000  0.5298950000000  0.5362020000000 1.0
C      1  0.5224660000000  0.5395090000000  0.4498990000000 1.0
C      1  0.5988220000000  0.5216730000000  0.4897060000000 1.0
C      1  0.5949800000000  0.5497080000000  0.4926810000000 1.0
C      1  0.4314400000000  0.4619090000000  0.5305100000000 1.0
C      1  0.5466030000000  0.5966290000000  0.4870570000000 1.0
C      1  0.4791020000000  0.5697830000000  0.4195440000000 1.0
C      1  0.4161410000000  0.4330010000000  0.5402130000000 1.0
C      1  0.5359870000000  0.3993510000000  0.4348960000000 1.0
C      1  0.5107720000000  0.5056480000000  0.5130010000000 1.0
C      1  0.5487140000000  0.5567780000000  0.5532160000000 1.0
C      1  0.4979720000000  0.4771950000000  0.5940800000000 1.0
C      1  0.4221080000000  0.5194880000000  0.5310740000000 1.0
C      1  0.4428930000000  0.4775900000000  0.5971920000000 1.0
C      1  0.4749860000000  0.6068370000000  0.4605530000000 1.0
C      1  0.6022930000000  0.5114620000000  0.4629400000000 1.0
C      1  0.5716160000000  0.4935050000000  0.4283190000000 1.0
C      1  0.5140960000000  0.4269070000000  0.4528090000000 1.0
C      1  0.5562830000000  0.4743560000000  0.5759520000000 1.0
C      1  0.4011200000000  0.5161870000000  0.4946930000000 1.0
C      1  0.4547440000000  0.6034220000000  0.5146740000000 1.0
C      1  0.5549470000000  0.5509650000000  0.4938870000000 1.0
C      1  0.4760820000000  0.3851970000000  0.4989050000000 1.0
C      1  0.5492950000000  0.4933960000000  0.5997650000000 1.0
C      1  0.4661280000000  0.5445970000000  0.4025080000000 1.0
C      1  0.5014430000000  0.4380720000000  0.4228410000000 1.0
C      1  0.4945910000000  0.5696800000000  0.5633000000000 1.0
C      1  0.5089270000000  0.6113590000000  0.4603390000000 1.0
C      1  0.4473250000000  0.5297470000000  0.4252640000000 1.0
C      1  0.4438190000000  0.4207720000000  0.4361060000000 1.0
C      1  0.5250400000000  0.4974470000000  0.4237940000000 1.0
C      1  0.5413080000000  0.5175330000000  0.5108460000000 1.0
C      1  0.5414770000000  0.4155370000000  0.4893600000000 1.0
C      1  0.5786730000000  0.4426750000000  0.5638270000000 1.0
C      1  0.5580290000000  0.5502750000000  0.5914410000000 1.0
C      1  0.5358340000000  0.5004320000000  0.5536280000000 1.0
C      1  0.5354170000000  0.5304920000000  0.5700810000000 1.0
C      1  0.4014540000000  0.4955290000000  0.5227310000000 1.0
C      1  0.5859550000000  0.4375810000000  0.5302610000000 1.0
C      1  0.4955450000000  0.3926090000000  0.5489100000000 1.0
C      1  0.4442680000000  0.5202350000000  0.4639110000000 1.0
C      1  0.4434910000000  0.5947460000000  0.4638080000000 1.0
C      1  0.5098760000000  0.5580210000000  0.4728260000000 1.0
C      1  0.5203130000000  0.4098040000000  0.5383430000000 1.0
C      1  0.4806090000000  0.5721060000000  0.4789640000000 1.0
C      1  0.6066410000000  0.4586140000000  0.5548490000000 1.0
C      1  0.5574960000000  0.4668290000000  0.4168600000000 1.0
C      1  0.4808420000000  0.5322750000000  0.5120240000000 1.0
C      1  0.4585310000000  0.5810250000000  0.5757040000000 1.0
C      1  0.4663850000000  0.4069180000000  0.5417950000000 1.0
C      1  0.5536190000000  0.4913650000000  0.5259030000000 1.0
C      1  0.4644050000000  0.5572300000000  0.5014130000000 1.0
C      1  0.5387470000000  0.5937970000000  0.5356680000000 1.0
C      1  0.5762880000000  0.5593100000000  0.5172230000000 1.0
C      1  0.4819870000000  0.6106330000000  0.5323290000000 1.0
C      1  0.5782960000000  0.5031540000000  0.5061950000000 1.0
C      1  0.4578940000000  0.5018940000000  0.4788580000000 1.0
C      1  0.5554280000000  0.4374820000000  0.5016900000000 1.0
C      1  0.5761990000000  0.5237510000000  0.5878600000000 1.0
C      1  0.5523040000000  0.4712990000000  0.4806340000000 1.0
C      1  0.5227460000000  0.6137170000000  0.4860200000000 1.0
C      1  0.4492850000000  0.4540030000000  0.4764290000000 1.0
C      1  0.4698060000000  0.4965840000000  0.5974210000000 1.0
C      1  0.4893830000000  0.4615600000000  0.4760950000000 1.0
C      1  0.5894590000000  0.5338150000000  0.5360630000000 1.0
C      1  0.4767630000000  0.5192660000000  0.5506520000000 1.0
C      1  0.4774470000000  0.5233430000000  0.4344140000000 1.0
C      1  0.4543070000000  0.4851840000000  0.4418070000000 1.0
C      1  0.4817340000000  0.3854940000000  0.4668790000000 1.0
C      1  0.4412480000000  0.4817820000000  0.4884900000000 1.0
C      1  0.4089350000000  0.4462580000000  0.5094260000000 1.0
C      1  0.5681660000000  0.4440110000000  0.4397080000000 1.0
C      1  0.5235300000000  0.4734480000000  0.4451350000000 1.0
C      1  0.4879750000000  0.4331760000000  0.5380510000000 1.0
C      1  0.5943270000000  0.5677800000000  0.4709650000000 1.0
C      1  0.4524830000000  0.4018730000000  0.5159620000000 1.0
C      1  0.5938700000000  0.4852810000000  0.4515940000000 1.0
C      1  0.4706590000000  0.5468440000000  0.5589520000000 1.0
C      1  0.5379910000000  0.5723230000000  0.5883270000000 1.0
C      1  0.4337310000000  0.5933640000000  0.4904250000000 1.0
C      1  0.4107170000000  0.4771640000000  0.4999990000000 1.0
C      1  0.5034040000000  0.4372800000000  0.4770900000000 1.0
C      1  0.4255790000000  0.4816690000000  0.4212560000000 1.0
C      1  0.4162490000000  0.5559500000000  0.4619360000000 1.0
C      1  0.4818500000000  0.4989950000000  0.3903240000000 1.0
C      1  0.4411530000000  0.5729870000000  0.5528300000000 1.0
C      1  0.4613890000000  0.4828250000000  0.4085120000000 1.0
C      1  0.4316120000000  0.5750910000000  0.4470650000000 1.0
C      1  0.5680720000000  0.5093030000000  0.5608860000000 1.0
C      1  0.6195370000000  0.4820910000000  0.5414870000000 1.0
C      1  0.5265750000000  0.4551570000000  0.4088180000000 1.0
C      1  0.4996960000000  0.4735160000000  0.4046660000000 1.0
C      1  0.5069140000000  0.5883480000000  0.5375410000000 1.0
C      1  0.5228460000000  0.5858610000000  0.4427980000000 1.0
C      1  0.4836090000000  0.4828360000000  0.4551450000000 1.0
C      1  0.4243740000000  0.4490150000000  0.4326880000000 1.0
C      1  0.5392740000000  0.5487040000000  0.4253660000000 1.0
C      1  0.5270600000000  0.4827200000000  0.4973300000000 1.0
C      1  0.3964400000000  0.5395090000000  0.5387710000000 1.0
C      1  0.5130660000000  0.5382700000000  0.3970830000000 1.0
C      1  0.4592020000000  0.4972390000000  0.5664990000000 1.0
C      1  0.4294230000000  0.4063540000000  0.4637050000000 1.0
C      1  0.5359860000000  0.5228880000000  0.3950310000000 1.0
C      1  0.4740080000000  0.4047680000000  0.4388870000000 1.0
C      1  0.5551520000000  0.5859090000000  0.5131480000000 1.0
C      1  0.5434370000000  0.4919920000000  0.3988220000000 1.0
C      1  0.4995770000000  0.3852030000000  0.5158480000000 1.0
C      1  0.5122960000000  0.5658380000000  0.4171250000000 1.0
C      1  0.4172340000000  0.5687120000000  0.5033180000000 1.0
C      1  0.5106350000000  0.5287660000000  0.5934990000000 1.0
C      1  0.5474880000000  0.4628270000000  0.4553370000000 1.0
C      1  0.5340850000000  0.5103900000000  0.6099090000000 1.0
C      1  0.4659370000000  0.4236940000000  0.4963850000000 1.0
C      1  0.4463960000000  0.5631920000000  0.4239990000000 1.0
C      1  0.4328190000000  0.4916240000000  0.5471260000000 1.0
C      1  0.4656070000000  0.4809370000000  0.5235480000000 1.0
C      1  0.4410570000000  0.5341370000000  0.5108520000000 1.0
C      1  0.4696210000000  0.4718130000000  0.5520170000000 1.0
C      1  0.4979170000000  0.4567820000000  0.5597290000000 1.0
C      1  0.4895310000000  0.5799970000000  0.4466900000000 1.0
C      1  0.4684760000000  0.5536560000000  0.5912210000000 1.0
C      1  0.4370470000000  0.5460040000000  0.5654980000000 1.0
C      1  0.5833870000000  0.4823340000000  0.5581240000000 1.0
C      1  0.5778580000000  0.4741330000000  0.4942970000000 1.0
C      1  0.4068450000000  0.4917890000000  0.4712290000000 1.0
C      1  0.4569040000000  0.4309440000000  0.5881070000000 1.0
C      1  0.4612760000000  0.4103680000000  0.4702590000000 1.0
C      1  0.5287810000000  0.5618250000000  0.4951510000000 1.0
C      1  0.4018210000000  0.5455450000000  0.5087880000000 1.0
C      1  0.4553490000000  0.4521040000000  0.5095340000000 1.0
C      1  0.5486050000000  0.4422950000000  0.5804560000000 1.0
C      1  0.6019250000000  0.5058820000000  0.5403820000000 1.0
C      1  0.5040920000000  0.5419220000000  0.5281840000000 1.0
C      1  0.4608360000000  0.4462970000000  0.4478010000000 1.0
C      1  0.5277410000000  0.4675360000000  0.5583280000000 1.0
C      1  0.5737670000000  0.5733120000000  0.4524050000000 1.0
C      1  0.4875520000000  0.5268590000000  0.3919400000000 1.0
C      1  0.5088680000000  0.3930820000000  0.4541340000000 1.0
C      1  0.4233300000000  0.4763240000000  0.4533590000000 1.0
C      1  0.5045780000000  0.5054340000000  0.5429930000000 1.0
END
