TITL C-2778432-5617-970 -0.00260094502247366 125000 -700.785023396407 0 0 120 (C1) n - 1
REM
REM in /home/nfs/bkarasulu/CARBON/AIRSS/Generating-Clusters/REBO/Only-C1/SD-CG/HFTN-CG
REM
REM
REM
REM
REM
REM ./C.cell (11c1c37f851c82e70ff6c80c92926a4b)
REM
REM compiler GCC version 9.2.1 20190827 (Red Hat 9.2.1-1)
REM options -cpp -mtune=generic -march=x86-64 -g -O0 -fpre-include=/usr/include/finclude/math-vector-fortran.h
REM seed -1851034260 1507091083 943010005 1505968140 -568654129 159979498 603887616 -1125553512 596802112 1890972826 887067448 -2146668706 -1026790156 695517369 1147316018 132605997 -1376789020 -915819208 -149732524 -909563023 1146109498 1179910252 -2001201593 -636235762 1224233595 1213308745 1243812799 343475895 609070603 -57214231 -620282637 -1672252340 -445632121
REM
CELL 1.54180   50.00000   50.00000   50.00000   90.00000   90.00000   90.00000
LATT -1
SFAC C  
C      1  0.5434030000000  0.5034090000000  0.4282890000000 1.0
C      1  0.5636560000000  0.4501170000000  0.4514880000000 1.0
C      1  0.5319310000000  0.5661110000000  0.4538350000000 1.0
C      1  0.5859480000000  0.4727350000000  0.4896290000000 1.0
C      1  0.4640230000000  0.4650200000000  0.4626550000000 1.0
C      1  0.4715400000000  0.5420670000000  0.5193260000000 1.0
C      1  0.4538140000000  0.5654020000000  0.4326410000000 1.0
C      1  0.4822200000000  0.5171210000000  0.5522980000000 1.0
C      1  0.5887410000000  0.5241420000000  0.5115650000000 1.0
C      1  0.5380100000000  0.5341490000000  0.4432790000000 1.0
C      1  0.5023450000000  0.4394190000000  0.5912490000000 1.0
C      1  0.4764490000000  0.5216120000000  0.4474210000000 1.0
C      1  0.5214260000000  0.4859770000000  0.4086870000000 1.0
C      1  0.6017780000000  0.5035830000000  0.5248500000000 1.0
C      1  0.4226270000000  0.4544070000000  0.4949700000000 1.0
C      1  0.4267260000000  0.5172980000000  0.4468990000000 1.0
C      1  0.4934310000000  0.4532590000000  0.4870540000000 1.0
C      1  0.4605480000000  0.5592250000000  0.5470220000000 1.0
C      1  0.4964040000000  0.4728340000000  0.4021090000000 1.0
C      1  0.5561100000000  0.5486420000000  0.5380610000000 1.0
C      1  0.4225600000000  0.4719180000000  0.4670790000000 1.0
C      1  0.4928270000000  0.4631460000000  0.4484820000000 1.0
C      1  0.4934500000000  0.4867470000000  0.5944590000000 1.0
C      1  0.4544470000000  0.4980010000000  0.4859330000000 1.0
C      1  0.4560590000000  0.5090230000000  0.5340910000000 1.0
C      1  0.5329780000000  0.5658680000000  0.5497580000000 1.0
C      1  0.5637500000000  0.5578080000000  0.4625060000000 1.0
C      1  0.5664520000000  0.4695770000000  0.5402150000000 1.0
C      1  0.4860330000000  0.4534490000000  0.4209220000000 1.0
C      1  0.5038510000000  0.4714840000000  0.5118020000000 1.0
C      1  0.5633430000000  0.4834840000000  0.4433910000000 1.0
C      1  0.4957430000000  0.5891230000000  0.4901410000000 1.0
C      1  0.4743020000000  0.4364800000000  0.5177650000000 1.0
C      1  0.4429720000000  0.5270790000000  0.5106620000000 1.0
C      1  0.5669040000000  0.5244110000000  0.4873070000000 1.0
C      1  0.4535380000000  0.4966820000000  0.4518710000000 1.0
C      1  0.5255770000000  0.4805210000000  0.5873500000000 1.0
C      1  0.5238610000000  0.4185530000000  0.4653470000000 1.0
C      1  0.4594460000000  0.4455250000000  0.4196540000000 1.0
C      1  0.5016220000000  0.5358010000000  0.5680530000000 1.0
C      1  0.5079400000000  0.5580760000000  0.4847490000000 1.0
C      1  0.5685690000000  0.5264010000000  0.4538800000000 1.0
C      1  0.5276160000000  0.4517780000000  0.5757880000000 1.0
C      1  0.5781710000000  0.4976670000000  0.4693650000000 1.0
C      1  0.5347020000000  0.5333800000000  0.5599990000000 1.0
C      1  0.4470790000000  0.5017570000000  0.5798190000000 1.0
C      1  0.4884280000000  0.5650700000000  0.5635710000000 1.0
C      1  0.5485780000000  0.4191150000000  0.5284470000000 1.0
C      1  0.4407770000000  0.4693190000000  0.5575500000000 1.0
C      1  0.4385400000000  0.4616340000000  0.4402410000000 1.0
C      1  0.4657840000000  0.5371940000000  0.4211200000000 1.0
C      1  0.4581000000000  0.5296250000000  0.4739630000000 1.0
C      1  0.5413100000000  0.4794420000000  0.4667380000000 1.0
C      1  0.4511780000000  0.5723640000000  0.5038010000000 1.0
C      1  0.4725250000000  0.4365560000000  0.5493930000000 1.0
C      1  0.5232600000000  0.4624790000000  0.4524760000000 1.0
C      1  0.4246430000000  0.4974610000000  0.5599080000000 1.0
C      1  0.5140360000000  0.5128340000000  0.5871440000000 1.0
C      1  0.5381730000000  0.5425910000000  0.4886760000000 1.0
C      1  0.4966300000000  0.4207000000000  0.5368610000000 1.0
C      1  0.4851220000000  0.5212380000000  0.4020630000000 1.0
C      1  0.4742650000000  0.4922060000000  0.4011070000000 1.0
C      1  0.4531400000000  0.4849770000000  0.4197500000000 1.0
C      1  0.4391830000000  0.4247840000000  0.4922350000000 1.0
C      1  0.5160870000000  0.5197630000000  0.4789300000000 1.0
C      1  0.5710450000000  0.5648270000000  0.4928340000000 1.0
C      1  0.5071150000000  0.5206710000000  0.4490790000000 1.0
C      1  0.4614660000000  0.4529790000000  0.5690160000000 1.0
C      1  0.4948530000000  0.5079800000000  0.5247290000000 1.0
C      1  0.4748130000000  0.5886950000000  0.5104220000000 1.0
C      1  0.4802850000000  0.4572200000000  0.5907030000000 1.0
C      1  0.5437000000000  0.5040490000000  0.5726190000000 1.0
C      1  0.5465730000000  0.4441280000000  0.5484220000000 1.0
C      1  0.4668460000000  0.4078270000000  0.4911670000000 1.0
C      1  0.4060410000000  0.4728050000000  0.5186500000000 1.0
C      1  0.5142630000000  0.4551670000000  0.5462130000000 1.0
C      1  0.4474060000000  0.4824700000000  0.5307780000000 1.0
C      1  0.4560250000000  0.5575160000000  0.4791570000000 1.0
C      1  0.4179250000000  0.5003250000000  0.4700010000000 1.0
C      1  0.5211050000000  0.4950050000000  0.4978480000000 1.0
C      1  0.5683160000000  0.4906390000000  0.5631870000000 1.0
C      1  0.4381460000000  0.5442930000000  0.5644990000000 1.0
C      1  0.4744050000000  0.4907940000000  0.5698490000000 1.0
C      1  0.4424970000000  0.4781860000000  0.5037550000000 1.0
C      1  0.4192900000000  0.5263350000000  0.5425790000000 1.0
C      1  0.5761950000000  0.4438480000000  0.4779810000000 1.0
C      1  0.4978160000000  0.5701440000000  0.4549930000000 1.0
C      1  0.4188550000000  0.5128160000000  0.4958980000000 1.0
C      1  0.5322500000000  0.4252980000000  0.4930020000000 1.0
C      1  0.5170050000000  0.5866480000000  0.5459140000000 1.0
C      1  0.5748410000000  0.5495370000000  0.5173000000000 1.0
C      1  0.4339390000000  0.5536040000000  0.5265130000000 1.0
C      1  0.4671320000000  0.5724660000000  0.4567870000000 1.0
C      1  0.5250930000000  0.5152970000000  0.5218730000000 1.0
C      1  0.4949310000000  0.4230220000000  0.4791480000000 1.0
C      1  0.4859690000000  0.5888800000000  0.5389440000000 1.0
C      1  0.5440550000000  0.4671640000000  0.5161540000000 1.0
C      1  0.4977470000000  0.4000570000000  0.5030990000000 1.0
C      1  0.4622530000000  0.4473900000000  0.4891710000000 1.0
C      1  0.5236830000000  0.5927650000000  0.4746270000000 1.0
C      1  0.5908120000000  0.4776760000000  0.5195230000000 1.0
C      1  0.4974650000000  0.5542620000000  0.5329250000000 1.0
C      1  0.5427740000000  0.5765380000000  0.4907010000000 1.0
C      1  0.5137770000000  0.5164130000000  0.4172120000000 1.0
C      1  0.5205040000000  0.4057520000000  0.5255350000000 1.0
C      1  0.5540440000000  0.4743280000000  0.4909450000000 1.0
C      1  0.5624290000000  0.4267650000000  0.4981970000000 1.0
C      1  0.4463500000000  0.5295090000000  0.5862230000000 1.0
C      1  0.4826490000000  0.5043510000000  0.4943460000000 1.0
C      1  0.4340930000000  0.5394220000000  0.4318130000000 1.0
C      1  0.4993090000000  0.5514030000000  0.4046630000000 1.0
C      1  0.5052420000000  0.5654860000000  0.4241110000000 1.0
C      1  0.5363760000000  0.4366690000000  0.4470620000000 1.0
C      1  0.5929600000000  0.4996410000000  0.5709220000000 1.0
C      1  0.4983690000000  0.4842070000000  0.4746880000000 1.0
C      1  0.6108010000000  0.5075130000000  0.5514860000000 1.0
C      1  0.4907860000000  0.5353550000000  0.4960730000000 1.0
C      1  0.4104600000000  0.5006200000000  0.5218630000000 1.0
C      1  0.5209660000000  0.4441560000000  0.5145790000000 1.0
C      1  0.4912750000000  0.4794630000000  0.5425340000000 1.0
END
