TITL C-2778434-4341-817 -1.52092151283495e-07 125000 -56.2156218015341 0 0 11 (Cs) n - 1
REM
REM in /home/nfs/bkarasulu/CARBON/AIRSS/Generating-Clusters/REBO/Only-C1/SD-CG/HFTN-CG
REM
REM
REM
REM
REM
REM ./C.cell (11c1c37f851c82e70ff6c80c92926a4b)
REM
REM compiler GCC version 9.2.1 20190827 (Red Hat 9.2.1-1)
REM options -cpp -mtune=generic -march=x86-64 -g -O0 -fpre-include=/usr/include/finclude/math-vector-fortran.h
REM seed 1040559640 -1493460853 -2013839048 1654677770 221706964 -792139191 -1808945383 -815758343 -2121816011 644746398 -1863508778 636461935 1301354552 -1970879164 1136781683 1629102750 993762513 -39969280 -985297012 232235862 -914973346 -1337586944 1680558874 -839279253 477821509 1552114055 -422268334 -1138269657 267050602 1434920852 2129223905 1526362408 -631718078
REM
CELL 1.54180   50.00000   50.00000   50.00000   90.00000   90.00000   90.00000
LATT -1
SFAC C  
C      1  0.5049930000000  0.4788950000000  0.5029400000000 1.0
C      1  0.5253600000000  0.4969290000000  0.5112550000000 1.0
C      1  0.4609020000000  0.4719580000000  0.4838050000000 1.0
C      1  0.5486030000000  0.4873630000000  0.5218090000000 1.0
C      1  0.5210340000000  0.5244060000000  0.5083840000000 1.0
C      1  0.5169130000000  0.5505730000000  0.5056490000000 1.0
C      1  0.4778770000000  0.5165640000000  0.4896910000000 1.0
C      1  0.4809990000000  0.4895830000000  0.4920160000000 1.0
C      1  0.4420670000000  0.4554400000000  0.4761090000000 1.0
C      1  0.5128590000000  0.5763250000000  0.5029570000000 1.0
C      1  0.5083920000000  0.4519640000000  0.5053850000000 1.0
END
