TITL C-2778431-5191-1061 -0.00620886770685544 125000 -692.233190519348 0 0 116 (C1) n - 1
REM
REM in /home/nfs/bkarasulu/CARBON/AIRSS/Generating-Clusters/REBO/Only-C1/SD-CG/HFTN-CG
REM
REM
REM
REM
REM
REM ./C.cell (11c1c37f851c82e70ff6c80c92926a4b)
REM
REM compiler GCC version 9.2.1 20190827 (Red Hat 9.2.1-1)
REM options -cpp -mtune=generic -march=x86-64 -g -O0 -fpre-include=/usr/include/finclude/math-vector-fortran.h
REM seed 1267476354 -1372788163 884947318 -439187776 1376888257 932841727 1185932264 1459993255 454376034 -712421309 -783504450 517243632 -995593437 1995871232 1627434265 -545934554 -1585857547 275356352 -385792940 1639045854 -629126180 1166827600 -679370609 1054520536 319305674 -980313613 -1970812640 1194608048 1777396523 -1605509079 440960746 -985482721 -1351542598
REM
CELL 1.54180   50.00000   50.00000   50.00000   90.00000   90.00000   90.00000
LATT -1
SFAC C  
C      1  0.4871960000000  0.4965370000000  0.5188070000000 1.0
C      1  0.5746830000000  0.5136500000000  0.5052100000000 1.0
C      1  0.4311110000000  0.4597190000000  0.5512250000000 1.0
C      1  0.5074020000000  0.5752540000000  0.4671720000000 1.0
C      1  0.5631510000000  0.4894270000000  0.4944790000000 1.0
C      1  0.4876950000000  0.4324150000000  0.4349650000000 1.0
C      1  0.5046430000000  0.5041900000000  0.5386120000000 1.0
C      1  0.5437900000000  0.4357900000000  0.5426290000000 1.0
C      1  0.5021110000000  0.4782240000000  0.4271870000000 1.0
C      1  0.5029340000000  0.5633890000000  0.4373350000000 1.0
C      1  0.4624230000000  0.4797330000000  0.5909070000000 1.0
C      1  0.5280220000000  0.4522830000000  0.4533100000000 1.0
C      1  0.4381990000000  0.5233100000000  0.4560900000000 1.0
C      1  0.5601700000000  0.4115490000000  0.4690330000000 1.0
C      1  0.4301370000000  0.4305040000000  0.4999530000000 1.0
C      1  0.6067950000000  0.5235610000000  0.5088470000000 1.0
C      1  0.5532240000000  0.5717420000000  0.5045140000000 1.0
C      1  0.4883750000000  0.5344620000000  0.5782080000000 1.0
C      1  0.4863080000000  0.4780630000000  0.4751900000000 1.0
C      1  0.4524790000000  0.4243880000000  0.4789680000000 1.0
C      1  0.5398970000000  0.4546640000000  0.5638610000000 1.0
C      1  0.5078650000000  0.4893780000000  0.5616520000000 1.0
C      1  0.5348290000000  0.5471580000000  0.5122450000000 1.0
C      1  0.4126430000000  0.5293320000000  0.4752160000000 1.0
C      1  0.4558960000000  0.4564810000000  0.5725100000000 1.0
C      1  0.4376690000000  0.4647460000000  0.4815190000000 1.0
C      1  0.4698240000000  0.4701030000000  0.5220300000000 1.0
C      1  0.4219790000000  0.4802360000000  0.5048330000000 1.0
C      1  0.5289330000000  0.5847700000000  0.5242000000000 1.0
C      1  0.5287090000000  0.4727580000000  0.4336970000000 1.0
C      1  0.5665430000000  0.3970260000000  0.4481700000000 1.0
C      1  0.5535870000000  0.4265500000000  0.4905800000000 1.0
C      1  0.5598190000000  0.4696660000000  0.5289980000000 1.0
C      1  0.5731880000000  0.5319780000000  0.5497700000000 1.0
C      1  0.5299860000000  0.4397800000000  0.5053790000000 1.0
C      1  0.5470500000000  0.4950750000000  0.4330100000000 1.0
C      1  0.5463160000000  0.5279000000000  0.4606080000000 1.0
C      1  0.4309610000000  0.4399510000000  0.5300080000000 1.0
C      1  0.4916890000000  0.5412790000000  0.4248580000000 1.0
C      1  0.5086130000000  0.4135400000000  0.4736240000000 1.0
C      1  0.5584970000000  0.5770720000000  0.4754220000000 1.0
C      1  0.4222600000000  0.5178500000000  0.5530280000000 1.0
C      1  0.5781460000000  0.4839110000000  0.5466080000000 1.0
C      1  0.4580790000000  0.4372010000000  0.4506180000000 1.0
C      1  0.4716470000000  0.5383170000000  0.5297940000000 1.0
C      1  0.4670870000000  0.4589180000000  0.4926650000000 1.0
C      1  0.4818700000000  0.5134580000000  0.5977650000000 1.0
C      1  0.4646430000000  0.5686330000000  0.4472390000000 1.0
C      1  0.4671540000000  0.4515320000000  0.4199720000000 1.0
C      1  0.4865010000000  0.5037020000000  0.4915280000000 1.0
C      1  0.3987020000000  0.4900680000000  0.5147480000000 1.0
C      1  0.5755180000000  0.5478150000000  0.5062440000000 1.0
C      1  0.4953860000000  0.4843200000000  0.5918780000000 1.0
C      1  0.4132970000000  0.4828580000000  0.4660690000000 1.0
C      1  0.5701250000000  0.5513060000000  0.4619800000000 1.0
C      1  0.4646280000000  0.5303240000000  0.4362760000000 1.0
C      1  0.5498560000000  0.5721190000000  0.5443380000000 1.0
C      1  0.4803210000000  0.5429850000000  0.4631660000000 1.0
C      1  0.4423650000000  0.5603420000000  0.5138220000000 1.0
C      1  0.4509920000000  0.5082550000000  0.5940090000000 1.0
C      1  0.5106740000000  0.4591490000000  0.5747340000000 1.0
C      1  0.4532350000000  0.5876640000000  0.4346020000000 1.0
C      1  0.5858650000000  0.5148450000000  0.4579730000000 1.0
C      1  0.4579270000000  0.5007880000000  0.4297120000000 1.0
C      1  0.5366040000000  0.5201540000000  0.4226360000000 1.0
C      1  0.4673480000000  0.4776950000000  0.4081300000000 1.0
C      1  0.5757760000000  0.4676680000000  0.4634720000000 1.0
C      1  0.4781960000000  0.4792580000000  0.4465170000000 1.0
C      1  0.5211200000000  0.5641450000000  0.5572940000000 1.0
C      1  0.4508960000000  0.5295870000000  0.4866440000000 1.0
C      1  0.4569810000000  0.4224970000000  0.5283440000000 1.0
C      1  0.4682370000000  0.4482920000000  0.5418690000000 1.0
C      1  0.5676140000000  0.4395050000000  0.5185800000000 1.0
C      1  0.5088890000000  0.5219960000000  0.4122610000000 1.0
C      1  0.4926780000000  0.5668290000000  0.4927000000000 1.0
C      1  0.3990880000000  0.5039290000000  0.4773160000000 1.0
C      1  0.5505710000000  0.5475040000000  0.4341360000000 1.0
C      1  0.5741490000000  0.4607770000000  0.4928060000000 1.0
C      1  0.5012740000000  0.5788460000000  0.5358130000000 1.0
C      1  0.4270640000000  0.4874880000000  0.5437080000000 1.0
C      1  0.5363810000000  0.5872700000000  0.4612040000000 1.0
C      1  0.5195460000000  0.4216840000000  0.5293100000000 1.0
C      1  0.4668810000000  0.5361510000000  0.5596880000000 1.0
C      1  0.5323590000000  0.5265630000000  0.5925490000000 1.0
C      1  0.5325030000000  0.4903700000000  0.4886080000000 1.0
C      1  0.5569260000000  0.4779480000000  0.5680030000000 1.0
C      1  0.4993070000000  0.5241210000000  0.4769720000000 1.0
C      1  0.4940910000000  0.4412450000000  0.4878630000000 1.0
C      1  0.4466320000000  0.4682620000000  0.4497990000000 1.0
C      1  0.5473910000000  0.5229440000000  0.5559150000000 1.0
C      1  0.5023680000000  0.5440160000000  0.5162080000000 1.0
C      1  0.4474450000000  0.4923560000000  0.5198680000000 1.0
C      1  0.4164600000000  0.5476460000000  0.4959180000000 1.0
C      1  0.4187890000000  0.5399070000000  0.5277270000000 1.0
C      1  0.5150180000000  0.5438840000000  0.5770150000000 1.0
C      1  0.4435600000000  0.5249080000000  0.5713410000000 1.0
C      1  0.3987040000000  0.5125210000000  0.5299450000000 1.0
C      1  0.5354870000000  0.4674150000000  0.5126420000000 1.0
C      1  0.5123640000000  0.4281040000000  0.4482550000000 1.0
C      1  0.5461600000000  0.5028300000000  0.5786700000000 1.0
C      1  0.4863840000000  0.4417980000000  0.5683530000000 1.0
C      1  0.5719290000000  0.5565760000000  0.5364230000000 1.0
C      1  0.4611130000000  0.5601400000000  0.4854250000000 1.0
C      1  0.5708640000000  0.4923940000000  0.4493790000000 1.0
C      1  0.4286720000000  0.4944070000000  0.4407240000000 1.0
C      1  0.5156000000000  0.4651810000000  0.4781870000000 1.0
C      1  0.4738700000000  0.5709830000000  0.5213930000000 1.0
C      1  0.4681210000000  0.4152980000000  0.5037000000000 1.0
C      1  0.5315800000000  0.5716390000000  0.4356070000000 1.0
C      1  0.4998090000000  0.4135660000000  0.5054570000000 1.0
C      1  0.5893570000000  0.5103110000000  0.5351720000000 1.0
C      1  0.5248950000000  0.5271310000000  0.5359660000000 1.0
C      1  0.4953980000000  0.4968260000000  0.4048240000000 1.0
C      1  0.5259690000000  0.5165590000000  0.4749200000000 1.0
C      1  0.5945090000000  0.5372720000000  0.4800650000000 1.0
C      1  0.4554570000000  0.5196150000000  0.5110790000000 1.0
END
