TITL C-2778435-5768-674 0.00167268522980476 125000 -932.388639682834 0 0 157 (C1) n - 1
REM
REM in /home/nfs/bkarasulu/CARBON/AIRSS/Generating-Clusters/REBO/Only-C1/SD-CG/HFTN-CG
REM
REM
REM
REM
REM
REM ./C.cell (11c1c37f851c82e70ff6c80c92926a4b)
REM
REM compiler GCC version 9.2.1 20190827 (Red Hat 9.2.1-1)
REM options -cpp -mtune=generic -march=x86-64 -g -O0 -fpre-include=/usr/include/finclude/math-vector-fortran.h
REM seed 2039019237 180870305 1447916844 1474680687 1092138492 -1851867155 -755676773 -171687895 -1322223529 -1937670273 -1906225253 851966671 -1958019803 492536969 -772023224 129245637 2031546394 -983020179 -1592498488 -600253350 57511666 361724273 -446623062 537819515 -867715863 497246311 -1680119474 -923961856 -179402327 -808948927 -399600023 -1867658784 -1644836872
REM
CELL 1.54180   50.00000   50.00000   50.00000   90.00000   90.00000   90.00000
LATT -1
SFAC C  
C      1  0.4685790000000  0.5806700000000  0.5529730000000 1.0
C      1  0.5726140000000  0.5512750000000  0.4537150000000 1.0
C      1  0.5464810000000  0.4170440000000  0.5731050000000 1.0
C      1  0.5115360000000  0.4453710000000  0.5417500000000 1.0
C      1  0.4581210000000  0.5210300000000  0.5179360000000 1.0
C      1  0.5793530000000  0.5428460000000  0.5024970000000 1.0
C      1  0.5648700000000  0.4777270000000  0.4677450000000 1.0
C      1  0.4318980000000  0.4747070000000  0.5730830000000 1.0
C      1  0.4473920000000  0.5572670000000  0.5953510000000 1.0
C      1  0.4171300000000  0.5517000000000  0.4920620000000 1.0
C      1  0.4482160000000  0.4094900000000  0.4750490000000 1.0
C      1  0.5401530000000  0.4749450000000  0.5119490000000 1.0
C      1  0.5766200000000  0.4395630000000  0.4672240000000 1.0
C      1  0.4944460000000  0.4246490000000  0.5569730000000 1.0
C      1  0.5003290000000  0.5880840000000  0.5561040000000 1.0
C      1  0.5669380000000  0.4869140000000  0.4978560000000 1.0
C      1  0.3900800000000  0.4658940000000  0.5232190000000 1.0
C      1  0.5365540000000  0.4838010000000  0.5374410000000 1.0
C      1  0.5839890000000  0.5154160000000  0.5309350000000 1.0
C      1  0.4315970000000  0.4462540000000  0.5540050000000 1.0
C      1  0.5696330000000  0.4512400000000  0.5451670000000 1.0
C      1  0.5181540000000  0.4117830000000  0.4391940000000 1.0
C      1  0.4788960000000  0.4761270000000  0.3960680000000 1.0
C      1  0.5879800000000  0.5007150000000  0.5612770000000 1.0
C      1  0.4880100000000  0.5275400000000  0.5560090000000 1.0
C      1  0.4321440000000  0.5692050000000  0.4660280000000 1.0
C      1  0.5401370000000  0.4615290000000  0.4828360000000 1.0
C      1  0.5295380000000  0.4374540000000  0.5206060000000 1.0
C      1  0.4458010000000  0.5068120000000  0.4917850000000 1.0
C      1  0.4727810000000  0.4699080000000  0.5326890000000 1.0
C      1  0.5101420000000  0.5218470000000  0.5399170000000 1.0
C      1  0.4680530000000  0.3841770000000  0.5385270000000 1.0
C      1  0.4116420000000  0.4864210000000  0.4388080000000 1.0
C      1  0.4393860000000  0.5691750000000  0.5064740000000 1.0
C      1  0.5113680000000  0.6025560000000  0.5346730000000 1.0
C      1  0.4304830000000  0.5008270000000  0.4237550000000 1.0
C      1  0.5181090000000  0.4360380000000  0.4917340000000 1.0
C      1  0.6105280000000  0.4885050000000  0.4586380000000 1.0
C      1  0.5575300000000  0.4988560000000  0.5457620000000 1.0
C      1  0.5915620000000  0.4797890000000  0.5145300000000 1.0
C      1  0.4368920000000  0.4083210000000  0.5051100000000 1.0
C      1  0.4652370000000  0.5503680000000  0.5076070000000 1.0
C      1  0.4054130000000  0.4855190000000  0.4725170000000 1.0
C      1  0.4946410000000  0.5288450000000  0.6045800000000 1.0
C      1  0.4432210000000  0.5682540000000  0.5385770000000 1.0
C      1  0.4944030000000  0.4271300000000  0.5900180000000 1.0
C      1  0.5842520000000  0.5281050000000  0.4742170000000 1.0
C      1  0.5400230000000  0.5291100000000  0.4471200000000 1.0
C      1  0.5368410000000  0.4289320000000  0.4266480000000 1.0
C      1  0.4909330000000  0.4500030000000  0.4063890000000 1.0
C      1  0.5113570000000  0.5378390000000  0.5033100000000 1.0
C      1  0.5937760000000  0.4635360000000  0.4629750000000 1.0
C      1  0.5132580000000  0.5678340000000  0.5721580000000 1.0
C      1  0.6085000000000  0.5056450000000  0.4817230000000 1.0
C      1  0.4684420000000  0.5295900000000  0.4805530000000 1.0
C      1  0.4825210000000  0.5318850000000  0.4095900000000 1.0
C      1  0.4090900000000  0.5237780000000  0.5100960000000 1.0
C      1  0.4975830000000  0.4913250000000  0.5700380000000 1.0
C      1  0.5388310000000  0.5536810000000  0.5684150000000 1.0
C      1  0.4775110000000  0.4957640000000  0.5134840000000 1.0
C      1  0.5545390000000  0.4448090000000  0.5693100000000 1.0
C      1  0.4317420000000  0.5471650000000  0.5525850000000 1.0
C      1  0.4790910000000  0.4825880000000  0.4636270000000 1.0
C      1  0.5271220000000  0.5758730000000  0.4151240000000 1.0
C      1  0.5153790000000  0.4716530000000  0.5513380000000 1.0
C      1  0.5668740000000  0.5798590000000  0.5273950000000 1.0
C      1  0.4927640000000  0.5094450000000  0.4794250000000 1.0
C      1  0.4588030000000  0.5473290000000  0.4174410000000 1.0
C      1  0.5235840000000  0.5582830000000  0.3928370000000 1.0
C      1  0.4364500000000  0.5279050000000  0.4268070000000 1.0
C      1  0.4228720000000  0.4694760000000  0.5185470000000 1.0
C      1  0.4938550000000  0.5040650000000  0.6002530000000 1.0
C      1  0.5069150000000  0.5645340000000  0.4358930000000 1.0
C      1  0.4590680000000  0.4651200000000  0.4430470000000 1.0
C      1  0.5228750000000  0.4550900000000  0.4113850000000 1.0
C      1  0.4753820000000  0.4396140000000  0.4301050000000 1.0
C      1  0.4132440000000  0.5060320000000  0.5571790000000 1.0
C      1  0.4920180000000  0.5472700000000  0.5803680000000 1.0
C      1  0.5053640000000  0.5080010000000  0.5115930000000 1.0
C      1  0.5195920000000  0.4500830000000  0.4609800000000 1.0
C      1  0.4762260000000  0.4650190000000  0.4992550000000 1.0
C      1  0.5289170000000  0.5978090000000  0.4380300000000 1.0
C      1  0.5612210000000  0.5394340000000  0.4256660000000 1.0
C      1  0.4455860000000  0.4784610000000  0.4968960000000 1.0
C      1  0.5457210000000  0.5110790000000  0.4962170000000 1.0
C      1  0.4335920000000  0.5377980000000  0.5803150000000 1.0
C      1  0.4198990000000  0.5379490000000  0.4611210000000 1.0
C      1  0.5408450000000  0.5895980000000  0.4631630000000 1.0
C      1  0.5703940000000  0.4348010000000  0.4949990000000 1.0
C      1  0.4694100000000  0.4877150000000  0.5583080000000 1.0
C      1  0.4202160000000  0.4548220000000  0.4750090000000 1.0
C      1  0.4487850000000  0.4521380000000  0.5266700000000 1.0
C      1  0.4296370000000  0.5075670000000  0.5827430000000 1.0
C      1  0.5723390000000  0.5717430000000  0.4993290000000 1.0
C      1  0.4580480000000  0.5690130000000  0.4437400000000 1.0
C      1  0.5424660000000  0.5991420000000  0.5300950000000 1.0
C      1  0.5426280000000  0.5215860000000  0.5794000000000 1.0
C      1  0.5653680000000  0.5570390000000  0.5476370000000 1.0
C      1  0.5189610000000  0.5834540000000  0.4837540000000 1.0
C      1  0.5031000000000  0.3864810000000  0.4764760000000 1.0
C      1  0.6056430000000  0.5225100000000  0.5071910000000 1.0
C      1  0.5011030000000  0.6067310000000  0.4418810000000 1.0
C      1  0.4090390000000  0.4784720000000  0.5479280000000 1.0
C      1  0.5238900000000  0.5091520000000  0.4002700000000 1.0
C      1  0.5258190000000  0.5070870000000  0.4772870000000 1.0
C      1  0.5237170000000  0.4931050000000  0.4517200000000 1.0
C      1  0.5406660000000  0.4642930000000  0.5831010000000 1.0
C      1  0.4690770000000  0.5674110000000  0.5822000000000 1.0
C      1  0.4840570000000  0.5828500000000  0.4431200000000 1.0
C      1  0.5098990000000  0.4839980000000  0.3989380000000 1.0
C      1  0.5581220000000  0.4394430000000  0.5206560000000 1.0
C      1  0.5649230000000  0.5749740000000  0.4702050000000 1.0
C      1  0.4155370000000  0.4573440000000  0.4462620000000 1.0
C      1  0.5626720000000  0.5100980000000  0.4579550000000 1.0
C      1  0.5871640000000  0.4947010000000  0.4393130000000 1.0
C      1  0.4473890000000  0.5964590000000  0.4943140000000 1.0
C      1  0.5190410000000  0.4120170000000  0.5769470000000 1.0
C      1  0.4530410000000  0.5374810000000  0.4553640000000 1.0
C      1  0.4813860000000  0.4507570000000  0.4727990000000 1.0
C      1  0.5400140000000  0.4669210000000  0.4383930000000 1.0
C      1  0.5619230000000  0.4883120000000  0.4245050000000 1.0
C      1  0.5137720000000  0.5514150000000  0.4796130000000 1.0
C      1  0.5086840000000  0.5340570000000  0.3971360000000 1.0
C      1  0.4691890000000  0.4259350000000  0.5046390000000 1.0
C      1  0.3945660000000  0.4934670000000  0.5037520000000 1.0
C      1  0.5174940000000  0.5443670000000  0.4529680000000 1.0
C      1  0.4185300000000  0.5137060000000  0.4799860000000 1.0
C      1  0.5588610000000  0.4381390000000  0.4450060000000 1.0
C      1  0.4973670000000  0.4957780000000  0.4421490000000 1.0
C      1  0.4047850000000  0.4399810000000  0.5402430000000 1.0
C      1  0.4623670000000  0.4597380000000  0.5755890000000 1.0
C      1  0.5304830000000  0.5760690000000  0.5121300000000 1.0
C      1  0.5877340000000  0.4732340000000  0.5412120000000 1.0
C      1  0.4559980000000  0.4857580000000  0.4185410000000 1.0
C      1  0.5289620000000  0.4956830000000  0.5834970000000 1.0
C      1  0.5130910000000  0.4692450000000  0.5991220000000 1.0
C      1  0.4568560000000  0.5165120000000  0.5488520000000 1.0
C      1  0.5560840000000  0.5287160000000  0.5193890000000 1.0
C      1  0.5501340000000  0.5117970000000  0.4125470000000 1.0
C      1  0.5647090000000  0.3969650000000  0.5706330000000 1.0
C      1  0.5114210000000  0.5581860000000  0.5236080000000 1.0
C      1  0.4553600000000  0.4343090000000  0.4578460000000 1.0
C      1  0.5372100000000  0.5342310000000  0.5421260000000 1.0
C      1  0.4887960000000  0.4547470000000  0.5958690000000 1.0
C      1  0.4617650000000  0.4307780000000  0.5574050000000 1.0
C      1  0.5700790000000  0.5291970000000  0.5666010000000 1.0
C      1  0.4729800000000  0.3955860000000  0.4788630000000 1.0
C      1  0.4700400000000  0.6072050000000  0.4938710000000 1.0
C      1  0.4963290000000  0.4299110000000  0.4512370000000 1.0
C      1  0.4810150000000  0.5059020000000  0.4220870000000 1.0
C      1  0.4425120000000  0.4445290000000  0.4942230000000 1.0
C      1  0.4965430000000  0.4160740000000  0.4920170000000 1.0
C      1  0.4962540000000  0.5956000000000  0.5060240000000 1.0
C      1  0.4584100000000  0.4097840000000  0.5317190000000 1.0
C      1  0.5191330000000  0.3873750000000  0.4533170000000 1.0
C      1  0.4830670000000  0.5702470000000  0.5247450000000 1.0
C      1  0.4229150000000  0.5241980000000  0.5364510000000 1.0
END
