TITL C-2778426-5645-1096 0.00902066146592126 125000 -618.715490309715 0 0 110 (C1) n - 1
REM
REM in /home/nfs/bkarasulu/CARBON/AIRSS/Generating-Clusters/REBO/Only-C1/SD-CG/HFTN-CG
REM
REM
REM
REM
REM
REM ./C.cell (11c1c37f851c82e70ff6c80c92926a4b)
REM
REM compiler GCC version 9.2.1 20190827 (Red Hat 9.2.1-1)
REM options -cpp -mtune=generic -march=x86-64 -g -O0 -fpre-include=/usr/include/finclude/math-vector-fortran.h
REM seed -2084120103 -1521071528 341622216 1122065215 -793730022 174067248 1443211871 -1342232764 1546479939 1425169924 -1385403357 1158949162 -649271024 -1697883642 -1312900898 -1743929612 1757493860 -446417162 -693032103 2044618226 -798513484 -271585475 2041363933 812988983 1890789868 1502835799 1810260246 -1659682021 -1673022614 -2140631445 -658698285 2108519301 -208917462
REM
CELL 1.54180   50.00000   50.00000   50.00000   90.00000   90.00000   90.00000
LATT -1
SFAC C  
C      1  0.4166600000000  0.4844620000000  0.5296970000000 1.0
C      1  0.4090230000000  0.5200240000000  0.4904420000000 1.0
C      1  0.5299050000000  0.4372600000000  0.5677150000000 1.0
C      1  0.4895070000000  0.4087800000000  0.4915700000000 1.0
C      1  0.5240170000000  0.4687270000000  0.4276110000000 1.0
C      1  0.5350970000000  0.5700470000000  0.4950200000000 1.0
C      1  0.4176260000000  0.4396550000000  0.4358900000000 1.0
C      1  0.4068700000000  0.5000380000000  0.4564160000000 1.0
C      1  0.4884610000000  0.4549650000000  0.5156790000000 1.0
C      1  0.4732810000000  0.4261550000000  0.4685390000000 1.0
C      1  0.5397190000000  0.4667880000000  0.4758280000000 1.0
C      1  0.5241050000000  0.4985410000000  0.4109270000000 1.0
C      1  0.4363960000000  0.5586510000000  0.4997500000000 1.0
C      1  0.4836690000000  0.5747060000000  0.4467190000000 1.0
C      1  0.5297880000000  0.5877230000000  0.4740690000000 1.0
C      1  0.4195890000000  0.5308970000000  0.4597840000000 1.0
C      1  0.5575410000000  0.4748120000000  0.5103990000000 1.0
C      1  0.5850290000000  0.5269950000000  0.4753260000000 1.0
C      1  0.5116500000000  0.5493090000000  0.5493550000000 1.0
C      1  0.5018590000000  0.5003780000000  0.4640260000000 1.0
C      1  0.5266330000000  0.4296290000000  0.5208560000000 1.0
C      1  0.5147670000000  0.5099830000000  0.4946790000000 1.0
C      1  0.4834140000000  0.4860050000000  0.5807110000000 1.0
C      1  0.5375660000000  0.5217270000000  0.4262940000000 1.0
C      1  0.5470230000000  0.5424610000000  0.4831790000000 1.0
C      1  0.5204510000000  0.4198410000000  0.4905960000000 1.0
C      1  0.4723830000000  0.4626430000000  0.4345030000000 1.0
C      1  0.4378940000000  0.4683450000000  0.4905430000000 1.0
C      1  0.4552610000000  0.4466380000000  0.5412510000000 1.0
C      1  0.4599330000000  0.5518910000000  0.5447810000000 1.0
C      1  0.4511880000000  0.5131080000000  0.5415510000000 1.0
C      1  0.4529860000000  0.4724000000000  0.5187630000000 1.0
C      1  0.4607730000000  0.5377280000000  0.4958940000000 1.0
C      1  0.5346990000000  0.5414990000000  0.5683160000000 1.0
C      1  0.5833130000000  0.5408780000000  0.4997390000000 1.0
C      1  0.4333280000000  0.5486950000000  0.5383630000000 1.0
C      1  0.5830310000000  0.4471440000000  0.5238990000000 1.0
C      1  0.5316550000000  0.4553360000000  0.5046580000000 1.0
C      1  0.4415370000000  0.4754790000000  0.5507340000000 1.0
C      1  0.5602640000000  0.5548550000000  0.5595560000000 1.0
C      1  0.5630050000000  0.5346950000000  0.4540310000000 1.0
C      1  0.5764510000000  0.4597920000000  0.5479590000000 1.0
C      1  0.4857140000000  0.5557460000000  0.5624120000000 1.0
C      1  0.5431210000000  0.4997210000000  0.4786950000000 1.0
C      1  0.5342230000000  0.5098580000000  0.5626080000000 1.0
C      1  0.5264330000000  0.5196170000000  0.4577560000000 1.0
C      1  0.5692670000000  0.4451360000000  0.4971440000000 1.0
C      1  0.5366440000000  0.5186850000000  0.5941640000000 1.0
C      1  0.4883700000000  0.5681850000000  0.4936860000000 1.0
C      1  0.4725230000000  0.5901720000000  0.5013870000000 1.0
C      1  0.5542960000000  0.5309560000000  0.5143750000000 1.0
C      1  0.4791780000000  0.4883050000000  0.5105370000000 1.0
C      1  0.4303990000000  0.4516850000000  0.4553840000000 1.0
C      1  0.4410120000000  0.4349420000000  0.5121590000000 1.0
C      1  0.5154720000000  0.5461470000000  0.4698860000000 1.0
C      1  0.4464900000000  0.5858660000000  0.5087940000000 1.0
C      1  0.4187640000000  0.5179200000000  0.5355340000000 1.0
C      1  0.5465470000000  0.4628150000000  0.5550150000000 1.0
C      1  0.4823380000000  0.5423580000000  0.4734220000000 1.0
C      1  0.4994090000000  0.4724090000000  0.4915890000000 1.0
C      1  0.4731560000000  0.5289940000000  0.4475640000000 1.0
C      1  0.4382290000000  0.5562110000000  0.4682670000000 1.0
C      1  0.4922700000000  0.5307380000000  0.4270260000000 1.0
C      1  0.4775600000000  0.5236060000000  0.5695700000000 1.0
C      1  0.5745120000000  0.4988920000000  0.4833750000000 1.0
C      1  0.5388760000000  0.5024600000000  0.5180110000000 1.0
C      1  0.4123530000000  0.5420360000000  0.5123700000000 1.0
C      1  0.5963470000000  0.5932920000000  0.5100130000000 1.0
C      1  0.5475790000000  0.4762080000000  0.4470410000000 1.0
C      1  0.4182860000000  0.4534480000000  0.5236890000000 1.0
C      1  0.5269100000000  0.4794520000000  0.5382050000000 1.0
C      1  0.4471760000000  0.4377480000000  0.4788000000000 1.0
C      1  0.4739610000000  0.4263810000000  0.5128660000000 1.0
C      1  0.5020750000000  0.4429160000000  0.4762620000000 1.0
C      1  0.5037530000000  0.5123530000000  0.5882720000000 1.0
C      1  0.4565030000000  0.5109940000000  0.5090870000000 1.0
C      1  0.4524720000000  0.5085620000000  0.4173800000000 1.0
C      1  0.4282490000000  0.4986800000000  0.5018660000000 1.0
C      1  0.5668290000000  0.5545180000000  0.5332700000000 1.0
C      1  0.5115810000000  0.5619690000000  0.5089130000000 1.0
C      1  0.5873750000000  0.4774400000000  0.4704820000000 1.0
C      1  0.5160950000000  0.4235250000000  0.5468270000000 1.0
C      1  0.4870270000000  0.4698710000000  0.4618150000000 1.0
C      1  0.4718190000000  0.4862990000000  0.4170150000000 1.0
C      1  0.5156580000000  0.4405790000000  0.4378730000000 1.0
C      1  0.5786720000000  0.4992790000000  0.5156240000000 1.0
C      1  0.4914650000000  0.4598090000000  0.5698590000000 1.0
C      1  0.5356340000000  0.4292810000000  0.4549750000000 1.0
C      1  0.3836070000000  0.5020650000000  0.4764700000000 1.0
C      1  0.5156350000000  0.5722310000000  0.4494160000000 1.0
C      1  0.4323610000000  0.4832120000000  0.4604510000000 1.0
C      1  0.5517380000000  0.4291760000000  0.4812820000000 1.0
C      1  0.5591640000000  0.5027910000000  0.4423810000000 1.0
C      1  0.4995240000000  0.4916820000000  0.4310620000000 1.0
C      1  0.5820220000000  0.5744670000000  0.5212940000000 1.0
C      1  0.4547820000000  0.5003280000000  0.4503060000000 1.0
C      1  0.5847710000000  0.5057400000000  0.5411440000000 1.0
C      1  0.4584430000000  0.5681350000000  0.4544140000000 1.0
C      1  0.4817580000000  0.5268570000000  0.5355230000000 1.0
C      1  0.4414870000000  0.5325870000000  0.4364740000000 1.0
C      1  0.5018790000000  0.4603100000000  0.5423160000000 1.0
C      1  0.5059220000000  0.4967710000000  0.5575460000000 1.0
C      1  0.5779160000000  0.4867520000000  0.5613510000000 1.0
C      1  0.4870680000000  0.4365710000000  0.4399520000000 1.0
C      1  0.5387700000000  0.5525590000000  0.4380510000000 1.0
C      1  0.4841150000000  0.4290440000000  0.5453970000000 1.0
C      1  0.5540530000000  0.4917690000000  0.5815520000000 1.0
C      1  0.5087050000000  0.5321140000000  0.5199070000000 1.0
C      1  0.4558970000000  0.4969740000000  0.5691960000000 1.0
C      1  0.5404130000000  0.4621190000000  0.5880330000000 1.0
END
