TITL C-2778436-5916-1420 -0.161075573556748 125000 -415.053505000423 0 0 72 (C1) n - 1
REM
REM in /home/nfs/bkarasulu/CARBON/AIRSS/Generating-Clusters/REBO/Only-C1/SD-CG/HFTN-CG
REM
REM
REM
REM
REM
REM ./C.cell (11c1c37f851c82e70ff6c80c92926a4b)
REM
REM compiler GCC version 9.2.1 20190827 (Red Hat 9.2.1-1)
REM options -cpp -mtune=generic -march=x86-64 -g -O0 -fpre-include=/usr/include/finclude/math-vector-fortran.h
REM seed -1506938771 -1747454808 612046496 -1769731536 -1792507490 977030405 -655122763 -1725565583 135846938 887309570 1679826154 707827299 1059900458 -251577343 -1028365139 -1751754161 -971263127 -1066484708 1690185532 1678389165 -1264887450 2100007225 1507687942 1858247789 1015468929 -1838012423 811671550 1660698989 -943821534 1022560324 1566361357 647864115 -792417425
REM
CELL 1.54180   50.00000   50.00000   50.00000   90.00000   90.00000   90.00000
LATT -1
SFAC C  
C      1  0.5441400000000  0.4805720000000  0.5489620000000 1.0
C      1  0.4349980000000  0.4882120000000  0.5270030000000 1.0
C      1  0.5441150000000  0.4534430000000  0.5292380000000 1.0
C      1  0.4917210000000  0.4886460000000  0.4273000000000 1.0
C      1  0.4357030000000  0.4608080000000  0.5070200000000 1.0
C      1  0.4800830000000  0.5318860000000  0.4736560000000 1.0
C      1  0.5641790000000  0.5293700000000  0.4909900000000 1.0
C      1  0.5536300000000  0.5116330000000  0.5457740000000 1.0
C      1  0.5513590000000  0.5348760000000  0.4599510000000 1.0
C      1  0.5182880000000  0.4389120000000  0.5248720000000 1.0
C      1  0.4792100000000  0.5293610000000  0.5079870000000 1.0
C      1  0.4910750000000  0.5019480000000  0.4969040000000 1.0
C      1  0.5085250000000  0.5165080000000  0.5567180000000 1.0
C      1  0.5028540000000  0.4749610000000  0.5094260000000 1.0
C      1  0.4708600000000  0.4360290000000  0.5413200000000 1.0
C      1  0.4654370000000  0.4965580000000  0.4365370000000 1.0
C      1  0.5118690000000  0.5561470000000  0.5475480000000 1.0
C      1  0.4857930000000  0.5766500000000  0.4781010000000 1.0
C      1  0.5618820000000  0.4640010000000  0.4564650000000 1.0
C      1  0.5637720000000  0.4533560000000  0.5082770000000 1.0
C      1  0.4373120000000  0.4988580000000  0.4954520000000 1.0
C      1  0.5460590000000  0.5129310000000  0.4385920000000 1.0
C      1  0.5215590000000  0.4354450000000  0.4741880000000 1.0
C      1  0.4662670000000  0.4834690000000  0.4961320000000 1.0
C      1  0.4476650000000  0.5287530000000  0.4682870000000 1.0
C      1  0.4525430000000  0.5726150000000  0.4376380000000 1.0
C      1  0.5177160000000  0.4808870000000  0.4587180000000 1.0
C      1  0.5290680000000  0.4681280000000  0.4953290000000 1.0
C      1  0.4993980000000  0.4368770000000  0.5470890000000 1.0
C      1  0.4281130000000  0.5285670000000  0.4926150000000 1.0
C      1  0.4705140000000  0.4590440000000  0.4785930000000 1.0
C      1  0.4522090000000  0.4546300000000  0.4552780000000 1.0
C      1  0.4900370000000  0.4739510000000  0.5586170000000 1.0
C      1  0.5507270000000  0.4466900000000  0.4802130000000 1.0
C      1  0.4677750000000  0.5314650000000  0.5358750000000 1.0
C      1  0.4578210000000  0.4958260000000  0.5509010000000 1.0
C      1  0.5015970000000  0.5060590000000  0.4668350000000 1.0
C      1  0.5256490000000  0.5321850000000  0.4808870000000 1.0
C      1  0.5129800000000  0.5327350000000  0.4491540000000 1.0
C      1  0.5190360000000  0.5368660000000  0.5106350000000 1.0
C      1  0.5384930000000  0.4929170000000  0.5089360000000 1.0
C      1  0.4780010000000  0.4366310000000  0.4951480000000 1.0
C      1  0.5651670000000  0.5003880000000  0.5011170000000 1.0
C      1  0.5262730000000  0.4744770000000  0.5755390000000 1.0
C      1  0.5097250000000  0.4526610000000  0.4540820000000 1.0
C      1  0.4743700000000  0.4765050000000  0.5283200000000 1.0
C      1  0.4223630000000  0.5379050000000  0.5182360000000 1.0
C      1  0.5039120000000  0.5754220000000  0.5272750000000 1.0
C      1  0.4925550000000  0.4591950000000  0.4308450000000 1.0
C      1  0.5375100000000  0.5417050000000  0.5457260000000 1.0
C      1  0.5807990000000  0.4767010000000  0.5054920000000 1.0
C      1  0.5197180000000  0.5751300000000  0.4764430000000 1.0
C      1  0.4469670000000  0.4993940000000  0.4566680000000 1.0
C      1  0.4793990000000  0.5011320000000  0.5740320000000 1.0
C      1  0.5126540000000  0.4811820000000  0.5385940000000 1.0
C      1  0.4873490000000  0.5385870000000  0.5550640000000 1.0
C      1  0.5575700000000  0.5341380000000  0.5209000000000 1.0
C      1  0.5064600000000  0.4322790000000  0.4984700000000 1.0
C      1  0.5191000000000  0.5121590000000  0.5261540000000 1.0
C      1  0.4661580000000  0.4478540000000  0.4319490000000 1.0
C      1  0.4380980000000  0.5203240000000  0.5386430000000 1.0
C      1  0.5317510000000  0.5666170000000  0.5001650000000 1.0
C      1  0.4640340000000  0.5582930000000  0.4614670000000 1.0
C      1  0.5444740000000  0.4855330000000  0.4496020000000 1.0
C      1  0.5297970000000  0.5605860000000  0.4538710000000 1.0
C      1  0.4932590000000  0.5565120000000  0.5021470000000 1.0
C      1  0.5081400000000  0.4501670000000  0.5730260000000 1.0
C      1  0.4953280000000  0.5957280000000  0.5050840000000 1.0
C      1  0.5140100000000  0.5070940000000  0.4288350000000 1.0
C      1  0.4574580000000  0.4411690000000  0.5161910000000 1.0
C      1  0.4337330000000  0.4736350000000  0.4751310000000 1.0
C      1  0.5118380000000  0.4981210000000  0.5817700000000 1.0
END
