TITL C-2778437-8639-353 0.00753194498522734 125000 -965.234649155586 0 0 166 (C1) n - 1
REM
REM in /home/nfs/bkarasulu/CARBON/AIRSS/Generating-Clusters/REBO/Only-C1/SD-CG/HFTN-CG
REM
REM
REM
REM
REM
REM ./C.cell (11c1c37f851c82e70ff6c80c92926a4b)
REM
REM compiler GCC version 9.2.1 20190827 (Red Hat 9.2.1-1)
REM options -cpp -mtune=generic -march=x86-64 -g -O0 -fpre-include=/usr/include/finclude/math-vector-fortran.h
REM seed 2119301493 -1656501704 -1204274887 778235238 -701218004 -369804392 1783786229 13444921 -2021882635 -1777368686 614785179 -298117784 -685099636 -411271149 1007789612 -1937068161 -1331396843 -1405661656 1220022582 -429511810 1460344096 -1095736296 1033654179 2089206360 -450699002 -620749597 -1977119681 -672959959 -738403291 1276674765 -1868236317 -1080561500 -1633342977
REM
CELL 1.54180   50.00000   50.00000   50.00000   90.00000   90.00000   90.00000
LATT -1
SFAC C  
C      1  0.5040750000000  0.4869390000000  0.4129530000000 1.0
C      1  0.5491760000000  0.4675990000000  0.4198190000000 1.0
C      1  0.5568280000000  0.4948160000000  0.4934330000000 1.0
C      1  0.4169780000000  0.4416040000000  0.5101390000000 1.0
C      1  0.5267800000000  0.5195800000000  0.4087700000000 1.0
C      1  0.4789660000000  0.4927760000000  0.4809950000000 1.0
C      1  0.4650680000000  0.4553470000000  0.4974080000000 1.0
C      1  0.5190210000000  0.6086130000000  0.5113160000000 1.0
C      1  0.5347600000000  0.4288810000000  0.4672210000000 1.0
C      1  0.5428550000000  0.5998270000000  0.4905190000000 1.0
C      1  0.5094440000000  0.4033350000000  0.4873520000000 1.0
C      1  0.4554750000000  0.5544110000000  0.5382610000000 1.0
C      1  0.4053250000000  0.5479650000000  0.4584230000000 1.0
C      1  0.5189370000000  0.4622780000000  0.4177060000000 1.0
C      1  0.5707230000000  0.5501620000000  0.5683870000000 1.0
C      1  0.5646590000000  0.5580970000000  0.5208480000000 1.0
C      1  0.5185150000000  0.5233770000000  0.5489910000000 1.0
C      1  0.5898290000000  0.5352150000000  0.5553620000000 1.0
C      1  0.5833890000000  0.5381540000000  0.4706760000000 1.0
C      1  0.4963190000000  0.5663030000000  0.4725780000000 1.0
C      1  0.4851220000000  0.5154840000000  0.5238920000000 1.0
C      1  0.5361470000000  0.4168570000000  0.5587560000000 1.0
C      1  0.5706080000000  0.5036680000000  0.5412930000000 1.0
C      1  0.5380720000000  0.5398570000000  0.5290640000000 1.0
C      1  0.5277740000000  0.5537370000000  0.4934890000000 1.0
C      1  0.5265060000000  0.4929730000000  0.5479910000000 1.0
C      1  0.3901350000000  0.5143770000000  0.4933720000000 1.0
C      1  0.5381970000000  0.4233020000000  0.4341240000000 1.0
C      1  0.5432620000000  0.4546540000000  0.5366530000000 1.0
C      1  0.4998450000000  0.4659160000000  0.4815900000000 1.0
C      1  0.4832680000000  0.5798250000000  0.5685550000000 1.0
C      1  0.4126040000000  0.5057130000000  0.4487310000000 1.0
C      1  0.4249870000000  0.5204880000000  0.4217590000000 1.0
C      1  0.4129580000000  0.4867160000000  0.5280770000000 1.0
C      1  0.5125520000000  0.4549870000000  0.5333390000000 1.0
C      1  0.4271030000000  0.5124950000000  0.4784940000000 1.0
C      1  0.4679520000000  0.5319770000000  0.5559100000000 1.0
C      1  0.4753640000000  0.5409800000000  0.5826100000000 1.0
C      1  0.5612440000000  0.4295300000000  0.4217940000000 1.0
C      1  0.4962080000000  0.5876340000000  0.5197510000000 1.0
C      1  0.5213780000000  0.4593640000000  0.5035390000000 1.0
C      1  0.5181860000000  0.4794350000000  0.4613690000000 1.0
C      1  0.5621360000000  0.4347050000000  0.5187990000000 1.0
C      1  0.4766190000000  0.5786330000000  0.4956220000000 1.0
C      1  0.4233570000000  0.4611370000000  0.5327470000000 1.0
C      1  0.5249660000000  0.4962040000000  0.4887700000000 1.0
C      1  0.5760760000000  0.4488840000000  0.5689050000000 1.0
C      1  0.5420610000000  0.5973240000000  0.5337520000000 1.0
C      1  0.5397300000000  0.4592290000000  0.4515590000000 1.0
C      1  0.4095830000000  0.4460220000000  0.4797420000000 1.0
C      1  0.3904500000000  0.5222550000000  0.4658860000000 1.0
C      1  0.3973840000000  0.4501630000000  0.4491430000000 1.0
C      1  0.4510290000000  0.4513450000000  0.5496670000000 1.0
C      1  0.5655350000000  0.4731580000000  0.5310610000000 1.0
C      1  0.5531350000000  0.4979150000000  0.4072380000000 1.0
C      1  0.5791810000000  0.5117060000000  0.4196610000000 1.0
C      1  0.5143420000000  0.5252200000000  0.5787120000000 1.0
C      1  0.5472140000000  0.5348570000000  0.4543010000000 1.0
C      1  0.4225610000000  0.4588880000000  0.4317100000000 1.0
C      1  0.5290430000000  0.5762390000000  0.4731060000000 1.0
C      1  0.4921960000000  0.5176920000000  0.4824690000000 1.0
C      1  0.4538880000000  0.5592420000000  0.5067400000000 1.0
C      1  0.4160070000000  0.5284140000000  0.5054730000000 1.0
C      1  0.5615510000000  0.4575380000000  0.4739000000000 1.0
C      1  0.5932350000000  0.4597770000000  0.5193400000000 1.0
C      1  0.5693260000000  0.5627300000000  0.4720390000000 1.0
C      1  0.4634390000000  0.5210590000000  0.6027020000000 1.0
C      1  0.4323410000000  0.4791330000000  0.4571970000000 1.0
C      1  0.4689190000000  0.5436810000000  0.4163070000000 1.0
C      1  0.4541560000000  0.5833080000000  0.5652830000000 1.0
C      1  0.5569570000000  0.4943250000000  0.4589820000000 1.0
C      1  0.4728240000000  0.4529830000000  0.5761840000000 1.0
C      1  0.4566200000000  0.5052220000000  0.5560970000000 1.0
C      1  0.4395830000000  0.5567080000000  0.5692150000000 1.0
C      1  0.4994980000000  0.4757260000000  0.5516540000000 1.0
C      1  0.5097610000000  0.4130040000000  0.5656580000000 1.0
C      1  0.4548520000000  0.5015430000000  0.4448790000000 1.0
C      1  0.4802030000000  0.5941120000000  0.4364010000000 1.0
C      1  0.4523790000000  0.4922810000000  0.4889290000000 1.0
C      1  0.5383680000000  0.5024130000000  0.4361150000000 1.0
C      1  0.4264060000000  0.5147380000000  0.5316870000000 1.0
C      1  0.5392900000000  0.5105550000000  0.5938140000000 1.0
C      1  0.4601070000000  0.3981950000000  0.5120370000000 1.0
C      1  0.5035960000000  0.4939200000000  0.5123280000000 1.0
C      1  0.5042400000000  0.6005800000000  0.4533720000000 1.0
C      1  0.5331730000000  0.4591850000000  0.5817850000000 1.0
C      1  0.4356980000000  0.4809980000000  0.5936380000000 1.0
C      1  0.5015460000000  0.5515010000000  0.5900610000000 1.0
C      1  0.5138150000000  0.5724830000000  0.4366570000000 1.0
C      1  0.5024630000000  0.5679620000000  0.5536970000000 1.0
C      1  0.4524690000000  0.5991100000000  0.5046830000000 1.0
C      1  0.5902080000000  0.5186510000000  0.4960600000000 1.0
C      1  0.5248470000000  0.5265480000000  0.4769200000000 1.0
C      1  0.5610620000000  0.5731420000000  0.5490610000000 1.0
C      1  0.5132170000000  0.4065760000000  0.5195080000000 1.0
C      1  0.5767670000000  0.5254870000000  0.4439820000000 1.0
C      1  0.4828460000000  0.5183430000000  0.4438770000000 1.0
C      1  0.4635640000000  0.4211580000000  0.4591600000000 1.0
C      1  0.4369340000000  0.5048480000000  0.5775200000000 1.0
C      1  0.4363140000000  0.5343870000000  0.5876560000000 1.0
C      1  0.4550470000000  0.5323140000000  0.4580790000000 1.0
C      1  0.5828460000000  0.5296980000000  0.5231090000000 1.0
C      1  0.4661260000000  0.5758120000000  0.4221770000000 1.0
C      1  0.4135630000000  0.4689850000000  0.6033830000000 1.0
C      1  0.4838040000000  0.5352280000000  0.3890700000000 1.0
C      1  0.4560030000000  0.4306640000000  0.4271140000000 1.0
C      1  0.4163220000000  0.5291010000000  0.5535410000000 1.0
C      1  0.4839970000000  0.4290620000000  0.5042460000000 1.0
C      1  0.5055090000000  0.5003140000000  0.4405230000000 1.0
C      1  0.5885570000000  0.4846220000000  0.5005320000000 1.0
C      1  0.5060970000000  0.4434320000000  0.4332550000000 1.0
C      1  0.5908650000000  0.4573420000000  0.4696870000000 1.0
C      1  0.3900820000000  0.4902670000000  0.5101020000000 1.0
C      1  0.5984550000000  0.4621900000000  0.5506120000000 1.0
C      1  0.4288570000000  0.5417720000000  0.4431060000000 1.0
C      1  0.4094300000000  0.5670610000000  0.4792280000000 1.0
C      1  0.4615780000000  0.4605730000000  0.4114420000000 1.0
C      1  0.5625140000000  0.5755860000000  0.4961250000000 1.0
C      1  0.4346060000000  0.4392700000000  0.4574920000000 1.0
C      1  0.5887170000000  0.4972600000000  0.4696350000000 1.0
C      1  0.4409870000000  0.4845320000000  0.4187190000000 1.0
C      1  0.5776030000000  0.4831950000000  0.5675410000000 1.0
C      1  0.4230340000000  0.5572800000000  0.5007200000000 1.0
C      1  0.4962640000000  0.4297130000000  0.5319860000000 1.0
C      1  0.4536380000000  0.5145070000000  0.4073320000000 1.0
C      1  0.6067750000000  0.4431330000000  0.4856550000000 1.0
C      1  0.4984970000000  0.5437640000000  0.5330360000000 1.0
C      1  0.5424040000000  0.4109930000000  0.4933420000000 1.0
C      1  0.5051040000000  0.4593740000000  0.5784760000000 1.0
C      1  0.5433960000000  0.4107510000000  0.5284680000000 1.0
C      1  0.5090330000000  0.4132680000000  0.4527530000000 1.0
C      1  0.4565820000000  0.5186110000000  0.5183830000000 1.0
C      1  0.4523430000000  0.5322380000000  0.4893510000000 1.0
C      1  0.5777390000000  0.4535060000000  0.4212380000000 1.0
C      1  0.5501200000000  0.4379660000000  0.5724260000000 1.0
C      1  0.4685620000000  0.4790500000000  0.5461680000000 1.0
C      1  0.5287290000000  0.5618160000000  0.5856050000000 1.0
C      1  0.4748960000000  0.4892260000000  0.3987880000000 1.0
C      1  0.4969800000000  0.5445460000000  0.4992460000000 1.0
C      1  0.4596840000000  0.4602010000000  0.4663980000000 1.0
C      1  0.4887900000000  0.5507250000000  0.4433100000000 1.0
C      1  0.5139500000000  0.6126630000000  0.4775990000000 1.0
C      1  0.5436100000000  0.5073730000000  0.5222950000000 1.0
C      1  0.4754000000000  0.4023210000000  0.4850460000000 1.0
C      1  0.4658170000000  0.5865080000000  0.5332740000000 1.0
C      1  0.4456100000000  0.4352610000000  0.5121030000000 1.0
C      1  0.4236510000000  0.4750940000000  0.4899450000000 1.0
C      1  0.5069320000000  0.5004070000000  0.5992430000000 1.0
C      1  0.4776890000000  0.4526530000000  0.4391630000000 1.0
C      1  0.5818600000000  0.4754560000000  0.4445980000000 1.0
C      1  0.4630550000000  0.4728550000000  0.5974530000000 1.0
C      1  0.5919710000000  0.4274230000000  0.5089620000000 1.0
C      1  0.5249870000000  0.5477670000000  0.4161190000000 1.0
C      1  0.5481680000000  0.4524660000000  0.4972660000000 1.0
C      1  0.5308000000000  0.5792280000000  0.5597540000000 1.0
C      1  0.5498070000000  0.5420600000000  0.5861920000000 1.0
C      1  0.4793080000000  0.4960690000000  0.6040440000000 1.0
C      1  0.5462270000000  0.4868960000000  0.5741770000000 1.0
C      1  0.5719180000000  0.4041780000000  0.4952820000000 1.0
C      1  0.4576380000000  0.4201380000000  0.5372130000000 1.0
C      1  0.4799540000000  0.4756320000000  0.5168520000000 1.0
C      1  0.4801610000000  0.4258390000000  0.5596550000000 1.0
C      1  0.5451970000000  0.5659260000000  0.4480370000000 1.0
C      1  0.5002770000000  0.5112760000000  0.3913880000000 1.0
C      1  0.4906980000000  0.4367080000000  0.4730380000000 1.0
C      1  0.5255180000000  0.5704560000000  0.5211460000000 1.0
END
