TITL C-2778432-5617-1037 -0.000852369643346506 125000 -180.31300908149 0 0 32 (C1) n - 1
REM
REM in /home/nfs/bkarasulu/CARBON/AIRSS/Generating-Clusters/REBO/Only-C1/SD-CG/HFTN-CG
REM
REM
REM
REM
REM
REM ./C.cell (11c1c37f851c82e70ff6c80c92926a4b)
REM
REM compiler GCC version 9.2.1 20190827 (Red Hat 9.2.1-1)
REM options -cpp -mtune=generic -march=x86-64 -g -O0 -fpre-include=/usr/include/finclude/math-vector-fortran.h
REM seed 231272698 -2138875441 -1752000454 1338565332 1325059223 -1189246572 -90721455 -292718798 -1970949275 776287203 1807626141 -1810063746 -1843958043 1712887352 -379462830 -1446667102 1327293235 615342267 1750654279 -2128719389 947777925 -471593942 -1503687712 -540370296 -116675251 669377921 -1631945912 1631014899 678108164 1569732209 -780558127 2119026054 -843719120
REM
CELL 1.54180   50.00000   50.00000   50.00000   90.00000   90.00000   90.00000
LATT -1
SFAC C  
C      1  0.5216600000000  0.4361250000000  0.4853640000000 1.0
C      1  0.4970440000000  0.4254270000000  0.4909240000000 1.0
C      1  0.5765700000000  0.5034780000000  0.5101720000000 1.0
C      1  0.4701890000000  0.5076390000000  0.4869280000000 1.0
C      1  0.5140870000000  0.5372080000000  0.5024350000000 1.0
C      1  0.5351120000000  0.4594530000000  0.4937530000000 1.0
C      1  0.5334240000000  0.4896540000000  0.4893520000000 1.0
C      1  0.4559950000000  0.4892440000000  0.5067040000000 1.0
C      1  0.4749610000000  0.4342700000000  0.5045330000000 1.0
C      1  0.4886320000000  0.5483990000000  0.5119980000000 1.0
C      1  0.5320780000000  0.5241130000000  0.5202290000000 1.0
C      1  0.4800820000000  0.4930560000000  0.5591510000000 1.0
C      1  0.4853010000000  0.5107180000000  0.4358910000000 1.0
C      1  0.5103570000000  0.5119230000000  0.4157390000000 1.0
C      1  0.4744090000000  0.4628490000000  0.5149840000000 1.0
C      1  0.5216580000000  0.5133450000000  0.5452160000000 1.0
C      1  0.5139470000000  0.5289120000000  0.4733310000000 1.0
C      1  0.5259980000000  0.4838660000000  0.5490880000000 1.0
C      1  0.4616340000000  0.5398330000000  0.4939200000000 1.0
C      1  0.4624120000000  0.4836920000000  0.5386200000000 1.0
C      1  0.4639460000000  0.5102940000000  0.4535210000000 1.0
C      1  0.4506400000000  0.5341660000000  0.4645700000000 1.0
C      1  0.4568940000000  0.5515330000000  0.5248370000000 1.0
C      1  0.4812450000000  0.5417790000000  0.5437800000000 1.0
C      1  0.5014860000000  0.5016580000000  0.4892350000000 1.0
C      1  0.5135010000000  0.5224850000000  0.4462610000000 1.0
C      1  0.5029800000000  0.4754130000000  0.5654740000000 1.0
C      1  0.5016660000000  0.4755170000000  0.5084090000000 1.0
C      1  0.5500450000000  0.5062690000000  0.5057770000000 1.0
C      1  0.4939010000000  0.5193500000000  0.5544240000000 1.0
C      1  0.5205150000000  0.5082700000000  0.3916520000000 1.0
C      1  0.5276310000000  0.4700600000000  0.5237260000000 1.0
END
