TITL C-2778429-3646-416 -0.0013374126635183 125000 -749.762824047669 0 0 127 (C1) n - 1
REM
REM in /home/nfs/bkarasulu/CARBON/AIRSS/Generating-Clusters/REBO/Only-C1/SD-CG/HFTN-CG
REM
REM
REM
REM
REM
REM ./C.cell (11c1c37f851c82e70ff6c80c92926a4b)
REM
REM compiler GCC version 9.2.1 20190827 (Red Hat 9.2.1-1)
REM options -cpp -mtune=generic -march=x86-64 -g -O0 -fpre-include=/usr/include/finclude/math-vector-fortran.h
REM seed -896992979 1566271090 1763196585 -420591376 -1334990751 -84511634 -1404809438 1067731419 -1545657552 1671967604 -883384960 -2125236884 364410720 -142514991 693576920 -750004324 1458250866 -1128280444 3379613 -850043799 7808265 776779929 -668380843 -1167251250 1796768065 1652665337 1226681539 881772000 -1576092880 1209685928 -1680406469 389168389 -2128685308
REM
CELL 1.54180   50.00000   50.00000   50.00000   90.00000   90.00000   90.00000
LATT -1
SFAC C  
C      1  0.4742340000000  0.4185430000000  0.5420380000000 1.0
C      1  0.4852990000000  0.5737660000000  0.4227540000000 1.0
C      1  0.4799750000000  0.4384210000000  0.5610760000000 1.0
C      1  0.4963190000000  0.4988220000000  0.4422200000000 1.0
C      1  0.5183670000000  0.4559170000000  0.4247300000000 1.0
C      1  0.4844500000000  0.4051160000000  0.4929620000000 1.0
C      1  0.4659310000000  0.4635160000000  0.5731410000000 1.0
C      1  0.4670760000000  0.4940490000000  0.4107730000000 1.0
C      1  0.5147680000000  0.5287110000000  0.4738290000000 1.0
C      1  0.4565510000000  0.5242570000000  0.5198080000000 1.0
C      1  0.4431980000000  0.5117810000000  0.4273470000000 1.0
C      1  0.4372490000000  0.5156870000000  0.5448300000000 1.0
C      1  0.4006300000000  0.4709040000000  0.5231430000000 1.0
C      1  0.5549300000000  0.4973150000000  0.5999870000000 1.0
C      1  0.5544610000000  0.5935380000000  0.5125900000000 1.0
C      1  0.5479600000000  0.4563080000000  0.4351480000000 1.0
C      1  0.4782220000000  0.5910200000000  0.4508440000000 1.0
C      1  0.4959210000000  0.5545860000000  0.5251870000000 1.0
C      1  0.5231760000000  0.5530590000000  0.4961980000000 1.0
C      1  0.5701430000000  0.4517300000000  0.5239320000000 1.0
C      1  0.4693960000000  0.4932480000000  0.4505940000000 1.0
C      1  0.5804550000000  0.4900070000000  0.5129780000000 1.0
C      1  0.4310720000000  0.4942500000000  0.5118390000000 1.0
C      1  0.5445070000000  0.4161350000000  0.4636780000000 1.0
C      1  0.5062520000000  0.5989690000000  0.4662310000000 1.0
C      1  0.4673550000000  0.4219370000000  0.4782730000000 1.0
C      1  0.5676110000000  0.4800000000000  0.4485390000000 1.0
C      1  0.4148080000000  0.5304770000000  0.4831920000000 1.0
C      1  0.4113340000000  0.5001680000000  0.4730660000000 1.0
C      1  0.5342140000000  0.4550680000000  0.5013310000000 1.0
C      1  0.5418970000000  0.5336370000000  0.5731250000000 1.0
C      1  0.5845750000000  0.4899540000000  0.5640360000000 1.0
C      1  0.5173300000000  0.4013240000000  0.5010990000000 1.0
C      1  0.5012010000000  0.4321320000000  0.4420910000000 1.0
C      1  0.5085700000000  0.5822040000000  0.5508960000000 1.0
C      1  0.4927430000000  0.5162490000000  0.4922320000000 1.0
C      1  0.5510460000000  0.5625070000000  0.4691330000000 1.0
C      1  0.5419720000000  0.4275900000000  0.5556720000000 1.0
C      1  0.5013980000000  0.4447770000000  0.5214520000000 1.0
C      1  0.5018280000000  0.4638700000000  0.5563110000000 1.0
C      1  0.5242850000000  0.5557480000000  0.4260760000000 1.0
C      1  0.3976130000000  0.4791170000000  0.4965200000000 1.0
C      1  0.4435130000000  0.5150670000000  0.4913400000000 1.0
C      1  0.5634740000000  0.5402450000000  0.4526350000000 1.0
C      1  0.5802460000000  0.5063410000000  0.5879960000000 1.0
C      1  0.5049340000000  0.5088860000000  0.5879280000000 1.0
C      1  0.4453130000000  0.5383300000000  0.4393910000000 1.0
C      1  0.4873430000000  0.4440280000000  0.4149010000000 1.0
C      1  0.5383360000000  0.5860980000000  0.5348080000000 1.0
C      1  0.5339470000000  0.5229290000000  0.5080630000000 1.0
C      1  0.5330280000000  0.5131350000000  0.5904060000000 1.0
C      1  0.5234130000000  0.5641160000000  0.4579150000000 1.0
C      1  0.5454020000000  0.5330640000000  0.4246160000000 1.0
C      1  0.4922820000000  0.4059340000000  0.5237900000000 1.0
C      1  0.5392260000000  0.4496560000000  0.6076690000000 1.0
C      1  0.4404520000000  0.4418850000000  0.5130540000000 1.0
C      1  0.4958460000000  0.4750520000000  0.4073310000000 1.0
C      1  0.5133480000000  0.4194750000000  0.4693360000000 1.0
C      1  0.5712740000000  0.4642120000000  0.5712070000000 1.0
C      1  0.5025230000000  0.5858110000000  0.5179280000000 1.0
C      1  0.5839830000000  0.4862120000000  0.4799190000000 1.0
C      1  0.4608990000000  0.4620220000000  0.4204630000000 1.0
C      1  0.5355470000000  0.5045530000000  0.4729350000000 1.0
C      1  0.5686330000000  0.4582130000000  0.4749330000000 1.0
C      1  0.5070820000000  0.5073230000000  0.5462620000000 1.0
C      1  0.4435390000000  0.4532790000000  0.4391990000000 1.0
C      1  0.5743700000000  0.5134480000000  0.4693180000000 1.0
C      1  0.4751520000000  0.5120570000000  0.5565630000000 1.0
C      1  0.4808900000000  0.4418870000000  0.4632160000000 1.0
C      1  0.4841700000000  0.4662780000000  0.4760220000000 1.0
C      1  0.4368740000000  0.5307270000000  0.5721620000000 1.0
C      1  0.5749180000000  0.5311820000000  0.5368260000000 1.0
C      1  0.4830550000000  0.5230990000000  0.4030800000000 1.0
C      1  0.5543970000000  0.4680930000000  0.5950670000000 1.0
C      1  0.5299960000000  0.4907770000000  0.5476220000000 1.0
C      1  0.5516290000000  0.4948650000000  0.5013980000000 1.0
C      1  0.5577280000000  0.5794390000000  0.4890850000000 1.0
C      1  0.4105240000000  0.4668780000000  0.4707790000000 1.0
C      1  0.5141640000000  0.5872150000000  0.4349230000000 1.0
C      1  0.5800450000000  0.5421700000000  0.5109310000000 1.0
C      1  0.4378480000000  0.5548840000000  0.5520160000000 1.0
C      1  0.5128020000000  0.5850000000000  0.4901600000000 1.0
C      1  0.4611140000000  0.5157910000000  0.4682590000000 1.0
C      1  0.4914880000000  0.4844910000000  0.5802500000000 1.0
C      1  0.4226690000000  0.5604050000000  0.5275060000000 1.0
C      1  0.4418760000000  0.4336500000000  0.4852200000000 1.0
C      1  0.4901860000000  0.5242180000000  0.5219080000000 1.0
C      1  0.5703380000000  0.4389680000000  0.4985030000000 1.0
C      1  0.4133810000000  0.4641460000000  0.5466300000000 1.0
C      1  0.5431770000000  0.4694250000000  0.5309760000000 1.0
C      1  0.5065150000000  0.5313170000000  0.4425400000000 1.0
C      1  0.5554740000000  0.4310530000000  0.4439370000000 1.0
C      1  0.4718180000000  0.5423330000000  0.4586550000000 1.0
C      1  0.5296490000000  0.5558760000000  0.5297720000000 1.0
C      1  0.4557820000000  0.4896760000000  0.5446950000000 1.0
C      1  0.4497110000000  0.5651690000000  0.4827490000000 1.0
C      1  0.5651040000000  0.5093030000000  0.4374410000000 1.0
C      1  0.4668170000000  0.5545070000000  0.5105430000000 1.0
C      1  0.4689730000000  0.5454150000000  0.5535120000000 1.0
C      1  0.4350330000000  0.4919050000000  0.4501120000000 1.0
C      1  0.5188860000000  0.4922550000000  0.5094640000000 1.0
C      1  0.5021010000000  0.4748370000000  0.5239280000000 1.0
C      1  0.5837160000000  0.5029250000000  0.5383730000000 1.0
C      1  0.5068540000000  0.4382090000000  0.4931950000000 1.0
C      1  0.4407910000000  0.5756470000000  0.5106520000000 1.0
C      1  0.4901690000000  0.5628940000000  0.4608460000000 1.0
C      1  0.4478000000000  0.4216520000000  0.5316810000000 1.0
C      1  0.4939670000000  0.5610270000000  0.5654100000000 1.0
C      1  0.5492310000000  0.5393820000000  0.5470070000000 1.0
C      1  0.5429600000000  0.4218440000000  0.4959800000000 1.0
C      1  0.4611690000000  0.5249410000000  0.5866400000000 1.0
C      1  0.4081090000000  0.5384810000000  0.5136980000000 1.0
C      1  0.4114900000000  0.5129730000000  0.5272920000000 1.0
C      1  0.5377040000000  0.4706030000000  0.4730830000000 1.0
C      1  0.5166560000000  0.4346150000000  0.5463940000000 1.0
C      1  0.4860440000000  0.4905880000000  0.4867760000000 1.0
C      1  0.4434810000000  0.4688170000000  0.5207170000000 1.0
C      1  0.4299720000000  0.4487700000000  0.4636750000000 1.0
C      1  0.5651110000000  0.4439090000000  0.5525540000000 1.0
C      1  0.4861840000000  0.5456400000000  0.4205580000000 1.0
C      1  0.4332920000000  0.5494190000000  0.4660720000000 1.0
C      1  0.5626170000000  0.5320680000000  0.4922130000000 1.0
C      1  0.5290460000000  0.5065630000000  0.4203610000000 1.0
C      1  0.5059160000000  0.5035640000000  0.4037640000000 1.0
C      1  0.5272260000000  0.4882080000000  0.4463370000000 1.0
C      1  0.4380540000000  0.4675430000000  0.5602570000000 1.0
C      1  0.4898870000000  0.5346960000000  0.5857680000000 1.0
END
