TITL C-2778422-5617-955 0.00490932619719877 125000 -384.166874266363 0 0 67 (C1) n - 1
REM
REM in /home/nfs/bkarasulu/CARBON/AIRSS/Generating-Clusters/REBO/Only-C1/SD-CG/HFTN-CG
REM
REM
REM
REM
REM
REM ./C.cell (11c1c37f851c82e70ff6c80c92926a4b)
REM
REM compiler GCC version 9.2.1 20190827 (Red Hat 9.2.1-1)
REM options -cpp -mtune=generic -march=x86-64 -g -O0 -fpre-include=/usr/include/finclude/math-vector-fortran.h
REM seed 1351062377 1580234827 1218746862 73642991 1403652626 -1157059382 -1060769227 1522608775 -1554291625 -807405856 1561124159 -1078009 -546580694 -1049958813 -1719548462 486043063 -838262295 -916129114 -1301380906 1494963880 1002962418 241293408 672795967 440867072 283911240 1160882884 260032279 -911080643 238333449 921888594 299305893 1022551103 2131031259
REM
CELL 1.54180   50.00000   50.00000   50.00000   90.00000   90.00000   90.00000
LATT -1
SFAC C  
C      1  0.4791910000000  0.5774400000000  0.4662140000000 1.0
C      1  0.4615120000000  0.4592770000000  0.4671030000000 1.0
C      1  0.4570490000000  0.4968730000000  0.5527270000000 1.0
C      1  0.5347580000000  0.5647830000000  0.4900530000000 1.0
C      1  0.5711620000000  0.5254600000000  0.4764900000000 1.0
C      1  0.4314980000000  0.5304360000000  0.5037070000000 1.0
C      1  0.5238650000000  0.5642000000000  0.5195030000000 1.0
C      1  0.4856000000000  0.4900260000000  0.5638420000000 1.0
C      1  0.4120240000000  0.4428970000000  0.4425110000000 1.0
C      1  0.5083860000000  0.5079000000000  0.5665720000000 1.0
C      1  0.5288480000000  0.5489740000000  0.5435080000000 1.0
C      1  0.4789610000000  0.4417850000000  0.5501230000000 1.0
C      1  0.5227690000000  0.4285500000000  0.5185720000000 1.0
C      1  0.5255210000000  0.4676930000000  0.5066690000000 1.0
C      1  0.5690330000000  0.4842380000000  0.5287620000000 1.0
C      1  0.5278790000000  0.4389660000000  0.4885070000000 1.0
C      1  0.4963460000000  0.4257910000000  0.5276910000000 1.0
C      1  0.5615820000000  0.4574240000000  0.5204090000000 1.0
C      1  0.5029330000000  0.4807830000000  0.4408740000000 1.0
C      1  0.4497190000000  0.5076440000000  0.5210680000000 1.0
C      1  0.4932540000000  0.4620750000000  0.5651220000000 1.0
C      1  0.5304750000000  0.5183670000000  0.5179390000000 1.0
C      1  0.4643210000000  0.5117420000000  0.4906020000000 1.0
C      1  0.5344510000000  0.4955670000000  0.5679930000000 1.0
C      1  0.5623410000000  0.5284360000000  0.5092370000000 1.0
C      1  0.5084780000000  0.4376250000000  0.4642500000000 1.0
C      1  0.4974940000000  0.5669110000000  0.5031410000000 1.0
C      1  0.4469460000000  0.5473680000000  0.5233850000000 1.0
C      1  0.5557190000000  0.5000390000000  0.5495930000000 1.0
C      1  0.4359910000000  0.4508300000000  0.4544210000000 1.0
C      1  0.5054330000000  0.4809260000000  0.4749520000000 1.0
C      1  0.4588760000000  0.5611430000000  0.4796340000000 1.0
C      1  0.5582020000000  0.4521880000000  0.4903620000000 1.0
C      1  0.4902510000000  0.4536020000000  0.4502370000000 1.0
C      1  0.5078170000000  0.5629900000000  0.4709760000000 1.0
C      1  0.4821870000000  0.5365930000000  0.5381400000000 1.0
C      1  0.4600220000000  0.5335710000000  0.4708180000000 1.0
C      1  0.5584500000000  0.5559310000000  0.4806060000000 1.0
C      1  0.4366750000000  0.4815270000000  0.5644030000000 1.0
C      1  0.4811090000000  0.4830470000000  0.5217580000000 1.0
C      1  0.4750610000000  0.5582630000000  0.5160530000000 1.0
C      1  0.4953980000000  0.5063280000000  0.4926580000000 1.0
C      1  0.4701790000000  0.5533020000000  0.4271790000000 1.0
C      1  0.5604080000000  0.4741600000000  0.4717360000000 1.0
C      1  0.4868570000000  0.4605390000000  0.4892610000000 1.0
C      1  0.4983720000000  0.5122740000000  0.5240600000000 1.0
C      1  0.5785110000000  0.5013160000000  0.5074590000000 1.0
C      1  0.4765830000000  0.5328600000000  0.4467580000000 1.0
C      1  0.5228010000000  0.5078740000000  0.4399840000000 1.0
C      1  0.5456950000000  0.5260290000000  0.4574290000000 1.0
C      1  0.5539230000000  0.5306250000000  0.5403350000000 1.0
C      1  0.5072830000000  0.5347930000000  0.5557360000000 1.0
C      1  0.4113790000000  0.4201960000000  0.4274050000000 1.0
C      1  0.5092690000000  0.4685850000000  0.5291950000000 1.0
C      1  0.5402120000000  0.4441220000000  0.5357740000000 1.0
C      1  0.5358550000000  0.4832800000000  0.4597900000000 1.0
C      1  0.4732550000000  0.5791220000000  0.4378690000000 1.0
C      1  0.4534830000000  0.5292560000000  0.5504590000000 1.0
C      1  0.5224700000000  0.5167530000000  0.4787320000000 1.0
C      1  0.5352560000000  0.4928940000000  0.4984660000000 1.0
C      1  0.5229290000000  0.4591590000000  0.5565120000000 1.0
C      1  0.5796580000000  0.4939570000000  0.4786920000000 1.0
C      1  0.5069500000000  0.5343090000000  0.4545670000000 1.0
C      1  0.4760540000000  0.4495580000000  0.5178340000000 1.0
C      1  0.3895710000000  0.4579540000000  0.4461410000000 1.0
C      1  0.4601110000000  0.4793470000000  0.4948470000000 1.0
C      1  0.4153510000000  0.5315260000000  0.4825930000000 1.0
END
