TITL C-2778435-5768-178 -0.00365751732555538 125000 -660.702171095481 0 0 114 (C1) n - 1
REM
REM in /home/nfs/bkarasulu/CARBON/AIRSS/Generating-Clusters/REBO/Only-C1/SD-CG/HFTN-CG
REM
REM
REM
REM
REM
REM ./C.cell (11c1c37f851c82e70ff6c80c92926a4b)
REM
REM compiler GCC version 9.2.1 20190827 (Red Hat 9.2.1-1)
REM options -cpp -mtune=generic -march=x86-64 -g -O0 -fpre-include=/usr/include/finclude/math-vector-fortran.h
REM seed -1193870207 1497259669 196134816 1041557968 154424258 -1370028183 -1960040083 -1770385872 -2078226875 -611734486 -1874514134 -1765079478 -860118413 1674500132 268668451 -825542272 1792559198 214342348 -254368289 411528439 2144420078 1826613761 -2129690133 650766290 -55289326 432283545 1601437085 1462926818 1049894190 -664673740 -1199205812 136619509 -1398251800
REM
CELL 1.54180   50.00000   50.00000   50.00000   90.00000   90.00000   90.00000
LATT -1
SFAC C  
C      1  0.5100850000000  0.5638260000000  0.5088640000000 1.0
C      1  0.5599140000000  0.4470850000000  0.4642560000000 1.0
C      1  0.5557470000000  0.5664140000000  0.5383560000000 1.0
C      1  0.4722950000000  0.4139840000000  0.5124590000000 1.0
C      1  0.4376950000000  0.4871400000000  0.5515660000000 1.0
C      1  0.4259490000000  0.5442570000000  0.4495840000000 1.0
C      1  0.5667210000000  0.4449010000000  0.5150840000000 1.0
C      1  0.5374710000000  0.5751320000000  0.5659770000000 1.0
C      1  0.4860340000000  0.5615540000000  0.5287370000000 1.0
C      1  0.4495510000000  0.4397590000000  0.4572320000000 1.0
C      1  0.5416640000000  0.5595300000000  0.4532610000000 1.0
C      1  0.5577920000000  0.4991880000000  0.4926150000000 1.0
C      1  0.5022680000000  0.4182690000000  0.5510570000000 1.0
C      1  0.4401820000000  0.4621810000000  0.5282050000000 1.0
C      1  0.5145740000000  0.5590260000000  0.4461250000000 1.0
C      1  0.4340870000000  0.5260370000000  0.4699350000000 1.0
C      1  0.5087850000000  0.5151800000000  0.5272980000000 1.0
C      1  0.5279820000000  0.4492600000000  0.4275390000000 1.0
C      1  0.5238810000000  0.5153540000000  0.4148560000000 1.0
C      1  0.4261230000000  0.4267470000000  0.5072660000000 1.0
C      1  0.4744290000000  0.4350730000000  0.4436110000000 1.0
C      1  0.4946270000000  0.4219660000000  0.4582770000000 1.0
C      1  0.5610420000000  0.4681240000000  0.5396040000000 1.0
C      1  0.5519190000000  0.4310670000000  0.5415350000000 1.0
C      1  0.5159340000000  0.5580200000000  0.5821430000000 1.0
C      1  0.5229740000000  0.4276730000000  0.5297750000000 1.0
C      1  0.4325990000000  0.5390680000000  0.4232010000000 1.0
C      1  0.5388030000000  0.5170780000000  0.5366060000000 1.0
C      1  0.4979690000000  0.5770500000000  0.4581910000000 1.0
C      1  0.5577560000000  0.5306010000000  0.4538310000000 1.0
C      1  0.4573220000000  0.4911780000000  0.5240290000000 1.0
C      1  0.4820330000000  0.5315750000000  0.5308020000000 1.0
C      1  0.4615100000000  0.4543160000000  0.5764790000000 1.0
C      1  0.5501450000000  0.4368420000000  0.4371970000000 1.0
C      1  0.4601470000000  0.5656770000000  0.5499450000000 1.0
C      1  0.5267620000000  0.4738070000000  0.5031430000000 1.0
C      1  0.5399980000000  0.4559540000000  0.5612800000000 1.0
C      1  0.5496450000000  0.4791330000000  0.4428650000000 1.0
C      1  0.4401560000000  0.5325400000000  0.5597420000000 1.0
C      1  0.4528460000000  0.4330020000000  0.5039580000000 1.0
C      1  0.4567700000000  0.4681500000000  0.4081290000000 1.0
C      1  0.5000810000000  0.5871490000000  0.4873760000000 1.0
C      1  0.4394740000000  0.5125630000000  0.4165500000000 1.0
C      1  0.4947390000000  0.4122460000000  0.4910130000000 1.0
C      1  0.4694370000000  0.4998890000000  0.4071990000000 1.0
C      1  0.4773350000000  0.5416670000000  0.4673760000000 1.0
C      1  0.4622580000000  0.4441430000000  0.5467980000000 1.0
C      1  0.4234480000000  0.4927480000000  0.4914870000000 1.0
C      1  0.4674940000000  0.5203020000000  0.5567920000000 1.0
C      1  0.5901510000000  0.5028030000000  0.4816840000000 1.0
C      1  0.5903000000000  0.5011250000000  0.5158400000000 1.0
C      1  0.4679200000000  0.5472150000000  0.4409630000000 1.0
C      1  0.4763090000000  0.4182190000000  0.5403540000000 1.0
C      1  0.5329700000000  0.5925720000000  0.4946780000000 1.0
C      1  0.5739190000000  0.5012340000000  0.4522670000000 1.0
C      1  0.4157470000000  0.5278490000000  0.5290850000000 1.0
C      1  0.4260260000000  0.4924990000000  0.4324810000000 1.0
C      1  0.5109720000000  0.4402700000000  0.5696150000000 1.0
C      1  0.4978120000000  0.4465160000000  0.4892140000000 1.0
C      1  0.5535590000000  0.5405000000000  0.5217030000000 1.0
C      1  0.4835550000000  0.4815730000000  0.4528560000000 1.0
C      1  0.5053220000000  0.5273470000000  0.4689540000000 1.0
C      1  0.5321000000000  0.5461700000000  0.4983570000000 1.0
C      1  0.4309890000000  0.4674090000000  0.4201680000000 1.0
C      1  0.5771260000000  0.4723010000000  0.5033470000000 1.0
C      1  0.4181950000000  0.5106220000000  0.5547080000000 1.0
C      1  0.5497790000000  0.5758290000000  0.4781800000000 1.0
C      1  0.5109230000000  0.4570390000000  0.5259870000000 1.0
C      1  0.4795280000000  0.4678160000000  0.5319970000000 1.0
C      1  0.4553760000000  0.4818320000000  0.5768030000000 1.0
C      1  0.4854020000000  0.5646670000000  0.5684920000000 1.0
C      1  0.4614000000000  0.5190790000000  0.5118180000000 1.0
C      1  0.4663420000000  0.4585420000000  0.4920350000000 1.0
C      1  0.5074230000000  0.4606400000000  0.4457990000000 1.0
C      1  0.4909710000000  0.5353680000000  0.5850270000000 1.0
C      1  0.4503180000000  0.5765070000000  0.5189470000000 1.0
C      1  0.5375640000000  0.4703000000000  0.4738910000000 1.0
C      1  0.5753200000000  0.5055140000000  0.5669420000000 1.0
C      1  0.5777230000000  0.4725690000000  0.4704080000000 1.0
C      1  0.5059950000000  0.5073960000000  0.4968730000000 1.0
C      1  0.5101490000000  0.4718730000000  0.5569450000000 1.0
C      1  0.4947040000000  0.4775600000000  0.4119530000000 1.0
C      1  0.5082630000000  0.5841520000000  0.5530900000000 1.0
C      1  0.4937320000000  0.4786060000000  0.4962450000000 1.0
C      1  0.4312810000000  0.4497130000000  0.4749370000000 1.0
C      1  0.5813120000000  0.4909740000000  0.5440940000000 1.0
C      1  0.5152990000000  0.4902840000000  0.4592300000000 1.0
C      1  0.4599370000000  0.4783780000000  0.4680530000000 1.0
C      1  0.4275610000000  0.4657090000000  0.4986740000000 1.0
C      1  0.4762460000000  0.5045580000000  0.5840870000000 1.0
C      1  0.5080920000000  0.5000100000000  0.5905070000000 1.0
C      1  0.4902120000000  0.4963580000000  0.5475380000000 1.0
C      1  0.4790150000000  0.4507120000000  0.4196640000000 1.0
C      1  0.4710780000000  0.5900070000000  0.5050220000000 1.0
C      1  0.4937590000000  0.5957030000000  0.5260020000000 1.0
C      1  0.5470220000000  0.4904710000000  0.5222940000000 1.0
C      1  0.5361400000000  0.5098160000000  0.4438970000000 1.0
C      1  0.5040970000000  0.5314910000000  0.4348380000000 1.0
C      1  0.4758730000000  0.5283650000000  0.4205050000000 1.0
C      1  0.4293030000000  0.5147380000000  0.5079710000000 1.0
C      1  0.4574190000000  0.5324920000000  0.4843330000000 1.0
C      1  0.5489010000000  0.5226620000000  0.5666880000000 1.0
C      1  0.4331040000000  0.4954440000000  0.4615640000000 1.0
C      1  0.5242290000000  0.5252870000000  0.5843310000000 1.0
C      1  0.5251480000000  0.4153000000000  0.5025530000000 1.0
C      1  0.5527580000000  0.4307130000000  0.4909520000000 1.0
C      1  0.4303760000000  0.5561710000000  0.5374480000000 1.0
C      1  0.5264220000000  0.4815610000000  0.4176330000000 1.0
C      1  0.5608060000000  0.5515750000000  0.5673430000000 1.0
C      1  0.5345180000000  0.5163840000000  0.4830850000000 1.0
C      1  0.5800590000000  0.5300380000000  0.5064970000000 1.0
C      1  0.5628150000000  0.5446270000000  0.4832170000000 1.0
C      1  0.5310460000000  0.5834360000000  0.5274580000000 1.0
C      1  0.5238360000000  0.4320860000000  0.4726730000000 1.0
END
