TITL C-2778436-5916-381 -0.0058397737680079 125000 -823.372818864849 0 0 143 (C1) n - 1
REM
REM in /home/nfs/bkarasulu/CARBON/AIRSS/Generating-Clusters/REBO/Only-C1/SD-CG/HFTN-CG
REM
REM
REM
REM
REM
REM ./C.cell (11c1c37f851c82e70ff6c80c92926a4b)
REM
REM compiler GCC version 9.2.1 20190827 (Red Hat 9.2.1-1)
REM options -cpp -mtune=generic -march=x86-64 -g -O0 -fpre-include=/usr/include/finclude/math-vector-fortran.h
REM seed -1516630899 -1396088525 1687870292 1490866928 298325524 -212731256 -505788058 -654801100 1538676360 -722154203 1486269019 -1884964585 -1698671473 1895132531 -1600363248 -663073788 -2036180803 665902493 -1759789349 363910285 678165092 1663372512 1523149427 -585148481 2030407658 2044140393 584377175 -1929422173 1683649424 344928924 -2138009545 -836414388 -1958088669
REM
CELL 1.54180   50.00000   50.00000   50.00000   90.00000   90.00000   90.00000
LATT -1
SFAC C  
C      1  0.5008560000000  0.4421480000000  0.5072110000000 1.0
C      1  0.4539520000000  0.5743800000000  0.5431150000000 1.0
C      1  0.4067160000000  0.4863640000000  0.4884940000000 1.0
C      1  0.5508530000000  0.4789930000000  0.4201050000000 1.0
C      1  0.4800070000000  0.4562260000000  0.4892170000000 1.0
C      1  0.5218840000000  0.4279360000000  0.5766340000000 1.0
C      1  0.5276350000000  0.4707410000000  0.4992430000000 1.0
C      1  0.5691100000000  0.4579880000000  0.5437940000000 1.0
C      1  0.5721420000000  0.5660200000000  0.4383660000000 1.0
C      1  0.5784230000000  0.4885680000000  0.5316210000000 1.0
C      1  0.5042790000000  0.5410990000000  0.5397660000000 1.0
C      1  0.4954970000000  0.4032240000000  0.4806330000000 1.0
C      1  0.4881370000000  0.5166390000000  0.4374690000000 1.0
C      1  0.4784950000000  0.4196350000000  0.5458760000000 1.0
C      1  0.5699170000000  0.4804770000000  0.5004520000000 1.0
C      1  0.5425350000000  0.4196480000000  0.5254440000000 1.0
C      1  0.4360620000000  0.5481610000000  0.5554890000000 1.0
C      1  0.4478730000000  0.5068280000000  0.5299530000000 1.0
C      1  0.4499980000000  0.5759070000000  0.4773190000000 1.0
C      1  0.5063960000000  0.5648890000000  0.5632680000000 1.0
C      1  0.5561750000000  0.5272690000000  0.5226270000000 1.0
C      1  0.5026610000000  0.4704970000000  0.5582930000000 1.0
C      1  0.4130790000000  0.4627580000000  0.4483720000000 1.0
C      1  0.4737120000000  0.6005220000000  0.4780000000000 1.0
C      1  0.4519360000000  0.4845400000000  0.4906710000000 1.0
C      1  0.4784730000000  0.5816090000000  0.5128200000000 1.0
C      1  0.5468020000000  0.5646940000000  0.4269420000000 1.0
C      1  0.4888210000000  0.4420600000000  0.5591690000000 1.0
C      1  0.5018020000000  0.5014560000000  0.4031180000000 1.0
C      1  0.4428780000000  0.5319060000000  0.5823240000000 1.0
C      1  0.5746330000000  0.5446140000000  0.5404410000000 1.0
C      1  0.5201600000000  0.4075980000000  0.5038870000000 1.0
C      1  0.4579030000000  0.4637160000000  0.4643770000000 1.0
C      1  0.5344760000000  0.5046000000000  0.4045610000000 1.0
C      1  0.5533080000000  0.4931110000000  0.5865760000000 1.0
C      1  0.4222200000000  0.5613540000000  0.4993760000000 1.0
C      1  0.4707650000000  0.5429560000000  0.4259980000000 1.0
C      1  0.5159270000000  0.5448690000000  0.4425950000000 1.0
C      1  0.5310520000000  0.4376680000000  0.4918370000000 1.0
C      1  0.5433120000000  0.5476100000000  0.5821410000000 1.0
C      1  0.5262040000000  0.4988640000000  0.4599310000000 1.0
C      1  0.4844540000000  0.4494170000000  0.5981080000000 1.0
C      1  0.4459190000000  0.4253240000000  0.5136570000000 1.0
C      1  0.4700100000000  0.4107090000000  0.4593350000000 1.0
C      1  0.4781030000000  0.5000740000000  0.3839180000000 1.0
C      1  0.4358760000000  0.4921220000000  0.5541680000000 1.0
C      1  0.5906090000000  0.5254020000000  0.4783410000000 1.0
C      1  0.4472640000000  0.5248580000000  0.4156700000000 1.0
C      1  0.4692340000000  0.5465160000000  0.4762750000000 1.0
C      1  0.5538490000000  0.5724160000000  0.4886250000000 1.0
C      1  0.5536600000000  0.4615540000000  0.5739790000000 1.0
C      1  0.5310630000000  0.5774930000000  0.5207530000000 1.0
C      1  0.5397650000000  0.5382250000000  0.4114640000000 1.0
C      1  0.4961960000000  0.4529330000000  0.4605890000000 1.0
C      1  0.4119270000000  0.5340420000000  0.5078600000000 1.0
C      1  0.5233680000000  0.5147120000000  0.5475730000000 1.0
C      1  0.5981250000000  0.5353790000000  0.5513560000000 1.0
C      1  0.4876270000000  0.5724000000000  0.4664970000000 1.0
C      1  0.4831930000000  0.4784460000000  0.5147100000000 1.0
C      1  0.5288020000000  0.5474850000000  0.5192790000000 1.0
C      1  0.5822780000000  0.4709180000000  0.4637590000000 1.0
C      1  0.5117630000000  0.4469730000000  0.5945950000000 1.0
C      1  0.4468530000000  0.5799310000000  0.5110340000000 1.0
C      1  0.4639560000000  0.5431810000000  0.5978390000000 1.0
C      1  0.5693200000000  0.5187350000000  0.4454270000000 1.0
C      1  0.5428080000000  0.4995900000000  0.5070010000000 1.0
C      1  0.5402000000000  0.5691280000000  0.5620180000000 1.0
C      1  0.4482930000000  0.4593850000000  0.5132570000000 1.0
C      1  0.4839390000000  0.5205800000000  0.5597810000000 1.0
C      1  0.5517250000000  0.5179460000000  0.4728040000000 1.0
C      1  0.5657220000000  0.4448770000000  0.4660390000000 1.0
C      1  0.5627310000000  0.5707020000000  0.5438670000000 1.0
C      1  0.4258390000000  0.5292300000000  0.5342980000000 1.0
C      1  0.4698160000000  0.4934900000000  0.6009030000000 1.0
C      1  0.5280200000000  0.5277110000000  0.4947610000000 1.0
C      1  0.5005710000000  0.5629470000000  0.4948840000000 1.0
C      1  0.4700580000000  0.5490590000000  0.5588390000000 1.0
C      1  0.4242590000000  0.4679700000000  0.5440040000000 1.0
C      1  0.5329330000000  0.4731640000000  0.5509000000000 1.0
C      1  0.4666340000000  0.4710040000000  0.4341180000000 1.0
C      1  0.4874160000000  0.5713270000000  0.4350350000000 1.0
C      1  0.5849640000000  0.5452000000000  0.4507380000000 1.0
C      1  0.4661470000000  0.4059350000000  0.4979140000000 1.0
C      1  0.5986270000000  0.4980150000000  0.4620130000000 1.0
C      1  0.4881820000000  0.5218160000000  0.6061140000000 1.0
C      1  0.5115710000000  0.4227280000000  0.4591950000000 1.0
C      1  0.4499050000000  0.4215500000000  0.5435120000000 1.0
C      1  0.5207810000000  0.4668890000000  0.4312810000000 1.0
C      1  0.5577530000000  0.4188590000000  0.4368140000000 1.0
C      1  0.4669470000000  0.4638320000000  0.5743230000000 1.0
C      1  0.5269770000000  0.4283620000000  0.5496950000000 1.0
C      1  0.5497810000000  0.4496470000000  0.4362950000000 1.0
C      1  0.4834710000000  0.5213700000000  0.4695060000000 1.0
C      1  0.4394250000000  0.4453370000000  0.5554310000000 1.0
C      1  0.5255400000000  0.5502220000000  0.6028200000000 1.0
C      1  0.5633880000000  0.4392150000000  0.5214510000000 1.0
C      1  0.5071910000000  0.5954370000000  0.5214530000000 1.0
C      1  0.4819130000000  0.5419670000000  0.5137330000000 1.0
C      1  0.4900960000000  0.4141140000000  0.5185160000000 1.0
C      1  0.5038990000000  0.4917240000000  0.6046420000000 1.0
C      1  0.5601890000000  0.5861780000000  0.5163740000000 1.0
C      1  0.4322520000000  0.4450740000000  0.4640830000000 1.0
C      1  0.5073180000000  0.5321690000000  0.4140240000000 1.0
C      1  0.4955990000000  0.5521340000000  0.5922160000000 1.0
C      1  0.5401830000000  0.5142650000000  0.4350110000000 1.0
C      1  0.5252020000000  0.5791680000000  0.4772630000000 1.0
C      1  0.4829450000000  0.4940350000000  0.5710340000000 1.0
C      1  0.5203790000000  0.5758840000000  0.4443520000000 1.0
C      1  0.4419620000000  0.4151170000000  0.4755360000000 1.0
C      1  0.4449520000000  0.5030720000000  0.5796680000000 1.0
C      1  0.5645230000000  0.5467260000000  0.4845370000000 1.0
C      1  0.4762260000000  0.4337840000000  0.4444490000000 1.0
C      1  0.4349280000000  0.5419030000000  0.4489750000000 1.0
C      1  0.4151520000000  0.4651900000000  0.5112220000000 1.0
C      1  0.4546530000000  0.5660880000000  0.4450540000000 1.0
C      1  0.4220240000000  0.4365010000000  0.4941720000000 1.0
C      1  0.5808030000000  0.5114740000000  0.5060300000000 1.0
C      1  0.4869910000000  0.5828680000000  0.5458220000000 1.0
C      1  0.4123700000000  0.4888830000000  0.4614720000000 1.0
C      1  0.5227750000000  0.4542200000000  0.5278060000000 1.0
C      1  0.5279670000000  0.4736010000000  0.5951150000000 1.0
C      1  0.5135870000000  0.5278070000000  0.4661550000000 1.0
C      1  0.5682450000000  0.4516750000000  0.4963060000000 1.0
C      1  0.4503220000000  0.5414780000000  0.5008460000000 1.0
C      1  0.4760680000000  0.5147970000000  0.5294700000000 1.0
C      1  0.4944350000000  0.4312890000000  0.4090440000000 1.0
C      1  0.5023400000000  0.4942380000000  0.5360790000000 1.0
C      1  0.5036690000000  0.6023240000000  0.4897780000000 1.0
C      1  0.5094050000000  0.4789820000000  0.4748890000000 1.0
C      1  0.5423490000000  0.4222240000000  0.4643940000000 1.0
C      1  0.4944940000000  0.4849630000000  0.4305930000000 1.0
C      1  0.4296830000000  0.5098180000000  0.4409880000000 1.0
C      1  0.5130840000000  0.4359120000000  0.4288020000000 1.0
C      1  0.5455930000000  0.5208120000000  0.5700460000000 1.0
C      1  0.4429050000000  0.4859690000000  0.4202080000000 1.0
C      1  0.4191270000000  0.4656690000000  0.4214460000000 1.0
C      1  0.5572870000000  0.4949690000000  0.5525880000000 1.0
C      1  0.4677540000000  0.4429400000000  0.4162560000000 1.0
C      1  0.4827770000000  0.4956260000000  0.4851840000000 1.0
C      1  0.4358170000000  0.5106660000000  0.5003590000000 1.0
C      1  0.4640350000000  0.4672990000000  0.5405560000000 1.0
C      1  0.5764440000000  0.4892520000000  0.4367540000000 1.0
C      1  0.4533830000000  0.5032410000000  0.3947520000000 1.0
END
