TITL C-2778426-5645-144 -0.00624701493151792 125000 -765.898474527758 0 0 133 (C1) n - 1
REM
REM in /home/nfs/bkarasulu/CARBON/AIRSS/Generating-Clusters/REBO/Only-C1/SD-CG/HFTN-CG
REM
REM
REM
REM
REM
REM ./C.cell (11c1c37f851c82e70ff6c80c92926a4b)
REM
REM compiler GCC version 9.2.1 20190827 (Red Hat 9.2.1-1)
REM options -cpp -mtune=generic -march=x86-64 -g -O0 -fpre-include=/usr/include/finclude/math-vector-fortran.h
REM seed 452876025 -393781397 -727420920 1465780560 -1968429755 -1036211370 1604393423 -910386177 -45601178 -201905353 -1435981984 -2143461259 -1938611803 1915107215 -1576657158 -285931362 579097349 105565702 -1053837808 1004016734 818916387 164205103 79688434 1803929893 -644728977 692340607 -1862217967 930535516 1921873339 -1268758814 -1739576385 67266192 1556557097
REM
CELL 1.54180   50.00000   50.00000   50.00000   90.00000   90.00000   90.00000
LATT -1
SFAC C  
C      1  0.5377720000000  0.4949880000000  0.5091060000000 1.0
C      1  0.5863480000000  0.4741760000000  0.4811610000000 1.0
C      1  0.4603510000000  0.5462100000000  0.4682760000000 1.0
C      1  0.4533940000000  0.4340960000000  0.4324920000000 1.0
C      1  0.4139740000000  0.4644210000000  0.4722120000000 1.0
C      1  0.4585550000000  0.4243980000000  0.5272220000000 1.0
C      1  0.4914450000000  0.4694960000000  0.5097640000000 1.0
C      1  0.5423050000000  0.4469950000000  0.5720620000000 1.0
C      1  0.5556870000000  0.4430970000000  0.4493940000000 1.0
C      1  0.4307750000000  0.4466470000000  0.4868300000000 1.0
C      1  0.4563090000000  0.4178070000000  0.4970970000000 1.0
C      1  0.4879800000000  0.4368940000000  0.5389000000000 1.0
C      1  0.5301070000000  0.4767300000000  0.4847600000000 1.0
C      1  0.5286720000000  0.4406360000000  0.5417420000000 1.0
C      1  0.4972960000000  0.4691470000000  0.5435990000000 1.0
C      1  0.5099550000000  0.5069290000000  0.4373410000000 1.0
C      1  0.5549530000000  0.4832580000000  0.4201830000000 1.0
C      1  0.4318870000000  0.5764100000000  0.4997990000000 1.0
C      1  0.5979150000000  0.4828050000000  0.5114220000000 1.0
C      1  0.5616730000000  0.4375570000000  0.5458910000000 1.0
C      1  0.5755690000000  0.4519880000000  0.5018130000000 1.0
C      1  0.5114350000000  0.5759170000000  0.5656520000000 1.0
C      1  0.5310670000000  0.5505460000000  0.4270400000000 1.0
C      1  0.4794610000000  0.5605170000000  0.5446660000000 1.0
C      1  0.5401260000000  0.5780290000000  0.5206260000000 1.0
C      1  0.5298810000000  0.5870900000000  0.4893300000000 1.0
C      1  0.5476210000000  0.5520870000000  0.5414260000000 1.0
C      1  0.4539720000000  0.5259290000000  0.5134620000000 1.0
C      1  0.5470470000000  0.4283680000000  0.4730820000000 1.0
C      1  0.4251090000000  0.5519180000000  0.5419390000000 1.0
C      1  0.5135690000000  0.5310960000000  0.4171540000000 1.0
C      1  0.4528200000000  0.4380090000000  0.5579090000000 1.0
C      1  0.4559420000000  0.4617540000000  0.4600070000000 1.0
C      1  0.4288980000000  0.4784690000000  0.4474210000000 1.0
C      1  0.4761680000000  0.4867410000000  0.5635390000000 1.0
C      1  0.4871910000000  0.5835360000000  0.4371290000000 1.0
C      1  0.5606040000000  0.4747450000000  0.4592080000000 1.0
C      1  0.5314750000000  0.4736420000000  0.4426280000000 1.0
C      1  0.4164090000000  0.5666510000000  0.5199650000000 1.0
C      1  0.4689770000000  0.5623000000000  0.4191290000000 1.0
C      1  0.4382740000000  0.4688490000000  0.5578870000000 1.0
C      1  0.5129230000000  0.5869720000000  0.5383460000000 1.0
C      1  0.4496440000000  0.4560970000000  0.5054410000000 1.0
C      1  0.5420230000000  0.5289350000000  0.5733950000000 1.0
C      1  0.4795070000000  0.4814490000000  0.4584850000000 1.0
C      1  0.3879200000000  0.4711580000000  0.4782600000000 1.0
C      1  0.5364110000000  0.5623470000000  0.5700840000000 1.0
C      1  0.5195340000000  0.5554260000000  0.4951570000000 1.0
C      1  0.4449020000000  0.4655330000000  0.4220310000000 1.0
C      1  0.4767610000000  0.5455840000000  0.4975940000000 1.0
C      1  0.4167580000000  0.5149790000000  0.5053510000000 1.0
C      1  0.4779200000000  0.5063450000000  0.5982450000000 1.0
C      1  0.4211080000000  0.5086500000000  0.4479260000000 1.0
C      1  0.6073280000000  0.5085870000000  0.5078430000000 1.0
C      1  0.5814990000000  0.4620020000000  0.5329260000000 1.0
C      1  0.4958470000000  0.4801380000000  0.5905150000000 1.0
C      1  0.4676420000000  0.5144290000000  0.3994830000000 1.0
C      1  0.5080300000000  0.4082460000000  0.4951550000000 1.0
C      1  0.4192130000000  0.5172110000000  0.4752840000000 1.0
C      1  0.4678700000000  0.4869740000000  0.4095370000000 1.0
C      1  0.5067240000000  0.4630050000000  0.4083370000000 1.0
C      1  0.5106440000000  0.5336260000000  0.5798330000000 1.0
C      1  0.4615180000000  0.5882120000000  0.5382790000000 1.0
C      1  0.5096020000000  0.5995710000000  0.4574640000000 1.0
C      1  0.5094810000000  0.4138700000000  0.5469790000000 1.0
C      1  0.4928480000000  0.4830020000000  0.4290140000000 1.0
C      1  0.5506760000000  0.5737260000000  0.4396120000000 1.0
C      1  0.5785530000000  0.4937670000000  0.4290890000000 1.0
C      1  0.4591860000000  0.4674570000000  0.5331820000000 1.0
C      1  0.5963900000000  0.5213660000000  0.4843420000000 1.0
C      1  0.4732020000000  0.4981720000000  0.5306390000000 1.0
C      1  0.5185900000000  0.4338410000000  0.5883010000000 1.0
C      1  0.5762150000000  0.4806140000000  0.5585940000000 1.0
C      1  0.4990030000000  0.5223690000000  0.4862650000000 1.0
C      1  0.5132380000000  0.4086800000000  0.5770590000000 1.0
C      1  0.5603320000000  0.4985500000000  0.5327540000000 1.0
C      1  0.4458270000000  0.5024420000000  0.5594490000000 1.0
C      1  0.5330270000000  0.4686000000000  0.4031280000000 1.0
C      1  0.5094740000000  0.4254650000000  0.4476780000000 1.0
C      1  0.4637150000000  0.4867570000000  0.4996030000000 1.0
C      1  0.5186010000000  0.5037960000000  0.4676860000000 1.0
C      1  0.4476070000000  0.5646460000000  0.5569340000000 1.0
C      1  0.4634860000000  0.5758430000000  0.5065330000000 1.0
C      1  0.4942060000000  0.5360670000000  0.5577030000000 1.0
C      1  0.5215950000000  0.4909900000000  0.5377760000000 1.0
C      1  0.5620240000000  0.5052190000000  0.4745170000000 1.0
C      1  0.5265890000000  0.4863590000000  0.5956130000000 1.0
C      1  0.4975310000000  0.5972690000000  0.4895050000000 1.0
C      1  0.4750150000000  0.4514130000000  0.4126100000000 1.0
C      1  0.4747100000000  0.5089280000000  0.4686150000000 1.0
C      1  0.4645350000000  0.5504580000000  0.5801730000000 1.0
C      1  0.4715810000000  0.4368170000000  0.5794380000000 1.0
C      1  0.5401070000000  0.5951530000000  0.4587710000000 1.0
C      1  0.5214020000000  0.4534240000000  0.5158970000000 1.0
C      1  0.5500750000000  0.4748980000000  0.5796530000000 1.0
C      1  0.4968600000000  0.5581050000000  0.4571600000000 1.0
C      1  0.4837440000000  0.4417770000000  0.4590430000000 1.0
C      1  0.4764300000000  0.5826160000000  0.4694420000000 1.0
C      1  0.4201710000000  0.4752320000000  0.5314280000000 1.0
C      1  0.5286860000000  0.4412630000000  0.4333140000000 1.0
C      1  0.4489660000000  0.5362020000000  0.4088780000000 1.0
C      1  0.5712450000000  0.4201950000000  0.5030080000000 1.0
C      1  0.5537830000000  0.4142960000000  0.5239880000000 1.0
C      1  0.5671520000000  0.5329600000000  0.4890690000000 1.0
C      1  0.4467370000000  0.4288160000000  0.4655300000000 1.0
C      1  0.5263240000000  0.4062130000000  0.5215400000000 1.0
C      1  0.5667820000000  0.5279200000000  0.5494840000000 1.0
C      1  0.4493120000000  0.5204620000000  0.4830490000000 1.0
C      1  0.4444710000000  0.5570180000000  0.4421950000000 1.0
C      1  0.5917820000000  0.4993280000000  0.4586130000000 1.0
C      1  0.5074150000000  0.4659720000000  0.4625600000000 1.0
C      1  0.5267410000000  0.5221530000000  0.5021690000000 1.0
C      1  0.5230450000000  0.5367140000000  0.5301580000000 1.0
C      1  0.4890530000000  0.5670790000000  0.5827970000000 1.0
C      1  0.4883360000000  0.5376160000000  0.4057790000000 1.0
C      1  0.4977910000000  0.5541920000000  0.5213110000000 1.0
C      1  0.4317710000000  0.5225390000000  0.5358850000000 1.0
C      1  0.5528000000000  0.5523150000000  0.5018120000000 1.0
C      1  0.4889970000000  0.5303120000000  0.4486150000000 1.0
C      1  0.5275620000000  0.5575890000000  0.4580600000000 1.0
C      1  0.4891580000000  0.5940200000000  0.5200500000000 1.0
C      1  0.4318310000000  0.4907750000000  0.5119220000000 1.0
C      1  0.5877270000000  0.5085990000000  0.5597950000000 1.0
C      1  0.5413710000000  0.4994860000000  0.5609780000000 1.0
C      1  0.5449560000000  0.4497800000000  0.4950330000000 1.0
C      1  0.4291910000000  0.5292690000000  0.4307120000000 1.0
C      1  0.4807980000000  0.4142610000000  0.4777550000000 1.0
C      1  0.4955580000000  0.4362120000000  0.5066300000000 1.0
C      1  0.5237100000000  0.4130320000000  0.4692660000000 1.0
C      1  0.4988390000000  0.5132630000000  0.5368340000000 1.0
C      1  0.4620080000000  0.5216990000000  0.5818820000000 1.0
C      1  0.4946110000000  0.4490340000000  0.5909350000000 1.0
C      1  0.4451700000000  0.5753740000000  0.4709750000000 1.0
END
