TITL C-2778428-5639-64 -0.00613132253335662 125000 -541.513846835709 0 0 94 (C1) n - 1
REM
REM in /home/nfs/bkarasulu/CARBON/AIRSS/Generating-Clusters/REBO/Only-C1/SD-CG/HFTN-CG
REM
REM
REM
REM
REM
REM ./C.cell (11c1c37f851c82e70ff6c80c92926a4b)
REM
REM compiler GCC version 9.2.1 20190827 (Red Hat 9.2.1-1)
REM options -cpp -mtune=generic -march=x86-64 -g -O0 -fpre-include=/usr/include/finclude/math-vector-fortran.h
REM seed 977914346 -1291059793 437518943 -455860932 185044092 1936931043 48352269 -342707144 -1167613568 -960974290 -981485592 1135832208 1094213035 1834945405 -342021651 -366142586 861520316 -596077477 -162203008 649620140 -1625970139 -1823957557 1820763985 -309347334 -672227154 -670196610 2116098959 -1783489478 -874542374 549584564 -1615804449 -1944731110 -509369437
REM
CELL 1.54180   50.00000   50.00000   50.00000   90.00000   90.00000   90.00000
LATT -1
SFAC C  
C      1  0.5388850000000  0.4280440000000  0.5251640000000 1.0
C      1  0.4685580000000  0.5804730000000  0.4913750000000 1.0
C      1  0.4507340000000  0.4214200000000  0.5090560000000 1.0
C      1  0.5136830000000  0.6226670000000  0.4075610000000 1.0
C      1  0.5213140000000  0.5376780000000  0.4844970000000 1.0
C      1  0.5455160000000  0.5170760000000  0.4832410000000 1.0
C      1  0.5302560000000  0.4704270000000  0.4342020000000 1.0
C      1  0.4439840000000  0.5595540000000  0.4941890000000 1.0
C      1  0.5059940000000  0.4586130000000  0.4816880000000 1.0
C      1  0.4435640000000  0.4731480000000  0.5150570000000 1.0
C      1  0.5198820000000  0.4933240000000  0.5776350000000 1.0
C      1  0.4910650000000  0.4474760000000  0.5181690000000 1.0
C      1  0.5597260000000  0.4659790000000  0.5657640000000 1.0
C      1  0.4593460000000  0.4721720000000  0.5714740000000 1.0
C      1  0.4401240000000  0.4915600000000  0.5623150000000 1.0
C      1  0.4534020000000  0.5489180000000  0.4471010000000 1.0
C      1  0.4419330000000  0.5212630000000  0.5446390000000 1.0
C      1  0.4528310000000  0.5045170000000  0.4756280000000 1.0
C      1  0.4472330000000  0.5380050000000  0.5203130000000 1.0
C      1  0.5678910000000  0.5090040000000  0.5903200000000 1.0
C      1  0.5010270000000  0.5633680000000  0.5363720000000 1.0
C      1  0.4921220000000  0.4734780000000  0.5796370000000 1.0
C      1  0.4520640000000  0.4434530000000  0.4557500000000 1.0
C      1  0.4890640000000  0.5370630000000  0.5496820000000 1.0
C      1  0.5007600000000  0.5844660000000  0.4974620000000 1.0
C      1  0.5161440000000  0.5903730000000  0.4504580000000 1.0
C      1  0.4994040000000  0.5273840000000  0.5807200000000 1.0
C      1  0.4791620000000  0.5042770000000  0.5843400000000 1.0
C      1  0.5248980000000  0.5778640000000  0.5198420000000 1.0
C      1  0.5147080000000  0.4923310000000  0.5151050000000 1.0
C      1  0.4808700000000  0.4307670000000  0.5528680000000 1.0
C      1  0.4356760000000  0.5465670000000  0.4699640000000 1.0
C      1  0.4789340000000  0.5107840000000  0.5298700000000 1.0
C      1  0.5606320000000  0.5437470000000  0.4946570000000 1.0
C      1  0.4152980000000  0.4910410000000  0.4781140000000 1.0
C      1  0.4262940000000  0.4686380000000  0.4888070000000 1.0
C      1  0.4747540000000  0.5350140000000  0.4999410000000 1.0
C      1  0.5025950000000  0.4997570000000  0.5519780000000 1.0
C      1  0.4930800000000  0.5339120000000  0.4793620000000 1.0
C      1  0.5275380000000  0.5460570000000  0.5438490000000 1.0
C      1  0.4564410000000  0.4474180000000  0.5579160000000 1.0
C      1  0.5513990000000  0.5374470000000  0.4440860000000 1.0
C      1  0.5230580000000  0.5170220000000  0.5330600000000 1.0
C      1  0.4431230000000  0.4668560000000  0.4437450000000 1.0
C      1  0.5071080000000  0.4822670000000  0.4135930000000 1.0
C      1  0.4643510000000  0.5098680000000  0.4208640000000 1.0
C      1  0.5695740000000  0.4431460000000  0.4765770000000 1.0
C      1  0.5081970000000  0.4432540000000  0.4534350000000 1.0
C      1  0.5148830000000  0.6069210000000  0.4284770000000 1.0
C      1  0.5527100000000  0.4970880000000  0.5695920000000 1.0
C      1  0.4906110000000  0.5793590000000  0.4651990000000 1.0
C      1  0.5728940000000  0.4075470000000  0.4426400000000 1.0
C      1  0.4766300000000  0.4646150000000  0.4942940000000 1.0
C      1  0.4261150000000  0.5192110000000  0.4742140000000 1.0
C      1  0.4601130000000  0.4925890000000  0.4482530000000 1.0
C      1  0.5607780000000  0.4299280000000  0.4521210000000 1.0
C      1  0.4258930000000  0.4854650000000  0.5369730000000 1.0
C      1  0.5150630000000  0.4821240000000  0.4593350000000 1.0
C      1  0.4829410000000  0.5506190000000  0.4540270000000 1.0
C      1  0.5547610000000  0.4366000000000  0.5001390000000 1.0
C      1  0.4301740000000  0.4002330000000  0.5040030000000 1.0
C      1  0.4500680000000  0.5343840000000  0.4228360000000 1.0
C      1  0.4578140000000  0.4488320000000  0.5257780000000 1.0
C      1  0.5242890000000  0.4644370000000  0.5321900000000 1.0
C      1  0.5278410000000  0.5245870000000  0.5884820000000 1.0
C      1  0.4770720000000  0.4362540000000  0.4444800000000 1.0
C      1  0.5378600000000  0.4416440000000  0.4404720000000 1.0
C      1  0.4911230000000  0.4634860000000  0.4333830000000 1.0
C      1  0.4917740000000  0.4975440000000  0.4470360000000 1.0
C      1  0.5277380000000  0.5664650000000  0.4893120000000 1.0
C      1  0.5315280000000  0.4591570000000  0.5014950000000 1.0
C      1  0.5764510000000  0.4704600000000  0.4738900000000 1.0
C      1  0.4749800000000  0.4130760000000  0.5307300000000 1.0
C      1  0.5672230000000  0.4955210000000  0.4743180000000 1.0
C      1  0.5529180000000  0.5151810000000  0.5428200000000 1.0
C      1  0.4981190000000  0.3980380000000  0.5190660000000 1.0
C      1  0.5399050000000  0.4455480000000  0.5533100000000 1.0
C      1  0.5393280000000  0.5800040000000  0.4637640000000 1.0
C      1  0.5064830000000  0.4510990000000  0.5583660000000 1.0
C      1  0.4874160000000  0.4777970000000  0.5305350000000 1.0
C      1  0.5296570000000  0.4901700000000  0.4868810000000 1.0
C      1  0.5536800000000  0.5638990000000  0.5196250000000 1.0
C      1  0.5573940000000  0.5557910000000  0.4648930000000 1.0
C      1  0.5110280000000  0.4250050000000  0.5183550000000 1.0
C      1  0.4886420000000  0.5032710000000  0.4066430000000 1.0
C      1  0.4755090000000  0.5617410000000  0.5186210000000 1.0
C      1  0.5431050000000  0.5420510000000  0.5733560000000 1.0
C      1  0.5266330000000  0.5298460000000  0.4355700000000 1.0
C      1  0.5003240000000  0.5257610000000  0.4410300000000 1.0
C      1  0.5575720000000  0.5604250000000  0.5521490000000 1.0
C      1  0.4648610000000  0.4950970000000  0.5029520000000 1.0
C      1  0.4515420000000  0.4464620000000  0.4864040000000 1.0
C      1  0.5685910000000  0.5324630000000  0.5259640000000 1.0
C      1  0.4637720000000  0.5232700000000  0.5645790000000 1.0
END
