TITL C-2778435-5768-211 0.00143500889749702 125000 -592.1732312757 0 0 102 (C1) n - 1
REM
REM in /home/nfs/bkarasulu/CARBON/AIRSS/Generating-Clusters/REBO/Only-C1/SD-CG/HFTN-CG
REM
REM
REM
REM
REM
REM ./C.cell (11c1c37f851c82e70ff6c80c92926a4b)
REM
REM compiler GCC version 9.2.1 20190827 (Red Hat 9.2.1-1)
REM options -cpp -mtune=generic -march=x86-64 -g -O0 -fpre-include=/usr/include/finclude/math-vector-fortran.h
REM seed 1997695579 -1644702846 -1563936680 1374793741 253100837 -1280466076 293444996 -1520717694 -1483612370 -1094390766 635893223 -1437581307 -1927959165 -1779427687 456760278 1707345865 -1915817877 -960276570 1618880192 -1454889210 398458371 -1647336277 639542731 -942789767 531995717 -9848409 -261594454 -1888766532 -1987018857 345374073 -1684802913 194950240 -1828942304
REM
CELL 1.54180   50.00000   50.00000   50.00000   90.00000   90.00000   90.00000
LATT -1
SFAC C  
C      1  0.4170800000000  0.4833740000000  0.4830600000000 1.0
C      1  0.4262140000000  0.4592640000000  0.4974330000000 1.0
C      1  0.4923390000000  0.4202240000000  0.5257480000000 1.0
C      1  0.5072650000000  0.5099870000000  0.4990620000000 1.0
C      1  0.5369650000000  0.5245180000000  0.4965650000000 1.0
C      1  0.5392370000000  0.5735070000000  0.5411480000000 1.0
C      1  0.4843960000000  0.5667680000000  0.5407010000000 1.0
C      1  0.4943150000000  0.5037690000000  0.5818690000000 1.0
C      1  0.4434360000000  0.5519280000000  0.5240250000000 1.0
C      1  0.4453710000000  0.4784230000000  0.4274780000000 1.0
C      1  0.5042230000000  0.4368590000000  0.4568280000000 1.0
C      1  0.5277990000000  0.4603390000000  0.5535350000000 1.0
C      1  0.5795640000000  0.5545610000000  0.4982030000000 1.0
C      1  0.5389220000000  0.5448030000000  0.4751100000000 1.0
C      1  0.4621720000000  0.5509970000000  0.4449820000000 1.0
C      1  0.4776340000000  0.5320170000000  0.4684170000000 1.0
C      1  0.4551270000000  0.4746170000000  0.4747840000000 1.0
C      1  0.5727220000000  0.5100380000000  0.4515390000000 1.0
C      1  0.5547600000000  0.5209830000000  0.5508510000000 1.0
C      1  0.5702190000000  0.4525150000000  0.4907980000000 1.0
C      1  0.5374160000000  0.5471910000000  0.5626130000000 1.0
C      1  0.4815340000000  0.5743350000000  0.4594530000000 1.0
C      1  0.4707610000000  0.4744270000000  0.5352340000000 1.0
C      1  0.4139270000000  0.5226150000000  0.4778930000000 1.0
C      1  0.5554900000000  0.4961000000000  0.5731240000000 1.0
C      1  0.4684110000000  0.4956780000000  0.4546250000000 1.0
C      1  0.4577830000000  0.5539060000000  0.4842920000000 1.0
C      1  0.4930280000000  0.4981880000000  0.5423000000000 1.0
C      1  0.4474830000000  0.4815560000000  0.5691430000000 1.0
C      1  0.5100550000000  0.4658060000000  0.4160040000000 1.0
C      1  0.5240720000000  0.4977340000000  0.4650080000000 1.0
C      1  0.4915400000000  0.4458670000000  0.4320480000000 1.0
C      1  0.4937920000000  0.5312280000000  0.5199580000000 1.0
C      1  0.5411270000000  0.5375990000000  0.5243620000000 1.0
C      1  0.5544430000000  0.4415880000000  0.5172680000000 1.0
C      1  0.4565700000000  0.4729050000000  0.5066780000000 1.0
C      1  0.4398090000000  0.5123760000000  0.5567790000000 1.0
C      1  0.5172880000000  0.4186880000000  0.5486720000000 1.0
C      1  0.5240840000000  0.4305330000000  0.5180310000000 1.0
C      1  0.5255280000000  0.5587780000000  0.4274740000000 1.0
C      1  0.4880410000000  0.4706200000000  0.4995440000000 1.0
C      1  0.4293240000000  0.4856610000000  0.4549380000000 1.0
C      1  0.4889980000000  0.4344730000000  0.4827780000000 1.0
C      1  0.5069300000000  0.4784990000000  0.5874010000000 1.0
C      1  0.5855910000000  0.5217070000000  0.5004450000000 1.0
C      1  0.4638540000000  0.4566500000000  0.5613070000000 1.0
C      1  0.4883380000000  0.5284460000000  0.5511900000000 1.0
C      1  0.5602300000000  0.5011550000000  0.4905570000000 1.0
C      1  0.4274220000000  0.4928890000000  0.5336190000000 1.0
C      1  0.4535480000000  0.4454780000000  0.4599390000000 1.0
C      1  0.4662400000000  0.4262560000000  0.5467410000000 1.0
C      1  0.4694230000000  0.5503410000000  0.5616860000000 1.0
C      1  0.5171960000000  0.5209040000000  0.5643610000000 1.0
C      1  0.4995790000000  0.5924800000000  0.5086090000000 1.0
C      1  0.5291950000000  0.4444780000000  0.5764020000000 1.0
C      1  0.4299330000000  0.5492110000000  0.4705570000000 1.0
C      1  0.5209680000000  0.4977050000000  0.4097830000000 1.0
C      1  0.4432480000000  0.5421670000000  0.5513170000000 1.0
C      1  0.5003560000000  0.5193880000000  0.4564990000000 1.0
C      1  0.5823090000000  0.5288960000000  0.4681910000000 1.0
C      1  0.4723670000000  0.5336710000000  0.4189690000000 1.0
C      1  0.4744280000000  0.5200450000000  0.4972430000000 1.0
C      1  0.4968250000000  0.5153200000000  0.4240880000000 1.0
C      1  0.4437480000000  0.4381660000000  0.4866390000000 1.0
C      1  0.4507080000000  0.5119590000000  0.4339190000000 1.0
C      1  0.5748590000000  0.5077520000000  0.5267880000000 1.0
C      1  0.5441160000000  0.4937220000000  0.5204790000000 1.0
C      1  0.5126100000000  0.5541530000000  0.5326790000000 1.0
C      1  0.4650840000000  0.5707300000000  0.5197570000000 1.0
C      1  0.5348270000000  0.5267600000000  0.4198740000000 1.0
C      1  0.5259220000000  0.4817260000000  0.4950250000000 1.0
C      1  0.5473630000000  0.4641020000000  0.4529330000000 1.0
C      1  0.4281960000000  0.5256640000000  0.4486590000000 1.0
C      1  0.5355470000000  0.4822880000000  0.5875920000000 1.0
C      1  0.4672790000000  0.5051640000000  0.5759420000000 1.0
C      1  0.5448680000000  0.5022390000000  0.4413920000000 1.0
C      1  0.4665620000000  0.4301440000000  0.5070950000000 1.0
C      1  0.4940800000000  0.4827740000000  0.4711790000000 1.0
C      1  0.5560510000000  0.4608870000000  0.5399400000000 1.0
C      1  0.4937500000000  0.4304540000000  0.5643370000000 1.0
C      1  0.4946270000000  0.4852050000000  0.4370740000000 1.0
C      1  0.4761880000000  0.5799730000000  0.4904530000000 1.0
C      1  0.4309670000000  0.4656440000000  0.5364500000000 1.0
C      1  0.5614460000000  0.5627720000000  0.5182450000000 1.0
C      1  0.5409390000000  0.4742310000000  0.4243940000000 1.0
C      1  0.5476370000000  0.4303300000000  0.4854480000000 1.0
C      1  0.5637030000000  0.4753290000000  0.4743020000000 1.0
C      1  0.4226380000000  0.5063170000000  0.5056100000000 1.0
C      1  0.5246410000000  0.5354720000000  0.4501880000000 1.0
C      1  0.4924970000000  0.5593750000000  0.4306950000000 1.0
C      1  0.5149800000000  0.4507990000000  0.4958330000000 1.0
C      1  0.4439380000000  0.4428300000000  0.5295220000000 1.0
C      1  0.5179300000000  0.5929500000000  0.5250020000000 1.0
C      1  0.5028870000000  0.4650320000000  0.5309690000000 1.0
C      1  0.5486260000000  0.5669630000000  0.4514520000000 1.0
C      1  0.5262730000000  0.4934830000000  0.5460130000000 1.0
C      1  0.4441140000000  0.5287870000000  0.5032200000000 1.0
C      1  0.5331100000000  0.4400970000000  0.4618380000000 1.0
C      1  0.4631600000000  0.4533130000000  0.4334380000000 1.0
C      1  0.5698430000000  0.4840720000000  0.5493250000000 1.0
C      1  0.4912680000000  0.4560580000000  0.5800540000000 1.0
C      1  0.5747700000000  0.5592550000000  0.4669870000000 1.0
END
