TITL C-2778428-5639-1336 0.00334453122865051 125000 -1130.76969868731 0 0 197 (C1) n - 1
REM
REM in /home/nfs/bkarasulu/CARBON/AIRSS/Generating-Clusters/REBO/Only-C1/SD-CG/HFTN-CG
REM
REM
REM
REM
REM
REM ./C.cell (11c1c37f851c82e70ff6c80c92926a4b)
REM
REM compiler GCC version 9.2.1 20190827 (Red Hat 9.2.1-1)
REM options -cpp -mtune=generic -march=x86-64 -g -O0 -fpre-include=/usr/include/finclude/math-vector-fortran.h
REM seed 477063875 -1999537456 -2078049955 -1721370942 -870349577 1412399805 1863001039 96159451 356628842 1423244562 -1860178280 -1332272134 890542495 -1755451223 -498180930 1235470106 1020280510 1363463019 -758604705 1824193335 -964328534 1730089464 438034782 -2015709457 -1816984951 -1844563092 -1029265818 -134565279 -1657326523 1095688645 -606552 -622033669 -1331815633
REM
CELL 1.54180   50.00000   50.00000   50.00000   90.00000   90.00000   90.00000
LATT -1
SFAC C  
C      1  0.4405340000000  0.5712870000000  0.4420450000000 1.0
C      1  0.4913020000000  0.4588300000000  0.4538390000000 1.0
C      1  0.5127870000000  0.4630590000000  0.5975420000000 1.0
C      1  0.6097090000000  0.4661860000000  0.5116940000000 1.0
C      1  0.5693180000000  0.4382690000000  0.4498730000000 1.0
C      1  0.4418450000000  0.5101620000000  0.4428850000000 1.0
C      1  0.3760690000000  0.5145880000000  0.5465460000000 1.0
C      1  0.5296500000000  0.5301450000000  0.6016690000000 1.0
C      1  0.4971330000000  0.5060110000000  0.4394920000000 1.0
C      1  0.4992910000000  0.5717840000000  0.5223820000000 1.0
C      1  0.5136120000000  0.4712430000000  0.4930610000000 1.0
C      1  0.4394040000000  0.5361900000000  0.4228930000000 1.0
C      1  0.4635180000000  0.4197550000000  0.4283080000000 1.0
C      1  0.5849160000000  0.5201460000000  0.5601210000000 1.0
C      1  0.5056560000000  0.5933480000000  0.5654540000000 1.0
C      1  0.6183010000000  0.5477350000000  0.5000780000000 1.0
C      1  0.4191450000000  0.4887420000000  0.4839540000000 1.0
C      1  0.5920380000000  0.4935980000000  0.4363840000000 1.0
C      1  0.4611330000000  0.4903950000000  0.5422500000000 1.0
C      1  0.5108440000000  0.5528890000000  0.4445570000000 1.0
C      1  0.5396300000000  0.3987100000000  0.5289660000000 1.0
C      1  0.4391200000000  0.4770090000000  0.4470910000000 1.0
C      1  0.4289610000000  0.5592790000000  0.5545740000000 1.0
C      1  0.4287540000000  0.3963010000000  0.4774090000000 1.0
C      1  0.4612600000000  0.4541310000000  0.4482670000000 1.0
C      1  0.5573890000000  0.5326320000000  0.5733940000000 1.0
C      1  0.5014330000000  0.4700260000000  0.5219050000000 1.0
C      1  0.5227870000000  0.4248500000000  0.5148650000000 1.0
C      1  0.5245950000000  0.5989970000000  0.4534980000000 1.0
C      1  0.4524050000000  0.5125200000000  0.5629210000000 1.0
C      1  0.5540830000000  0.4306280000000  0.5102950000000 1.0
C      1  0.4531160000000  0.4932550000000  0.5037400000000 1.0
C      1  0.5027140000000  0.3970510000000  0.4587170000000 1.0
C      1  0.4926900000000  0.5007430000000  0.5643040000000 1.0
C      1  0.5562880000000  0.5111170000000  0.4345640000000 1.0
C      1  0.4821510000000  0.4702990000000  0.5568050000000 1.0
C      1  0.4244980000000  0.4310760000000  0.5338180000000 1.0
C      1  0.5718040000000  0.4400340000000  0.5370420000000 1.0
C      1  0.4672660000000  0.5451140000000  0.4560760000000 1.0
C      1  0.4898880000000  0.5949800000000  0.4949320000000 1.0
C      1  0.5453840000000  0.5682220000000  0.5250210000000 1.0
C      1  0.5436600000000  0.5854850000000  0.4316730000000 1.0
C      1  0.4319040000000  0.5425520000000  0.5187930000000 1.0
C      1  0.4043750000000  0.4452650000000  0.5128300000000 1.0
C      1  0.5319790000000  0.4537200000000  0.5554550000000 1.0
C      1  0.5246940000000  0.5665880000000  0.4102520000000 1.0
C      1  0.4274500000000  0.5838140000000  0.5416500000000 1.0
C      1  0.5391700000000  0.4853480000000  0.4492370000000 1.0
C      1  0.4718600000000  0.4574500000000  0.5152460000000 1.0
C      1  0.4702470000000  0.5315730000000  0.4250150000000 1.0
C      1  0.5296610000000  0.5160030000000  0.5700830000000 1.0
C      1  0.4897470000000  0.5213760000000  0.3854870000000 1.0
C      1  0.4235750000000  0.4248140000000  0.4690960000000 1.0
C      1  0.4797350000000  0.5678230000000  0.5499580000000 1.0
C      1  0.5017450000000  0.5022690000000  0.5953900000000 1.0
C      1  0.5330360000000  0.5121850000000  0.4676300000000 1.0
C      1  0.4549670000000  0.4286810000000  0.4654720000000 1.0
C      1  0.4620930000000  0.5047160000000  0.5909720000000 1.0
C      1  0.4088940000000  0.5193300000000  0.4418280000000 1.0
C      1  0.4702000000000  0.5417440000000  0.5082280000000 1.0
C      1  0.4452410000000  0.5828500000000  0.4685740000000 1.0
C      1  0.4719990000000  0.4009310000000  0.4548490000000 1.0
C      1  0.4560600000000  0.4276220000000  0.5098850000000 1.0
C      1  0.4475670000000  0.5648240000000  0.4973170000000 1.0
C      1  0.5092700000000  0.4436070000000  0.5359130000000 1.0
C      1  0.5486230000000  0.5465380000000  0.5043330000000 1.0
C      1  0.5510060000000  0.6049170000000  0.5380570000000 1.0
C      1  0.5684480000000  0.4942870000000  0.5722750000000 1.0
C      1  0.5285910000000  0.4838330000000  0.5672870000000 1.0
C      1  0.4841710000000  0.4898160000000  0.3927330000000 1.0
C      1  0.5817980000000  0.5527060000000  0.5498530000000 1.0
C      1  0.4875800000000  0.3965330000000  0.5280320000000 1.0
C      1  0.5920780000000  0.4422070000000  0.5109460000000 1.0
C      1  0.5400810000000  0.5474170000000  0.4338330000000 1.0
C      1  0.5262760000000  0.4372370000000  0.4246000000000 1.0
C      1  0.5748020000000  0.5849830000000  0.5228250000000 1.0
C      1  0.4782840000000  0.4223770000000  0.4879990000000 1.0
C      1  0.4093720000000  0.5436040000000  0.4735140000000 1.0
C      1  0.4521290000000  0.4116830000000  0.5384930000000 1.0
C      1  0.4389020000000  0.5402680000000  0.4670730000000 1.0
C      1  0.4358130000000  0.4395980000000  0.4321100000000 1.0
C      1  0.4084840000000  0.5569400000000  0.4985540000000 1.0
C      1  0.5467740000000  0.4230050000000  0.4377670000000 1.0
C      1  0.5226270000000  0.5741180000000  0.4760020000000 1.0
C      1  0.5690660000000  0.5853220000000  0.4749270000000 1.0
C      1  0.4313650000000  0.4402650000000  0.4955650000000 1.0
C      1  0.4008140000000  0.5161480000000  0.5633620000000 1.0
C      1  0.5006060000000  0.4287130000000  0.4534620000000 1.0
C      1  0.5935260000000  0.4661400000000  0.5610930000000 1.0
C      1  0.4839650000000  0.5399490000000  0.3686110000000 1.0
C      1  0.4510470000000  0.4511120000000  0.5415380000000 1.0
C      1  0.4830450000000  0.4272080000000  0.5393670000000 1.0
C      1  0.4753380000000  0.4675490000000  0.4829350000000 1.0
C      1  0.5664470000000  0.4886630000000  0.4144640000000 1.0
C      1  0.5494110000000  0.4014650000000  0.4963470000000 1.0
C      1  0.4056310000000  0.5408650000000  0.5404740000000 1.0
C      1  0.5726070000000  0.4645030000000  0.5882690000000 1.0
C      1  0.5075320000000  0.5151340000000  0.4125010000000 1.0
C      1  0.4932150000000  0.5676850000000  0.4236470000000 1.0
C      1  0.4549400000000  0.5186780000000  0.5235930000000 1.0
C      1  0.5272370000000  0.4252110000000  0.4730230000000 1.0
C      1  0.5287030000000  0.3909180000000  0.4732630000000 1.0
C      1  0.4923570000000  0.4349760000000  0.4210080000000 1.0
C      1  0.3782960000000  0.5344410000000  0.5212890000000 1.0
C      1  0.4807210000000  0.4764960000000  0.5960740000000 1.0
C      1  0.4566680000000  0.5446650000000  0.5540940000000 1.0
C      1  0.5334430000000  0.5335290000000  0.4054580000000 1.0
C      1  0.5486710000000  0.5617520000000  0.4772960000000 1.0
C      1  0.5316460000000  0.4903080000000  0.6004350000000 1.0
C      1  0.5465870000000  0.4539310000000  0.5979180000000 1.0
C      1  0.3853210000000  0.4953380000000  0.5215490000000 1.0
C      1  0.4041980000000  0.4718480000000  0.5295810000000 1.0
C      1  0.5206300000000  0.6054250000000  0.4869950000000 1.0
C      1  0.4392550000000  0.4871960000000  0.4087420000000 1.0
C      1  0.4128820000000  0.4884970000000  0.4273940000000 1.0
C      1  0.5613540000000  0.4654700000000  0.4615360000000 1.0
C      1  0.5861700000000  0.4194420000000  0.4660890000000 1.0
C      1  0.4652200000000  0.5712210000000  0.4259020000000 1.0
C      1  0.4097680000000  0.4504600000000  0.4515030000000 1.0
C      1  0.4993980000000  0.5257050000000  0.5172180000000 1.0
C      1  0.5676080000000  0.5803150000000  0.5557780000000 1.0
C      1  0.4424160000000  0.4666170000000  0.4872810000000 1.0
C      1  0.5990230000000  0.4222540000000  0.4893840000000 1.0
C      1  0.5826600000000  0.5668780000000  0.4977320000000 1.0
C      1  0.4586300000000  0.5258750000000  0.6081460000000 1.0
C      1  0.5560750000000  0.5105290000000  0.5994680000000 1.0
C      1  0.5763980000000  0.5316160000000  0.4341540000000 1.0
C      1  0.6130620000000  0.5328840000000  0.4698390000000 1.0
C      1  0.4856340000000  0.5284900000000  0.5476600000000 1.0
C      1  0.5633150000000  0.4120170000000  0.5454960000000 1.0
C      1  0.4167030000000  0.5520430000000  0.4353780000000 1.0
C      1  0.4732000000000  0.5509460000000  0.6040750000000 1.0
C      1  0.4248600000000  0.5066900000000  0.5464460000000 1.0
C      1  0.4591190000000  0.4570630000000  0.5820900000000 1.0
C      1  0.4851750000000  0.5332150000000  0.4809070000000 1.0
C      1  0.5856120000000  0.5500440000000  0.4681570000000 1.0
C      1  0.5399290000000  0.5516070000000  0.5528680000000 1.0
C      1  0.6178340000000  0.5089740000000  0.4911120000000 1.0
C      1  0.5063700000000  0.5280620000000  0.4597900000000 1.0
C      1  0.4145330000000  0.4705370000000  0.5600270000000 1.0
C      1  0.5101580000000  0.4188440000000  0.5672890000000 1.0
C      1  0.6081290000000  0.4813510000000  0.4880350000000 1.0
C      1  0.4165140000000  0.5061490000000  0.5133880000000 1.0
C      1  0.5442810000000  0.5034920000000  0.5297340000000 1.0
C      1  0.5041450000000  0.4382430000000  0.4920880000000 1.0
C      1  0.5294550000000  0.5319210000000  0.5269190000000 1.0
C      1  0.5248050000000  0.5940400000000  0.5188100000000 1.0
C      1  0.6136430000000  0.5344820000000  0.5214590000000 1.0
C      1  0.3782900000000  0.5159610000000  0.4959490000000 1.0
C      1  0.4832560000000  0.5714350000000  0.4705830000000 1.0
C      1  0.4981970000000  0.5293150000000  0.6117140000000 1.0
C      1  0.5108350000000  0.5051360000000  0.4925060000000 1.0
C      1  0.4840460000000  0.6012990000000  0.5442060000000 1.0
C      1  0.5035450000000  0.5577960000000  0.4939910000000 1.0
C      1  0.5779760000000  0.5335800000000  0.5035910000000 1.0
C      1  0.5648640000000  0.4619330000000  0.5043780000000 1.0
C      1  0.4971480000000  0.4476710000000  0.5737880000000 1.0
C      1  0.5068100000000  0.5375090000000  0.5697320000000 1.0
C      1  0.5578110000000  0.5299380000000  0.4694730000000 1.0
C      1  0.3925050000000  0.5146610000000  0.4694580000000 1.0
C      1  0.5114080000000  0.5573420000000  0.5967250000000 1.0
C      1  0.4316910000000  0.4673040000000  0.5773870000000 1.0
C      1  0.4870180000000  0.5728720000000  0.5828150000000 1.0
C      1  0.5338570000000  0.5845360000000  0.5595790000000 1.0
C      1  0.5340090000000  0.4336040000000  0.5797990000000 1.0
C      1  0.5612010000000  0.4683220000000  0.5507180000000 1.0
C      1  0.6028340000000  0.5217420000000  0.4415540000000 1.0
C      1  0.5581500000000  0.4024380000000  0.4630250000000 1.0
C      1  0.4914260000000  0.6002730000000  0.4556290000000 1.0
C      1  0.4364100000000  0.4744500000000  0.5264350000000 1.0
C      1  0.5120270000000  0.4004360000000  0.5450440000000 1.0
C      1  0.5691390000000  0.5263890000000  0.5320920000000 1.0
C      1  0.4685420000000  0.4933810000000  0.4459770000000 1.0
C      1  0.5674560000000  0.5630850000000  0.4422030000000 1.0
C      1  0.4791630000000  0.6089570000000  0.5186470000000 1.0
C      1  0.5136080000000  0.4919100000000  0.5388420000000 1.0
C      1  0.4891520000000  0.4942370000000  0.4714340000000 1.0
C      1  0.4817960000000  0.4589010000000  0.4047570000000 1.0
C      1  0.3955680000000  0.4503760000000  0.4809910000000 1.0
C      1  0.6095050000000  0.4782060000000  0.5398620000000 1.0
C      1  0.5170150000000  0.4679790000000  0.4361380000000 1.0
C      1  0.5999240000000  0.5039460000000  0.5199660000000 1.0
C      1  0.5690760000000  0.4916580000000  0.5121230000000 1.0
C      1  0.4636180000000  0.6057090000000  0.4658160000000 1.0
C      1  0.4361070000000  0.5177050000000  0.4879500000000 1.0
C      1  0.4736400000000  0.3875800000000  0.5071560000000 1.0
C      1  0.4625540000000  0.4302730000000  0.5654580000000 1.0
C      1  0.5363590000000  0.4994190000000  0.4025250000000 1.0
C      1  0.5115140000000  0.4763070000000  0.4052560000000 1.0
C      1  0.4576400000000  0.3923640000000  0.4819020000000 1.0
C      1  0.5391440000000  0.4553080000000  0.4830190000000 1.0
C      1  0.4501740000000  0.4602830000000  0.4096250000000 1.0
C      1  0.5784630000000  0.5078390000000  0.4844020000000 1.0
C      1  0.4610140000000  0.5061580000000  0.4080770000000 1.0
C      1  0.4015640000000  0.4831210000000  0.4587420000000 1.0
C      1  0.5856330000000  0.4826830000000  0.4647840000000 1.0
C      1  0.4235630000000  0.5812960000000  0.5138040000000 1.0
END
