TITL C-2778432-5617-9 -0.00263000781828354 125000 -918.440383287304 0 0 155 (C1) n - 1
REM
REM in /home/nfs/bkarasulu/CARBON/AIRSS/Generating-Clusters/REBO/Only-C1/SD-CG/HFTN-CG
REM
REM
REM
REM
REM
REM ./C.cell (11c1c37f851c82e70ff6c80c92926a4b)
REM
REM compiler GCC version 9.2.1 20190827 (Red Hat 9.2.1-1)
REM options -cpp -mtune=generic -march=x86-64 -g -O0 -fpre-include=/usr/include/finclude/math-vector-fortran.h
REM seed 1446267667 -764722626 729647502 1209802912 -631152060 -1981688080 -1409358899 1385981620 -1393160702 -453951846 440590863 -2020211364 -1333938697 977639979 -750839735 970603806 -2075993047 2020404132 -709539999 888261438 1988259061 -572329059 -701868411 865850252 2048307194 1569590481 -1610669990 -1763131161 1115805221 965136602 -1808774436 723102227 1874346907
REM
CELL 1.54180   50.00000   50.00000   50.00000   90.00000   90.00000   90.00000
LATT -1
SFAC C  
C      1  0.4743930000000  0.5687360000000  0.4792720000000 1.0
C      1  0.5679100000000  0.5661850000000  0.5145940000000 1.0
C      1  0.4640250000000  0.6029580000000  0.5192480000000 1.0
C      1  0.5424910000000  0.4482650000000  0.4815790000000 1.0
C      1  0.4985200000000  0.4280570000000  0.4203640000000 1.0
C      1  0.5031920000000  0.3949420000000  0.4675630000000 1.0
C      1  0.4949530000000  0.5288100000000  0.4973640000000 1.0
C      1  0.4441130000000  0.5110990000000  0.4224780000000 1.0
C      1  0.4962340000000  0.5699370000000  0.5515490000000 1.0
C      1  0.5617870000000  0.4905250000000  0.4541690000000 1.0
C      1  0.5267200000000  0.5486010000000  0.5104040000000 1.0
C      1  0.6153070000000  0.5199370000000  0.4755920000000 1.0
C      1  0.6063450000000  0.5286200000000  0.5035740000000 1.0
C      1  0.4980110000000  0.4419030000000  0.4635580000000 1.0
C      1  0.5570900000000  0.5605490000000  0.4681460000000 1.0
C      1  0.4585040000000  0.5431860000000  0.4894040000000 1.0
C      1  0.4668250000000  0.5639400000000  0.5252860000000 1.0
C      1  0.4378620000000  0.4415830000000  0.5042240000000 1.0
C      1  0.4235860000000  0.4773640000000  0.5148670000000 1.0
C      1  0.5076150000000  0.4090520000000  0.4432740000000 1.0
C      1  0.4466540000000  0.5643420000000  0.5722660000000 1.0
C      1  0.5358340000000  0.5197670000000  0.4622900000000 1.0
C      1  0.4224500000000  0.5359340000000  0.4581030000000 1.0
C      1  0.4418580000000  0.5683270000000  0.4245720000000 1.0
C      1  0.4857280000000  0.5144690000000  0.5995450000000 1.0
C      1  0.5379600000000  0.4742970000000  0.5282130000000 1.0
C      1  0.5245680000000  0.5408700000000  0.4389960000000 1.0
C      1  0.4644930000000  0.4426630000000  0.5783310000000 1.0
C      1  0.5616830000000  0.5418300000000  0.5592470000000 1.0
C      1  0.4798850000000  0.5144940000000  0.4467340000000 1.0
C      1  0.4528910000000  0.5095260000000  0.5296640000000 1.0
C      1  0.4407930000000  0.5341990000000  0.5144470000000 1.0
C      1  0.5287650000000  0.4916690000000  0.4446980000000 1.0
C      1  0.3840870000000  0.4988050000000  0.5331630000000 1.0
C      1  0.5693600000000  0.4288940000000  0.5230350000000 1.0
C      1  0.4734370000000  0.4242790000000  0.5523290000000 1.0
C      1  0.4619220000000  0.4502120000000  0.4880730000000 1.0
C      1  0.5029580000000  0.5581460000000  0.4537620000000 1.0
C      1  0.5734940000000  0.5210330000000  0.5047470000000 1.0
C      1  0.4729000000000  0.4415060000000  0.4210280000000 1.0
C      1  0.5238850000000  0.5370960000000  0.5865710000000 1.0
C      1  0.5818420000000  0.4977510000000  0.5361300000000 1.0
C      1  0.4493850000000  0.4784800000000  0.5702130000000 1.0
C      1  0.4741670000000  0.3956820000000  0.4773490000000 1.0
C      1  0.4954130000000  0.5525620000000  0.4042770000000 1.0
C      1  0.5196230000000  0.4751850000000  0.4005860000000 1.0
C      1  0.4703670000000  0.4687570000000  0.4134660000000 1.0
C      1  0.4115970000000  0.4516690000000  0.4960110000000 1.0
C      1  0.3854090000000  0.4950500000000  0.5600510000000 1.0
C      1  0.4325250000000  0.5473990000000  0.5911170000000 1.0
C      1  0.5083350000000  0.5136260000000  0.4342930000000 1.0
C      1  0.4838340000000  0.4648220000000  0.5184700000000 1.0
C      1  0.4531060000000  0.4722790000000  0.4629860000000 1.0
C      1  0.5289620000000  0.5725630000000  0.5422350000000 1.0
C      1  0.4137210000000  0.4707990000000  0.4575450000000 1.0
C      1  0.5405960000000  0.5601130000000  0.4199130000000 1.0
C      1  0.4465100000000  0.5464460000000  0.5435660000000 1.0
C      1  0.4381820000000  0.5808060000000  0.5161330000000 1.0
C      1  0.4336220000000  0.4481110000000  0.4540000000000 1.0
C      1  0.4796370000000  0.4814880000000  0.5613030000000 1.0
C      1  0.4354960000000  0.5012130000000  0.5509000000000 1.0
C      1  0.5883440000000  0.5398620000000  0.4232610000000 1.0
C      1  0.4909940000000  0.4083140000000  0.5112460000000 1.0
C      1  0.4554280000000  0.4830050000000  0.5133450000000 1.0
C      1  0.5656580000000  0.4295330000000  0.4539040000000 1.0
C      1  0.5091480000000  0.4825270000000  0.5147010000000 1.0
C      1  0.4945030000000  0.5837560000000  0.5019280000000 1.0
C      1  0.4610380000000  0.5008060000000  0.6039390000000 1.0
C      1  0.4201520000000  0.4935410000000  0.4366960000000 1.0
C      1  0.5215080000000  0.5139550000000  0.5657520000000 1.0
C      1  0.5121210000000  0.5719070000000  0.4173630000000 1.0
C      1  0.4761910000000  0.6077060000000  0.4878300000000 1.0
C      1  0.5215940000000  0.4419050000000  0.4077380000000 1.0
C      1  0.4745480000000  0.4222740000000  0.4624070000000 1.0
C      1  0.5518910000000  0.4602770000000  0.4527750000000 1.0
C      1  0.4613760000000  0.5279310000000  0.5654990000000 1.0
C      1  0.5917120000000  0.5002840000000  0.4615070000000 1.0
C      1  0.4857300000000  0.4556830000000  0.5472420000000 1.0
C      1  0.4725680000000  0.5470090000000  0.4523040000000 1.0
C      1  0.5514520000000  0.4341400000000  0.4231170000000 1.0
C      1  0.5553500000000  0.5620230000000  0.5400560000000 1.0
C      1  0.5288590000000  0.5997190000000  0.4852030000000 1.0
C      1  0.5562990000000  0.4518720000000  0.5855610000000 1.0
C      1  0.4122630000000  0.5101840000000  0.4607280000000 1.0
C      1  0.4651310000000  0.3926230000000  0.5069180000000 1.0
C      1  0.6013900000000  0.4768120000000  0.5084460000000 1.0
C      1  0.5872940000000  0.4503130000000  0.4684150000000 1.0
C      1  0.5058660000000  0.6060900000000  0.4709430000000 1.0
C      1  0.5512410000000  0.4152610000000  0.4800770000000 1.0
C      1  0.5107120000000  0.4390480000000  0.5600430000000 1.0
C      1  0.4658700000000  0.4898460000000  0.4863770000000 1.0
C      1  0.5589140000000  0.4398340000000  0.6103450000000 1.0
C      1  0.5205810000000  0.4323350000000  0.4991710000000 1.0
C      1  0.5501270000000  0.5469490000000  0.5848490000000 1.0
C      1  0.4137320000000  0.4959850000000  0.5747850000000 1.0
C      1  0.4389150000000  0.4490850000000  0.5563670000000 1.0
C      1  0.4966100000000  0.5412740000000  0.5953160000000 1.0
C      1  0.5273310000000  0.4762400000000  0.4898680000000 1.0
C      1  0.5166780000000  0.4010320000000  0.5234400000000 1.0
C      1  0.4175950000000  0.5646470000000  0.5035860000000 1.0
C      1  0.5142900000000  0.5853480000000  0.5194280000000 1.0
C      1  0.4079890000000  0.4884460000000  0.4863620000000 1.0
C      1  0.4958150000000  0.4548870000000  0.5862580000000 1.0
C      1  0.4620160000000  0.4879810000000  0.4392990000000 1.0
C      1  0.5482320000000  0.4986260000000  0.4834480000000 1.0
C      1  0.5022610000000  0.4950590000000  0.3993970000000 1.0
C      1  0.5014690000000  0.5884330000000  0.4442850000000 1.0
C      1  0.5145150000000  0.4715950000000  0.4606250000000 1.0
C      1  0.5575350000000  0.5111700000000  0.5493290000000 1.0
C      1  0.5720690000000  0.4112770000000  0.5025740000000 1.0
C      1  0.4576380000000  0.4075830000000  0.5330940000000 1.0
C      1  0.4552600000000  0.4314620000000  0.4427490000000 1.0
C      1  0.4495590000000  0.5893420000000  0.4356140000000 1.0
C      1  0.5775260000000  0.4548670000000  0.5676040000000 1.0
C      1  0.5864100000000  0.4374200000000  0.5426040000000 1.0
C      1  0.4674950000000  0.4701520000000  0.5976330000000 1.0
C      1  0.5237560000000  0.4007090000000  0.4897280000000 1.0
C      1  0.5966540000000  0.5327930000000  0.4517430000000 1.0
C      1  0.5580020000000  0.5369170000000  0.4893120000000 1.0
C      1  0.5298990000000  0.5250730000000  0.5347160000000 1.0
C      1  0.4072970000000  0.5337810000000  0.5080870000000 1.0
C      1  0.4810330000000  0.5099240000000  0.5443520000000 1.0
C      1  0.4856090000000  0.6002580000000  0.5426490000000 1.0
C      1  0.5253730000000  0.4233130000000  0.5397400000000 1.0
C      1  0.5493480000000  0.4608660000000  0.4021400000000 1.0
C      1  0.5940560000000  0.4686660000000  0.5409600000000 1.0
C      1  0.5178240000000  0.5414280000000  0.4782710000000 1.0
C      1  0.4407840000000  0.4318210000000  0.5306230000000 1.0
C      1  0.4913460000000  0.5256650000000  0.3992270000000 1.0
C      1  0.4386010000000  0.5152480000000  0.5877990000000 1.0
C      1  0.5951680000000  0.4733970000000  0.4808240000000 1.0
C      1  0.5364220000000  0.4855330000000  0.5583070000000 1.0
C      1  0.5431240000000  0.5736340000000  0.4941280000000 1.0
C      1  0.4982690000000  0.4989340000000  0.5787150000000 1.0
C      1  0.5911190000000  0.5565780000000  0.4998980000000 1.0
C      1  0.6091400000000  0.5049140000000  0.5221360000000 1.0
C      1  0.4705890000000  0.5941950000000  0.4570080000000 1.0
C      1  0.4294450000000  0.5508870000000  0.4799940000000 1.0
C      1  0.5869240000000  0.5567640000000  0.4704100000000 1.0
C      1  0.5271950000000  0.4366240000000  0.4468130000000 1.0
C      1  0.5585580000000  0.4928510000000  0.5138510000000 1.0
C      1  0.4438710000000  0.5388880000000  0.4359260000000 1.0
C      1  0.5423470000000  0.4436960000000  0.5227750000000 1.0
C      1  0.4169330000000  0.4736110000000  0.5479570000000 1.0
C      1  0.5282020000000  0.4617740000000  0.5768330000000 1.0
C      1  0.3977340000000  0.5074910000000  0.5104510000000 1.0
C      1  0.4894960000000  0.4379380000000  0.5024320000000 1.0
C      1  0.4688060000000  0.5011300000000  0.4026150000000 1.0
C      1  0.5032030000000  0.5112470000000  0.5231990000000 1.0
C      1  0.4498130000000  0.5858690000000  0.5467060000000 1.0
C      1  0.4795100000000  0.5560370000000  0.5735780000000 1.0
C      1  0.5666890000000  0.5532370000000  0.4140790000000 1.0
C      1  0.4731720000000  0.5172690000000  0.4788660000000 1.0
C      1  0.4891550000000  0.4699640000000  0.4792640000000 1.0
C      1  0.4953220000000  0.5504280000000  0.5236650000000 1.0
END
