TITL C-2778432-5617-126 -0.0503638721445625 125000 -274.829303092552 0 0 49 (C1) n - 1
REM
REM in /home/nfs/bkarasulu/CARBON/AIRSS/Generating-Clusters/REBO/Only-C1/SD-CG/HFTN-CG
REM
REM
REM
REM
REM
REM ./C.cell (11c1c37f851c82e70ff6c80c92926a4b)
REM
REM compiler GCC version 9.2.1 20190827 (Red Hat 9.2.1-1)
REM options -cpp -mtune=generic -march=x86-64 -g -O0 -fpre-include=/usr/include/finclude/math-vector-fortran.h
REM seed -1666283692 158108353 1226096612 930678604 97746151 151648967 -1750295887 -885698995 -496933638 23760561 435696646 -1551203708 223883070 -1271271728 -830333871 -372877748 -851539478 -848101784 861737011 -2145395212 -1980570514 -694709038 -1212800271 -1777300755 1733307649 1797362254 -317264943 1594050615 1337631993 -1788923432 -416404185 1813419478 -78461399
REM
CELL 1.54180   50.00000   50.00000   50.00000   90.00000   90.00000   90.00000
LATT -1
SFAC C  
C      1  0.4405090000000  0.5179880000000  0.4911610000000 1.0
C      1  0.4809250000000  0.4856310000000  0.5528120000000 1.0
C      1  0.5281540000000  0.4367850000000  0.4896010000000 1.0
C      1  0.5172530000000  0.5585400000000  0.5198640000000 1.0
C      1  0.5171600000000  0.4834380000000  0.4722740000000 1.0
C      1  0.4501210000000  0.4691640000000  0.4980160000000 1.0
C      1  0.5312450000000  0.4744370000000  0.5465350000000 1.0
C      1  0.5591900000000  0.4879880000000  0.4995900000000 1.0
C      1  0.5749550000000  0.4669840000000  0.4913350000000 1.0
C      1  0.5124210000000  0.4422280000000  0.4617670000000 1.0
C      1  0.4836990000000  0.4695890000000  0.5053880000000 1.0
C      1  0.5009690000000  0.4667110000000  0.5557710000000 1.0
C      1  0.4852690000000  0.5601460000000  0.5244910000000 1.0
C      1  0.4886910000000  0.5101970000000  0.4384120000000 1.0
C      1  0.4644770000000  0.4970630000000  0.4518670000000 1.0
C      1  0.4889760000000  0.4372790000000  0.4824460000000 1.0
C      1  0.4502060000000  0.5393530000000  0.4735230000000 1.0
C      1  0.5145050000000  0.4476550000000  0.5331600000000 1.0
C      1  0.4777860000000  0.5098200000000  0.4804380000000 1.0
C      1  0.5596760000000  0.5244620000000  0.5294030000000 1.0
C      1  0.5550900000000  0.5478550000000  0.5047440000000 1.0
C      1  0.5434330000000  0.5006430000000  0.5478750000000 1.0
C      1  0.5545080000000  0.5346700000000  0.4733940000000 1.0
C      1  0.4931950000000  0.5609150000000  0.4922870000000 1.0
C      1  0.4646020000000  0.4645540000000  0.4509650000000 1.0
C      1  0.5258610000000  0.5236490000000  0.5624400000000 1.0
C      1  0.5685040000000  0.5166250000000  0.4983890000000 1.0
C      1  0.4969020000000  0.5258780000000  0.5580120000000 1.0
C      1  0.4954620000000  0.5339570000000  0.4522970000000 1.0
C      1  0.5146770000000  0.5114590000000  0.5143820000000 1.0
C      1  0.4553430000000  0.5000380000000  0.5575930000000 1.0
C      1  0.5056450000000  0.4890790000000  0.4279520000000 1.0
C      1  0.5285370000000  0.5334150000000  0.5308560000000 1.0
C      1  0.4639610000000  0.5155970000000  0.5110390000000 1.0
C      1  0.4883310000000  0.5080890000000  0.5302080000000 1.0
C      1  0.4775100000000  0.5483330000000  0.4699160000000 1.0
C      1  0.4653010000000  0.4513080000000  0.4751150000000 1.0
C      1  0.4529880000000  0.5233720000000  0.5406540000000 1.0
C      1  0.4968490000000  0.4331600000000  0.5143300000000 1.0
C      1  0.5271410000000  0.5590920000000  0.4885760000000 1.0
C      1  0.4330420000000  0.4912020000000  0.4844820000000 1.0
C      1  0.5088090000000  0.5108870000000  0.4820710000000 1.0
C      1  0.5236670000000  0.5344830000000  0.4661710000000 1.0
C      1  0.5143250000000  0.4694970000000  0.4472490000000 1.0
C      1  0.4331840000000  0.4886040000000  0.4561350000000 1.0
C      1  0.5326160000000  0.4865680000000  0.5087190000000 1.0
C      1  0.5134350000000  0.4651630000000  0.4972720000000 1.0
C      1  0.4657010000000  0.4434900000000  0.5143270000000 1.0
C      1  0.4751940000000  0.5429590000000  0.5446960000000 1.0
END
