TITL C-2778425-5191-356 -0.00192578713651452 125000 -505.383402579719 0 0 87 (C1) n - 1
REM
REM in /home/nfs/bkarasulu/CARBON/AIRSS/Generating-Clusters/REBO/Only-C1/SD-CG/HFTN-CG
REM
REM
REM
REM
REM
REM ./C.cell (11c1c37f851c82e70ff6c80c92926a4b)
REM
REM compiler GCC version 9.2.1 20190827 (Red Hat 9.2.1-1)
REM options -cpp -mtune=generic -march=x86-64 -g -O0 -fpre-include=/usr/include/finclude/math-vector-fortran.h
REM seed 809889154 -1372616590 480009445 -514227942 822977335 772131726 -1085918795 397047842 -599418711 -247403571 -591268308 -2104342811 -857908373 -1115914086 -157657937 -385492069 738226364 -363360535 -247246451 -432542985 -519034111 -10071610 -525919533 -490449947 1261888319 660055331 2138620644 -122106192 -625227831 -1341386870 -139106864 259411695 -2111373031
REM
CELL 1.54180   50.00000   50.00000   50.00000   90.00000   90.00000   90.00000
LATT -1
SFAC C  
C      1  0.4846390000000  0.4420080000000  0.5355870000000 1.0
C      1  0.5187650000000  0.4397600000000  0.4578700000000 1.0
C      1  0.5265440000000  0.4736510000000  0.5136600000000 1.0
C      1  0.5473290000000  0.4479310000000  0.4676860000000 1.0
C      1  0.4735860000000  0.4977220000000  0.5172370000000 1.0
C      1  0.4758440000000  0.4725650000000  0.4943650000000 1.0
C      1  0.4435560000000  0.4535730000000  0.5082920000000 1.0
C      1  0.4981930000000  0.5027330000000  0.5405450000000 1.0
C      1  0.4925890000000  0.4795120000000  0.4589960000000 1.0
C      1  0.5219010000000  0.4749520000000  0.4214460000000 1.0
C      1  0.4378350000000  0.5286730000000  0.5361660000000 1.0
C      1  0.4455040000000  0.4294040000000  0.4598140000000 1.0
C      1  0.4955890000000  0.5066610000000  0.4427930000000 1.0
C      1  0.4797150000000  0.5577940000000  0.5427140000000 1.0
C      1  0.4737600000000  0.4429070000000  0.5077850000000 1.0
C      1  0.4933560000000  0.4213900000000  0.4956580000000 1.0
C      1  0.3901260000000  0.4266570000000  0.4481500000000 1.0
C      1  0.5387000000000  0.5260750000000  0.5137680000000 1.0
C      1  0.4608870000000  0.4793140000000  0.4645770000000 1.0
C      1  0.4706120000000  0.4445320000000  0.5588040000000 1.0
C      1  0.4684690000000  0.4715380000000  0.5684760000000 1.0
C      1  0.4549600000000  0.5914080000000  0.4838730000000 1.0
C      1  0.5375050000000  0.4983070000000  0.5318820000000 1.0
C      1  0.4436660000000  0.5465080000000  0.5105510000000 1.0
C      1  0.5465410000000  0.4863420000000  0.4304130000000 1.0
C      1  0.5349560000000  0.4974250000000  0.5641450000000 1.0
C      1  0.5450660000000  0.5554660000000  0.5200080000000 1.0
C      1  0.5061790000000  0.5201680000000  0.5114350000000 1.0
C      1  0.5806530000000  0.4778200000000  0.5391820000000 1.0
C      1  0.5335420000000  0.5361010000000  0.4275400000000 1.0
C      1  0.4970070000000  0.4237620000000  0.4676670000000 1.0
C      1  0.5618420000000  0.4655160000000  0.4418250000000 1.0
C      1  0.5139520000000  0.4509530000000  0.5356320000000 1.0
C      1  0.5285140000000  0.4233880000000  0.5304460000000 1.0
C      1  0.5433440000000  0.4691940000000  0.5708020000000 1.0
C      1  0.5523100000000  0.4412390000000  0.5302550000000 1.0
C      1  0.5185320000000  0.5295070000000  0.5480980000000 1.0
C      1  0.4250860000000  0.5018710000000  0.4952390000000 1.0
C      1  0.5698830000000  0.5064970000000  0.5310570000000 1.0
C      1  0.4132600000000  0.4313110000000  0.4599890000000 1.0
C      1  0.4899240000000  0.5271030000000  0.5874840000000 1.0
C      1  0.4736950000000  0.5521560000000  0.5719110000000 1.0
C      1  0.4901470000000  0.5437520000000  0.4629090000000 1.0
C      1  0.4721610000000  0.5146610000000  0.4206770000000 1.0
C      1  0.5107510000000  0.5707500000000  0.4668940000000 1.0
C      1  0.5627780000000  0.5717790000000  0.4534650000000 1.0
C      1  0.5079460000000  0.5565530000000  0.4368950000000 1.0
C      1  0.5270000000000  0.5722050000000  0.5068240000000 1.0
C      1  0.4756710000000  0.5300550000000  0.5234170000000 1.0
C      1  0.4297290000000  0.4426060000000  0.4847870000000 1.0
C      1  0.5263540000000  0.5430500000000  0.4797450000000 1.0
C      1  0.4487180000000  0.5303940000000  0.4387610000000 1.0
C      1  0.4428830000000  0.5126090000000  0.5593690000000 1.0
C      1  0.5829210000000  0.4653600000000  0.5133410000000 1.0
C      1  0.5457750000000  0.5119650000000  0.4440320000000 1.0
C      1  0.5627790000000  0.5080270000000  0.4976860000000 1.0
C      1  0.4321300000000  0.5315580000000  0.4831280000000 1.0
C      1  0.5079730000000  0.4606860000000  0.4417740000000 1.0
C      1  0.5062260000000  0.4850320000000  0.4901030000000 1.0
C      1  0.4366860000000  0.5031620000000  0.4653950000000 1.0
C      1  0.4581980000000  0.5254960000000  0.5797290000000 1.0
C      1  0.5799190000000  0.5330150000000  0.5431050000000 1.0
C      1  0.5068500000000  0.5906590000000  0.4905600000000 1.0
C      1  0.5800040000000  0.4833250000000  0.4905920000000 1.0
C      1  0.4503350000000  0.4954670000000  0.4365040000000 1.0
C      1  0.5139130000000  0.5164330000000  0.5759090000000 1.0
C      1  0.5014120000000  0.5148660000000  0.4742050000000 1.0
C      1  0.5151140000000  0.4629130000000  0.5635740000000 1.0
C      1  0.4432240000000  0.4866400000000  0.5122020000000 1.0
C      1  0.4800010000000  0.5933340000000  0.4981440000000 1.0
C      1  0.4946770000000  0.4833580000000  0.5642650000000 1.0
C      1  0.4710440000000  0.5661050000000  0.5117460000000 1.0
C      1  0.5440680000000  0.5533860000000  0.4533810000000 1.0
C      1  0.5678420000000  0.5568860000000  0.5365550000000 1.0
C      1  0.5464030000000  0.5184900000000  0.4724310000000 1.0
C      1  0.4446140000000  0.5628840000000  0.4806030000000 1.0
C      1  0.4720100000000  0.4242490000000  0.4538150000000 1.0
C      1  0.5625610000000  0.4585210000000  0.5517640000000 1.0
C      1  0.5109780000000  0.5543800000000  0.5408900000000 1.0
C      1  0.5126790000000  0.4086020000000  0.5122930000000 1.0
C      1  0.5524850000000  0.4560250000000  0.5002430000000 1.0
C      1  0.5750700000000  0.4687840000000  0.4684790000000 1.0
C      1  0.4333940000000  0.4694530000000  0.5369180000000 1.0
C      1  0.4438050000000  0.4836100000000  0.5597690000000 1.0
C      1  0.5021890000000  0.5287950000000  0.4194590000000 1.0
C      1  0.4604750000000  0.5464190000000  0.4592020000000 1.0
C      1  0.5001960000000  0.5523080000000  0.5006380000000 1.0
END
