TITL C-2778426-5645-845 -0.0032608476717455 125000 -314.917968430134 0 0 55 (C1) n - 1
REM
REM in /home/nfs/bkarasulu/CARBON/AIRSS/Generating-Clusters/REBO/Only-C1/SD-CG/HFTN-CG
REM
REM
REM
REM
REM
REM ./C.cell (11c1c37f851c82e70ff6c80c92926a4b)
REM
REM compiler GCC version 9.2.1 20190827 (Red Hat 9.2.1-1)
REM options -cpp -mtune=generic -march=x86-64 -g -O0 -fpre-include=/usr/include/finclude/math-vector-fortran.h
REM seed -1025511794 140636638 884581792 646010073 794908110 -1705820330 -1484233071 652429950 1402006956 -204624243 -1741409196 1945844795 -1400069288 1026257082 -823039193 -1583210723 -43609215 -1146539919 856683796 -358394919 1474215931 -801238212 248630195 10587129 -1877932906 135443126 2020776037 -994344396 1584015239 -918234131 -1622407822 695491357 -2062803318
REM
CELL 1.54180   50.00000   50.00000   50.00000   90.00000   90.00000   90.00000
LATT -1
SFAC C  
C      1  0.4522960000000  0.4807420000000  0.4604070000000 1.0
C      1  0.5333710000000  0.4414790000000  0.5190170000000 1.0
C      1  0.4580980000000  0.4477960000000  0.5353620000000 1.0
C      1  0.4580210000000  0.4626080000000  0.5593860000000 1.0
C      1  0.5090120000000  0.4268820000000  0.4678860000000 1.0
C      1  0.4955600000000  0.4498570000000  0.4493840000000 1.0
C      1  0.4661920000000  0.4553030000000  0.4616470000000 1.0
C      1  0.5286850000000  0.5527160000000  0.5245790000000 1.0
C      1  0.4548860000000  0.4655740000000  0.5118760000000 1.0
C      1  0.4801410000000  0.4317940000000  0.4807890000000 1.0
C      1  0.5072300000000  0.4659830000000  0.4756080000000 1.0
C      1  0.5100820000000  0.5064230000000  0.5412330000000 1.0
C      1  0.4939070000000  0.4949990000000  0.4837640000000 1.0
C      1  0.4827990000000  0.4675890000000  0.4978330000000 1.0
C      1  0.4784350000000  0.5173960000000  0.4328540000000 1.0
C      1  0.5438700000000  0.5322120000000  0.4228700000000 1.0
C      1  0.4571220000000  0.5314760000000  0.5041510000000 1.0
C      1  0.5335060000000  0.4361310000000  0.4793800000000 1.0
C      1  0.4673290000000  0.5047830000000  0.4555450000000 1.0
C      1  0.4935010000000  0.5849520000000  0.5000720000000 1.0
C      1  0.4355490000000  0.5310610000000  0.5631010000000 1.0
C      1  0.4810890000000  0.4359300000000  0.5131350000000 1.0
C      1  0.5378310000000  0.4675480000000  0.4892420000000 1.0
C      1  0.5466030000000  0.5344070000000  0.4850160000000 1.0
C      1  0.5143300000000  0.5275850000000  0.4933910000000 1.0
C      1  0.5045760000000  0.5303600000000  0.5236920000000 1.0
C      1  0.4632360000000  0.4908050000000  0.5617910000000 1.0
C      1  0.4454870000000  0.5101390000000  0.5486480000000 1.0
C      1  0.5562280000000  0.5339260000000  0.5574090000000 1.0
C      1  0.4792120000000  0.5726090000000  0.5203640000000 1.0
C      1  0.5189620000000  0.4983640000000  0.5789960000000 1.0
C      1  0.4776860000000  0.5452160000000  0.5226230000000 1.0
C      1  0.5190800000000  0.5432120000000  0.4243760000000 1.0
C      1  0.4964240000000  0.5438710000000  0.4702120000000 1.0
C      1  0.5791970000000  0.4923930000000  0.4805820000000 1.0
C      1  0.4385700000000  0.5499960000000  0.4931650000000 1.0
C      1  0.5359560000000  0.5607660000000  0.4972660000000 1.0
C      1  0.5046590000000  0.4725340000000  0.5385590000000 1.0
C      1  0.4302240000000  0.4852030000000  0.4781210000000 1.0
C      1  0.4765600000000  0.5207170000000  0.4821660000000 1.0
C      1  0.4742740000000  0.5093620000000  0.4072850000000 1.0
C      1  0.4427020000000  0.5097870000000  0.5200060000000 1.0
C      1  0.4964790000000  0.5383670000000  0.4401310000000 1.0
C      1  0.5521500000000  0.4815960000000  0.5442380000000 1.0
C      1  0.5279590000000  0.4992690000000  0.4819070000000 1.0
C      1  0.5074210000000  0.4488750000000  0.5237120000000 1.0
C      1  0.4893890000000  0.4996800000000  0.5675290000000 1.0
C      1  0.5589420000000  0.5164150000000  0.4387280000000 1.0
C      1  0.5405860000000  0.5116350000000  0.5556180000000 1.0
C      1  0.5109970000000  0.5690750000000  0.4839930000000 1.0
C      1  0.5780990000000  0.4756580000000  0.4988730000000 1.0
C      1  0.5551470000000  0.4659820000000  0.5184710000000 1.0
C      1  0.5262960000000  0.4749600000000  0.5597990000000 1.0
C      1  0.4369040000000  0.4861140000000  0.5057040000000 1.0
C      1  0.5571520000000  0.5098860000000  0.4685080000000 1.0
END
