TITL C-2778437-8639-915 -0.00144484993507961 125000 -596.720200776017 0 0 104 (C1) n - 1
REM
REM in /home/nfs/bkarasulu/CARBON/AIRSS/Generating-Clusters/REBO/Only-C1/SD-CG/HFTN-CG
REM
REM
REM
REM
REM
REM ./C.cell (11c1c37f851c82e70ff6c80c92926a4b)
REM
REM compiler GCC version 9.2.1 20190827 (Red Hat 9.2.1-1)
REM options -cpp -mtune=generic -march=x86-64 -g -O0 -fpre-include=/usr/include/finclude/math-vector-fortran.h
REM seed -740630484 841584867 -778970541 -1529113394 1193355404 -382340559 -1106794111 104537598 -421320485 157110728 1891738643 -934416852 -219581983 2120014883 2051754530 -641862036 365686673 -1629749976 681071775 916852692 836174737 353742135 1745614448 -792764007 -2106007483 157541847 -485955783 1367136945 -1510127644 301440639 -1576777371 52408786 -1594934865
REM
CELL 1.54180   50.00000   50.00000   50.00000   90.00000   90.00000   90.00000
LATT -1
SFAC C  
C      1  0.5116400000000  0.5792030000000  0.4485950000000 1.0
C      1  0.4659480000000  0.4883230000000  0.4142130000000 1.0
C      1  0.5366460000000  0.5638570000000  0.4470650000000 1.0
C      1  0.5676470000000  0.4958810000000  0.4661560000000 1.0
C      1  0.4758320000000  0.5263930000000  0.5639710000000 1.0
C      1  0.5433320000000  0.5522170000000  0.5016650000000 1.0
C      1  0.5985900000000  0.5280670000000  0.4982710000000 1.0
C      1  0.4120790000000  0.4897050000000  0.5182680000000 1.0
C      1  0.5215670000000  0.5783610000000  0.4967620000000 1.0
C      1  0.4774940000000  0.5133820000000  0.5220530000000 1.0
C      1  0.4932520000000  0.5710970000000  0.4280010000000 1.0
C      1  0.4816530000000  0.4809410000000  0.5197740000000 1.0
C      1  0.4937450000000  0.4819460000000  0.4194180000000 1.0
C      1  0.5359790000000  0.4288520000000  0.5392580000000 1.0
C      1  0.5096360000000  0.4781880000000  0.5035830000000 1.0
C      1  0.4653470000000  0.4198450000000  0.5228100000000 1.0
C      1  0.4734690000000  0.4855930000000  0.4681320000000 1.0
C      1  0.5175760000000  0.5048220000000  0.5358450000000 1.0
C      1  0.5250930000000  0.4450960000000  0.5643180000000 1.0
C      1  0.5027760000000  0.4070440000000  0.4970730000000 1.0
C      1  0.5599550000000  0.5080840000000  0.5610560000000 1.0
C      1  0.5012310000000  0.5127000000000  0.5625490000000 1.0
C      1  0.4716120000000  0.5799180000000  0.4817820000000 1.0
C      1  0.5372520000000  0.5243410000000  0.5497550000000 1.0
C      1  0.5487570000000  0.5187390000000  0.5066390000000 1.0
C      1  0.5145060000000  0.5457890000000  0.4749970000000 1.0
C      1  0.4682230000000  0.4173250000000  0.4477720000000 1.0
C      1  0.4346460000000  0.4496610000000  0.5447870000000 1.0
C      1  0.5467350000000  0.4817970000000  0.5884520000000 1.0
C      1  0.5664870000000  0.5042080000000  0.5318460000000 1.0
C      1  0.4316490000000  0.5463810000000  0.4492530000000 1.0
C      1  0.4508100000000  0.5167960000000  0.5061090000000 1.0
C      1  0.5223740000000  0.5469290000000  0.5835100000000 1.0
C      1  0.5274290000000  0.5542260000000  0.5530940000000 1.0
C      1  0.4902380000000  0.5453840000000  0.4885530000000 1.0
C      1  0.5356920000000  0.5287460000000  0.4661420000000 1.0
C      1  0.4631190000000  0.4859380000000  0.5873890000000 1.0
C      1  0.4468590000000  0.5460360000000  0.5217420000000 1.0
C      1  0.4557390000000  0.4140750000000  0.4719600000000 1.0
C      1  0.5796980000000  0.4775170000000  0.5178140000000 1.0
C      1  0.5544100000000  0.5482310000000  0.5326870000000 1.0
C      1  0.4655160000000  0.4639770000000  0.5445700000000 1.0
C      1  0.5853520000000  0.5388240000000  0.5271290000000 1.0
C      1  0.5167000000000  0.5059190000000  0.4757240000000 1.0
C      1  0.5355650000000  0.4829020000000  0.4685000000000 1.0
C      1  0.4825080000000  0.4283900000000  0.5382710000000 1.0
C      1  0.5037660000000  0.4522910000000  0.5400400000000 1.0
C      1  0.5318310000000  0.5415520000000  0.4284600000000 1.0
C      1  0.5189000000000  0.5256240000000  0.5959000000000 1.0
C      1  0.5099550000000  0.5087310000000  0.4237830000000 1.0
C      1  0.4542610000000  0.5679740000000  0.4574070000000 1.0
C      1  0.5003290000000  0.4567320000000  0.4313060000000 1.0
C      1  0.4897820000000  0.5434510000000  0.5183260000000 1.0
C      1  0.4556500000000  0.5120250000000  0.4264130000000 1.0
C      1  0.5013400000000  0.5834530000000  0.4755460000000 1.0
C      1  0.4565920000000  0.5115070000000  0.4774910000000 1.0
C      1  0.4781540000000  0.4671610000000  0.5719700000000 1.0
C      1  0.4990560000000  0.5411120000000  0.4221770000000 1.0
C      1  0.5008690000000  0.4477610000000  0.5085490000000 1.0
C      1  0.5208210000000  0.4533170000000  0.4746620000000 1.0
C      1  0.4434430000000  0.4853360000000  0.5296310000000 1.0
C      1  0.4306710000000  0.5236910000000  0.4319390000000 1.0
C      1  0.5516330000000  0.5647520000000  0.4718100000000 1.0
C      1  0.4955840000000  0.5020770000000  0.4542840000000 1.0
C      1  0.4757680000000  0.4437340000000  0.4404720000000 1.0
C      1  0.5106110000000  0.5853250000000  0.5220690000000 1.0
C      1  0.5176260000000  0.4945390000000  0.5862690000000 1.0
C      1  0.4784170000000  0.5255060000000  0.4414000000000 1.0
C      1  0.4543810000000  0.5093650000000  0.5736130000000 1.0
C      1  0.4216570000000  0.4438530000000  0.4998370000000 1.0
C      1  0.4611440000000  0.5734540000000  0.5069670000000 1.0
C      1  0.4380540000000  0.4626760000000  0.4767350000000 1.0
C      1  0.4677700000000  0.5399490000000  0.4674570000000 1.0
C      1  0.4673080000000  0.5766300000000  0.5366090000000 1.0
C      1  0.4940720000000  0.4237620000000  0.4775220000000 1.0
C      1  0.5041190000000  0.5613830000000  0.5356360000000 1.0
C      1  0.4575610000000  0.4625490000000  0.4524910000000 1.0
C      1  0.5756420000000  0.5096100000000  0.4898640000000 1.0
C      1  0.5556280000000  0.5178370000000  0.4497990000000 1.0
C      1  0.4555910000000  0.4640370000000  0.5058740000000 1.0
C      1  0.5318720000000  0.4523760000000  0.4433990000000 1.0
C      1  0.4342950000000  0.5057800000000  0.5541360000000 1.0
C      1  0.5625400000000  0.4642640000000  0.4913790000000 1.0
C      1  0.4162320000000  0.4566750000000  0.5247860000000 1.0
C      1  0.5185520000000  0.4110140000000  0.5219160000000 1.0
C      1  0.5973580000000  0.5063790000000  0.5232790000000 1.0
C      1  0.4248180000000  0.5203180000000  0.5259490000000 1.0
C      1  0.5637350000000  0.4705170000000  0.5741410000000 1.0
C      1  0.5608720000000  0.4667180000000  0.5442000000000 1.0
C      1  0.5059130000000  0.4657630000000  0.5775520000000 1.0
C      1  0.5592130000000  0.4513920000000  0.4645280000000 1.0
C      1  0.5475380000000  0.4813170000000  0.4366770000000 1.0
C      1  0.5548820000000  0.4464600000000  0.5191760000000 1.0
C      1  0.5291540000000  0.4747110000000  0.5379570000000 1.0
C      1  0.4123320000000  0.4812970000000  0.4867170000000 1.0
C      1  0.5412070000000  0.4854070000000  0.5077170000000 1.0
C      1  0.5068600000000  0.5100220000000  0.5055540000000 1.0
C      1  0.5307180000000  0.4354770000000  0.5001720000000 1.0
C      1  0.4515200000000  0.4310480000000  0.4973420000000 1.0
C      1  0.4872380000000  0.4570610000000  0.4784760000000 1.0
C      1  0.4661100000000  0.5491920000000  0.5499730000000 1.0
C      1  0.4672230000000  0.5786300000000  0.4314150000000 1.0
C      1  0.4072730000000  0.5140900000000  0.4219950000000 1.0
C      1  0.5421950000000  0.5096940000000  0.4219410000000 1.0
END
