TITL C-2778431-5191-343 -0.000792907660865649 125000 -779.988813293994 0 0 135 (C1) n - 1
REM
REM in /home/nfs/bkarasulu/CARBON/AIRSS/Generating-Clusters/REBO/Only-C1/SD-CG/HFTN-CG
REM
REM
REM
REM
REM
REM ./C.cell (11c1c37f851c82e70ff6c80c92926a4b)
REM
REM compiler GCC version 9.2.1 20190827 (Red Hat 9.2.1-1)
REM options -cpp -mtune=generic -march=x86-64 -g -O0 -fpre-include=/usr/include/finclude/math-vector-fortran.h
REM seed -921415739 -1136080462 1591096698 -2129876577 1584092921 1914089073 485829523 -2134054715 1778568385 -1986496916 849473314 32850729 -947451767 -763757187 1074836564 329552093 -37992302 -599060470 -1266212065 -334411282 -1827799894 882300346 1447919652 463745537 -586365598 -769952559 1867135184 -1662635707 -397539552 1144914307 2004673046 -1419436395 1586817597
REM
CELL 1.54180   50.00000   50.00000   50.00000   90.00000   90.00000   90.00000
LATT -1
SFAC C  
C      1  0.5645520000000  0.5219530000000  0.4468570000000 1.0
C      1  0.5139400000000  0.5818870000000  0.5032140000000 1.0
C      1  0.5787180000000  0.4671340000000  0.4872310000000 1.0
C      1  0.4760870000000  0.4299920000000  0.4899440000000 1.0
C      1  0.4009770000000  0.5385240000000  0.4488040000000 1.0
C      1  0.5397030000000  0.5026990000000  0.4384980000000 1.0
C      1  0.5032730000000  0.4267730000000  0.5635710000000 1.0
C      1  0.4743100000000  0.5371200000000  0.5384450000000 1.0
C      1  0.5356590000000  0.4020110000000  0.4603470000000 1.0
C      1  0.4512320000000  0.5067300000000  0.5523730000000 1.0
C      1  0.4863160000000  0.4884030000000  0.5933270000000 1.0
C      1  0.4310140000000  0.5348430000000  0.5033030000000 1.0
C      1  0.4495210000000  0.5824800000000  0.4863700000000 1.0
C      1  0.4702460000000  0.4678200000000  0.4783820000000 1.0
C      1  0.4415620000000  0.4241120000000  0.5316040000000 1.0
C      1  0.5045830000000  0.4928330000000  0.4042020000000 1.0
C      1  0.5212650000000  0.5291930000000  0.5089720000000 1.0
C      1  0.5175850000000  0.5358640000000  0.5797140000000 1.0
C      1  0.4385610000000  0.4793480000000  0.5583260000000 1.0
C      1  0.5639790000000  0.4736480000000  0.5470070000000 1.0
C      1  0.5095210000000  0.5502240000000  0.4011040000000 1.0
C      1  0.5979260000000  0.5084690000000  0.5203020000000 1.0
C      1  0.4788520000000  0.4399420000000  0.5624030000000 1.0
C      1  0.5824740000000  0.4473580000000  0.5369890000000 1.0
C      1  0.5172920000000  0.5216820000000  0.4792340000000 1.0
C      1  0.4047070000000  0.5645760000000  0.5038200000000 1.0
C      1  0.5945790000000  0.4779030000000  0.5328830000000 1.0
C      1  0.5323200000000  0.4572310000000  0.4242410000000 1.0
C      1  0.5931100000000  0.5248970000000  0.4810890000000 1.0
C      1  0.5421190000000  0.4911650000000  0.5903470000000 1.0
C      1  0.4079120000000  0.5208690000000  0.5247660000000 1.0
C      1  0.4837680000000  0.5370080000000  0.4981250000000 1.0
C      1  0.4255710000000  0.5548810000000  0.4539010000000 1.0
C      1  0.5713600000000  0.4226090000000  0.5296720000000 1.0
C      1  0.5267350000000  0.4942670000000  0.4655340000000 1.0
C      1  0.5500170000000  0.4667160000000  0.5045510000000 1.0
C      1  0.5913580000000  0.5344990000000  0.5375530000000 1.0
C      1  0.5832100000000  0.4430420000000  0.4729070000000 1.0
C      1  0.4812530000000  0.5668440000000  0.5393310000000 1.0
C      1  0.4242300000000  0.5066050000000  0.4914220000000 1.0
C      1  0.4098830000000  0.4679650000000  0.5330810000000 1.0
C      1  0.4895250000000  0.4653690000000  0.4075280000000 1.0
C      1  0.4806110000000  0.5109900000000  0.4203530000000 1.0
C      1  0.4105240000000  0.4857900000000  0.4715160000000 1.0
C      1  0.4225830000000  0.5174170000000  0.5822480000000 1.0
C      1  0.4136080000000  0.5561960000000  0.5322980000000 1.0
C      1  0.5113700000000  0.4092450000000  0.4725980000000 1.0
C      1  0.4194460000000  0.4633430000000  0.4656850000000 1.0
C      1  0.5276160000000  0.4079150000000  0.5680610000000 1.0
C      1  0.5016200000000  0.5560670000000  0.5164230000000 1.0
C      1  0.4828890000000  0.5804680000000  0.4912160000000 1.0
C      1  0.5711500000000  0.5205700000000  0.5060060000000 1.0
C      1  0.5259740000000  0.5557530000000  0.5531980000000 1.0
C      1  0.4979850000000  0.4869630000000  0.5619310000000 1.0
C      1  0.4285610000000  0.5607550000000  0.4838030000000 1.0
C      1  0.4607020000000  0.4882790000000  0.6012580000000 1.0
C      1  0.4514150000000  0.4710380000000  0.5205940000000 1.0
C      1  0.4583740000000  0.5707540000000  0.4491790000000 1.0
C      1  0.6117410000000  0.5048380000000  0.4824800000000 1.0
C      1  0.4765630000000  0.4796970000000  0.4513540000000 1.0
C      1  0.4903520000000  0.5332820000000  0.4676540000000 1.0
C      1  0.4447350000000  0.4478580000000  0.4731680000000 1.0
C      1  0.5262710000000  0.5652620000000  0.4177600000000 1.0
C      1  0.4865770000000  0.5644490000000  0.4614380000000 1.0
C      1  0.4782780000000  0.5352660000000  0.5900720000000 1.0
C      1  0.4688980000000  0.4128460000000  0.5194890000000 1.0
C      1  0.5840850000000  0.5713200000000  0.4846490000000 1.0
C      1  0.5315480000000  0.4852740000000  0.4176470000000 1.0
C      1  0.4781520000000  0.4619810000000  0.5380100000000 1.0
C      1  0.4932040000000  0.4345000000000  0.5256420000000 1.0
C      1  0.5211020000000  0.4621010000000  0.4647380000000 1.0
C      1  0.5543530000000  0.4881950000000  0.4804390000000 1.0
C      1  0.5411630000000  0.4388300000000  0.5091250000000 1.0
C      1  0.5593640000000  0.4211740000000  0.4662100000000 1.0
C      1  0.4899850000000  0.5092230000000  0.5429240000000 1.0
C      1  0.4312260000000  0.5018810000000  0.4413690000000 1.0
C      1  0.4605460000000  0.4920900000000  0.4991170000000 1.0
C      1  0.4735070000000  0.5775310000000  0.5670360000000 1.0
C      1  0.4662640000000  0.5171020000000  0.5741210000000 1.0
C      1  0.4188830000000  0.5314000000000  0.5551980000000 1.0
C      1  0.5900490000000  0.5487500000000  0.4661820000000 1.0
C      1  0.4913100000000  0.4003850000000  0.4982790000000 1.0
C      1  0.4982660000000  0.4403750000000  0.4675470000000 1.0
C      1  0.5002980000000  0.5256190000000  0.3989740000000 1.0
C      1  0.5645720000000  0.4198690000000  0.4994570000000 1.0
C      1  0.5611110000000  0.5738940000000  0.5241620000000 1.0
C      1  0.4676770000000  0.4707730000000  0.4252010000000 1.0
C      1  0.5517450000000  0.5228500000000  0.4780130000000 1.0
C      1  0.4475230000000  0.5990160000000  0.4600700000000 1.0
C      1  0.5711570000000  0.5511720000000  0.4393120000000 1.0
C      1  0.5401410000000  0.4833610000000  0.5280060000000 1.0
C      1  0.5290870000000  0.3882050000000  0.5865470000000 1.0
C      1  0.5753500000000  0.5295730000000  0.5596580000000 1.0
C      1  0.4292560000000  0.4496430000000  0.5505360000000 1.0
C      1  0.5087790000000  0.4760300000000  0.5314430000000 1.0
C      1  0.4455370000000  0.5840340000000  0.5634900000000 1.0
C      1  0.4233230000000  0.4907560000000  0.5195610000000 1.0
C      1  0.4823450000000  0.5623010000000  0.5890280000000 1.0
C      1  0.5539230000000  0.5566900000000  0.4811220000000 1.0
C      1  0.5720550000000  0.4700440000000  0.4457320000000 1.0
C      1  0.4520760000000  0.4292870000000  0.5630540000000 1.0
C      1  0.5499860000000  0.4153760000000  0.5477080000000 1.0
C      1  0.4031760000000  0.5137000000000  0.4439910000000 1.0
C      1  0.5136030000000  0.5273930000000  0.5410590000000 1.0
C      1  0.4940010000000  0.4706160000000  0.5026750000000 1.0
C      1  0.4364520000000  0.4921830000000  0.5864310000000 1.0
C      1  0.5457530000000  0.5278340000000  0.5525990000000 1.0
C      1  0.4446920000000  0.5312800000000  0.5323280000000 1.0
C      1  0.5246430000000  0.4342960000000  0.5385950000000 1.0
C      1  0.5286980000000  0.5778940000000  0.4781390000000 1.0
C      1  0.4487200000000  0.4437280000000  0.5051260000000 1.0
C      1  0.5536510000000  0.5619120000000  0.4136910000000 1.0
C      1  0.5140610000000  0.5738810000000  0.4474420000000 1.0
C      1  0.4503080000000  0.4234620000000  0.4560120000000 1.0
C      1  0.5340470000000  0.5750280000000  0.5298240000000 1.0
C      1  0.5140690000000  0.4262560000000  0.5013100000000 1.0
C      1  0.5784040000000  0.4935580000000  0.4425540000000 1.0
C      1  0.5072590000000  0.4450230000000  0.4175990000000 1.0
C      1  0.4604990000000  0.5803010000000  0.5170020000000 1.0
C      1  0.4462910000000  0.4871020000000  0.4164690000000 1.0
C      1  0.5588620000000  0.4800080000000  0.5761180000000 1.0
C      1  0.4362250000000  0.5771410000000  0.5382200000000 1.0
C      1  0.5492900000000  0.4489170000000  0.4512870000000 1.0
C      1  0.5841900000000  0.5589010000000  0.5245460000000 1.0
C      1  0.4959390000000  0.4282620000000  0.4377180000000 1.0
C      1  0.4753370000000  0.5123440000000  0.4528680000000 1.0
C      1  0.5477740000000  0.5715240000000  0.4517090000000 1.0
C      1  0.5459530000000  0.5136230000000  0.5228400000000 1.0
C      1  0.4475280000000  0.5007240000000  0.4687560000000 1.0
C      1  0.4744610000000  0.5123540000000  0.5135790000000 1.0
C      1  0.4464690000000  0.5488390000000  0.4297110000000 1.0
C      1  0.6020830000000  0.4805580000000  0.5008220000000 1.0
C      1  0.4498550000000  0.5207240000000  0.4215710000000 1.0
C      1  0.4549960000000  0.4029430000000  0.4415820000000 1.0
C      1  0.5151180000000  0.5045590000000  0.5854630000000 1.0
END
