TITL C-2778425-5191-299 0.000168365004102138 125000 -271.258571192419 0 0 47 (C1) n - 1
REM
REM in /home/nfs/bkarasulu/CARBON/AIRSS/Generating-Clusters/REBO/Only-C1/SD-CG/HFTN-CG
REM
REM
REM
REM
REM
REM ./C.cell (11c1c37f851c82e70ff6c80c92926a4b)
REM
REM compiler GCC version 9.2.1 20190827 (Red Hat 9.2.1-1)
REM options -cpp -mtune=generic -march=x86-64 -g -O0 -fpre-include=/usr/include/finclude/math-vector-fortran.h
REM seed 539262678 988782977 923290492 955294384 -1503334808 950132428 -1720637296 612655622 1495074990 -1608613554 1036272455 -1702733829 -862698741 1450043112 -22095277 1363839932 -1117324147 -1256737668 352252116 2099902984 1923753156 -1915582969 -1664586258 1691322659 -1157895610 -664302360 -747907638 461123905 764534030 839159768 -1477763116 -1733744652 923527547
REM
CELL 1.54180   50.00000   50.00000   50.00000   90.00000   90.00000   90.00000
LATT -1
SFAC C  
C      1  0.4334590000000  0.4601290000000  0.5224790000000 1.0
C      1  0.5322760000000  0.5584220000000  0.5113190000000 1.0
C      1  0.5353550000000  0.4728280000000  0.5256790000000 1.0
C      1  0.4891200000000  0.4539640000000  0.4973810000000 1.0
C      1  0.5354130000000  0.5039110000000  0.5620950000000 1.0
C      1  0.4628070000000  0.5296430000000  0.4692350000000 1.0
C      1  0.4575180000000  0.5585370000000  0.5047890000000 1.0
C      1  0.4691090000000  0.4772530000000  0.4921870000000 1.0
C      1  0.5140450000000  0.4658870000000  0.5093780000000 1.0
C      1  0.5179900000000  0.5206690000000  0.4378060000000 1.0
C      1  0.4437860000000  0.4914650000000  0.4744630000000 1.0
C      1  0.4982060000000  0.5020260000000  0.4538020000000 1.0
C      1  0.5001200000000  0.4609180000000  0.4358160000000 1.0
C      1  0.5425110000000  0.5349790000000  0.5589050000000 1.0
C      1  0.4774490000000  0.5494690000000  0.4852290000000 1.0
C      1  0.4801580000000  0.4982570000000  0.5640110000000 1.0
C      1  0.5238430000000  0.4822850000000  0.4469970000000 1.0
C      1  0.5048100000000  0.5376560000000  0.5458310000000 1.0
C      1  0.4518640000000  0.4672910000000  0.5425920000000 1.0
C      1  0.4726120000000  0.4679220000000  0.4314270000000 1.0
C      1  0.5646390000000  0.5036860000000  0.4917770000000 1.0
C      1  0.4489930000000  0.4644560000000  0.5713440000000 1.0
C      1  0.4739010000000  0.4867510000000  0.5374380000000 1.0
C      1  0.5068140000000  0.4866200000000  0.4827630000000 1.0
C      1  0.5066100000000  0.5232270000000  0.5165130000000 1.0
C      1  0.5287940000000  0.5557110000000  0.5392420000000 1.0
C      1  0.5569010000000  0.5514290000000  0.4932420000000 1.0
C      1  0.5328360000000  0.4759580000000  0.5544060000000 1.0
C      1  0.5339630000000  0.4671680000000  0.4747200000000 1.0
C      1  0.4343710000000  0.5419900000000  0.5037800000000 1.0
C      1  0.5390990000000  0.5247500000000  0.4548140000000 1.0
C      1  0.4964510000000  0.4324950000000  0.4798870000000 1.0
C      1  0.5340810000000  0.5445390000000  0.4743150000000 1.0
C      1  0.5757880000000  0.5300420000000  0.4934900000000 1.0
C      1  0.4373160000000  0.5218490000000  0.4832120000000 1.0
C      1  0.5047500000000  0.4352280000000  0.4485040000000 1.0
C      1  0.5514180000000  0.4952180000000  0.5147650000000 1.0
C      1  0.4708890000000  0.5100290000000  0.4517240000000 1.0
C      1  0.4379250000000  0.4686730000000  0.4975640000000 1.0
C      1  0.5355030000000  0.5172700000000  0.5304990000000 1.0
C      1  0.4550290000000  0.4866140000000  0.4438650000000 1.0
C      1  0.4658730000000  0.4830470000000  0.5841250000000 1.0
C      1  0.5273490000000  0.4375210000000  0.4716280000000 1.0
C      1  0.4896500000000  0.4975410000000  0.5102500000000 1.0
C      1  0.5494820000000  0.4962390000000  0.4658490000000 1.0
C      1  0.5064070000000  0.5453690000000  0.4930770000000 1.0
C      1  0.4927170000000  0.5230710000000  0.5657880000000 1.0
END
