TITL C-2778429-3646-1034 0.00249376985903947 125000 -282.791822585551 0 0 50 (C1) n - 1
REM
REM in /home/nfs/bkarasulu/CARBON/AIRSS/Generating-Clusters/REBO/Only-C1/SD-CG/HFTN-CG
REM
REM
REM
REM
REM
REM ./C.cell (11c1c37f851c82e70ff6c80c92926a4b)
REM
REM compiler GCC version 9.2.1 20190827 (Red Hat 9.2.1-1)
REM options -cpp -mtune=generic -march=x86-64 -g -O0 -fpre-include=/usr/include/finclude/math-vector-fortran.h
REM seed 1499857428 174604542 -37968222 -1827685508 -530136924 -1182008982 -612197077 -573281435 -599388155 2081152271 989488870 -115135607 -155460189 1319401651 -693379379 47641392 199512507 693754825 716592100 -1284167756 504549253 -1120097315 920837734 589887598 -1983751989 -252412072 -317649932 -233483427 269086953 -493848585 1236320717 839446444 580442863
REM
CELL 1.54180   50.00000   50.00000   50.00000   90.00000   90.00000   90.00000
LATT -1
SFAC C  
C      1  0.5622710000000  0.5297550000000  0.5062710000000 1.0
C      1  0.4674670000000  0.4846910000000  0.5150510000000 1.0
C      1  0.5554840000000  0.4858430000000  0.5288610000000 1.0
C      1  0.4666470000000  0.5158190000000  0.4765250000000 1.0
C      1  0.4890460000000  0.5322680000000  0.5232780000000 1.0
C      1  0.4377110000000  0.4800920000000  0.5146050000000 1.0
C      1  0.4679070000000  0.5261280000000  0.5451320000000 1.0
C      1  0.4746510000000  0.5066810000000  0.5643850000000 1.0
C      1  0.5468870000000  0.4576900000000  0.5274220000000 1.0
C      1  0.5680500000000  0.5095620000000  0.4566750000000 1.0
C      1  0.5664380000000  0.4871210000000  0.4799740000000 1.0
C      1  0.5009300000000  0.5111420000000  0.4412350000000 1.0
C      1  0.4936170000000  0.4617600000000  0.5567780000000 1.0
C      1  0.5189630000000  0.5307710000000  0.5291430000000 1.0
C      1  0.4701620000000  0.5668450000000  0.4894840000000 1.0
C      1  0.5193690000000  0.5506450000000  0.4841020000000 1.0
C      1  0.5663530000000  0.4556990000000  0.4832670000000 1.0
C      1  0.4268470000000  0.4685640000000  0.5375420000000 1.0
C      1  0.4809870000000  0.4722940000000  0.4556380000000 1.0
C      1  0.4763640000000  0.4998650000000  0.4514810000000 1.0
C      1  0.4209430000000  0.5036370000000  0.4987430000000 1.0
C      1  0.5217300000000  0.4931570000000  0.4492040000000 1.0
C      1  0.5132620000000  0.5176800000000  0.4906890000000 1.0
C      1  0.4819160000000  0.5091120000000  0.5012670000000 1.0
C      1  0.5264380000000  0.5509020000000  0.4557170000000 1.0
C      1  0.5353940000000  0.5444100000000  0.5103840000000 1.0
C      1  0.4942770000000  0.4245770000000  0.4950670000000 1.0
C      1  0.5120810000000  0.4630550000000  0.4620180000000 1.0
C      1  0.5175770000000  0.4440770000000  0.4866960000000 1.0
C      1  0.4445240000000  0.5221360000000  0.4514890000000 1.0
C      1  0.4949890000000  0.4873840000000  0.5694000000000 1.0
C      1  0.4830550000000  0.4611720000000  0.5260210000000 1.0
C      1  0.4418610000000  0.5335120000000  0.5369260000000 1.0
C      1  0.5218520000000  0.4922910000000  0.5084710000000 1.0
C      1  0.4225700000000  0.4728760000000  0.4849230000000 1.0
C      1  0.4294700000000  0.5296980000000  0.4812290000000 1.0
C      1  0.5189280000000  0.4527010000000  0.5413670000000 1.0
C      1  0.5468150000000  0.4463270000000  0.5002430000000 1.0
C      1  0.5690640000000  0.5003050000000  0.5081730000000 1.0
C      1  0.5065390000000  0.5389730000000  0.4386800000000 1.0
C      1  0.4824910000000  0.5598180000000  0.5099890000000 1.0
C      1  0.5535530000000  0.5380690000000  0.4511340000000 1.0
C      1  0.4268060000000  0.5315470000000  0.5149140000000 1.0
C      1  0.5342940000000  0.4827960000000  0.4789240000000 1.0
C      1  0.4560940000000  0.5477300000000  0.4712210000000 1.0
C      1  0.4781040000000  0.4326060000000  0.5129410000000 1.0
C      1  0.5454050000000  0.5210450000000  0.4795990000000 1.0
C      1  0.5112180000000  0.4636340000000  0.5107880000000 1.0
C      1  0.5311180000000  0.5037280000000  0.5392700000000 1.0
C      1  0.5214840000000  0.4978100000000  0.5676620000000 1.0
END
