TITL C-2778430-5657-1262 -0.000525622961870415 125000 -128.65633657166 0 0 23 (C1) n - 1
REM
REM in /home/nfs/bkarasulu/CARBON/AIRSS/Generating-Clusters/REBO/Only-C1/SD-CG/HFTN-CG
REM
REM
REM
REM
REM
REM ./C.cell (11c1c37f851c82e70ff6c80c92926a4b)
REM
REM compiler GCC version 9.2.1 20190827 (Red Hat 9.2.1-1)
REM options -cpp -mtune=generic -march=x86-64 -g -O0 -fpre-include=/usr/include/finclude/math-vector-fortran.h
REM seed 769109297 -678340059 -758169013 1777478378 1843640153 1913134060 2122301280 -1374789816 -1166319311 1360019082 1106570258 1241701131 950155580 -1913072018 -65034861 -1015544744 -43782018 1528830214 607156798 1589528802 1780193508 2042409012 1514332166 -1230443548 1263193974 1690860149 568082708 -310918976 1841698467 633775770 -925086604 678241540 -1265884450
REM
CELL 1.54180   50.00000   50.00000   50.00000   90.00000   90.00000   90.00000
LATT -1
SFAC C  
C      1  0.4830400000000  0.5029890000000  0.5631460000000 1.0
C      1  0.4766240000000  0.5189430000000  0.4903510000000 1.0
C      1  0.4700070000000  0.5498470000000  0.5268940000000 1.0
C      1  0.4911450000000  0.5396060000000  0.4761960000000 1.0
C      1  0.5443580000000  0.4486050000000  0.5002950000000 1.0
C      1  0.4894890000000  0.4771140000000  0.5207980000000 1.0
C      1  0.4818880000000  0.5016350000000  0.5355730000000 1.0
C      1  0.4760100000000  0.5711540000000  0.5102780000000 1.0
C      1  0.4718040000000  0.4922540000000  0.4470340000000 1.0
C      1  0.4863590000000  0.5662470000000  0.4850670000000 1.0
C      1  0.5556900000000  0.4464400000000  0.4734350000000 1.0
C      1  0.4738990000000  0.5228100000000  0.5186840000000 1.0
C      1  0.5244360000000  0.5046920000000  0.4746460000000 1.0
C      1  0.5151650000000  0.5294440000000  0.4647160000000 1.0
C      1  0.5602160000000  0.4721110000000  0.4621590000000 1.0
C      1  0.4653100000000  0.4616370000000  0.5110960000000 1.0
C      1  0.5180400000000  0.4674010000000  0.5108710000000 1.0
C      1  0.4561430000000  0.4697510000000  0.4887890000000 1.0
C      1  0.5487230000000  0.4800420000000  0.5068940000000 1.0
C      1  0.4841320000000  0.5042740000000  0.5892990000000 1.0
C      1  0.5506280000000  0.4935240000000  0.4801260000000 1.0
C      1  0.5031360000000  0.4883620000000  0.4888380000000 1.0
C      1  0.4737580000000  0.4911170000000  0.4748160000000 1.0
END
