TITL C-2778435-5768-662 0.00155408544900821 125000 -401.505191607688 0 0 71 (C1) n - 1
REM
REM in /home/nfs/bkarasulu/CARBON/AIRSS/Generating-Clusters/REBO/Only-C1/SD-CG/HFTN-CG
REM
REM
REM
REM
REM
REM ./C.cell (11c1c37f851c82e70ff6c80c92926a4b)
REM
REM compiler GCC version 9.2.1 20190827 (Red Hat 9.2.1-1)
REM options -cpp -mtune=generic -march=x86-64 -g -O0 -fpre-include=/usr/include/finclude/math-vector-fortran.h
REM seed 181127542 2110303235 -1143045951 -136499283 575210945 -836593853 1533167200 1804247066 -142786741 -522445469 -2022375808 878908125 -671582770 -44256753 -657890325 2104287924 -944955587 -173536148 761076803 -1467937064 2036967598 -2028125329 1163835772 74295186 1713240226 787562620 602295094 -472176699 1119389483 -1902217332 1695199355 -885674580 -1308233039
REM
CELL 1.54180   50.00000   50.00000   50.00000   90.00000   90.00000   90.00000
LATT -1
SFAC C  
C      1  0.4234820000000  0.5046770000000  0.4764070000000 1.0
C      1  0.4575200000000  0.5209400000000  0.4375560000000 1.0
C      1  0.5499110000000  0.4609290000000  0.4837850000000 1.0
C      1  0.4262270000000  0.5068540000000  0.5102620000000 1.0
C      1  0.4677000000000  0.4939460000000  0.4273590000000 1.0
C      1  0.5724920000000  0.5099250000000  0.4912470000000 1.0
C      1  0.5056380000000  0.5339770000000  0.5277230000000 1.0
C      1  0.5306210000000  0.4449490000000  0.5554040000000 1.0
C      1  0.4540990000000  0.4826100000000  0.4632820000000 1.0
C      1  0.5294370000000  0.5157400000000  0.4311250000000 1.0
C      1  0.5420270000000  0.5250550000000  0.5120260000000 1.0
C      1  0.5085260000000  0.5677590000000  0.4470510000000 1.0
C      1  0.4901130000000  0.4795240000000  0.5599120000000 1.0
C      1  0.5194590000000  0.5043570000000  0.5257190000000 1.0
C      1  0.4976520000000  0.4360430000000  0.4983620000000 1.0
C      1  0.4833100000000  0.5368940000000  0.5607070000000 1.0
C      1  0.5507490000000  0.4758800000000  0.4599780000000 1.0
C      1  0.4729030000000  0.4357400000000  0.5685190000000 1.0
C      1  0.4260970000000  0.4738700000000  0.5010260000000 1.0
C      1  0.4792740000000  0.5447290000000  0.5176130000000 1.0
C      1  0.4533970000000  0.5266000000000  0.5157380000000 1.0
C      1  0.4912100000000  0.5777980000000  0.4716660000000 1.0
C      1  0.4643240000000  0.4602050000000  0.4307470000000 1.0
C      1  0.5570980000000  0.5482350000000  0.4643200000000 1.0
C      1  0.5076590000000  0.5263430000000  0.4626240000000 1.0
C      1  0.4839840000000  0.4645460000000  0.5047580000000 1.0
C      1  0.4965050000000  0.5096750000000  0.5868010000000 1.0
C      1  0.4628430000000  0.4195560000000  0.4684910000000 1.0
C      1  0.5018170000000  0.4344230000000  0.5703170000000 1.0
C      1  0.4251680000000  0.4732410000000  0.4696470000000 1.0
C      1  0.5305970000000  0.5493660000000  0.4578390000000 1.0
C      1  0.5122930000000  0.4649060000000  0.5745580000000 1.0
C      1  0.5302760000000  0.4757260000000  0.5408440000000 1.0
C      1  0.4465180000000  0.5015810000000  0.5377470000000 1.0
C      1  0.5627710000000  0.4984980000000  0.5379050000000 1.0
C      1  0.4997670000000  0.5560890000000  0.5604840000000 1.0
C      1  0.5676180000000  0.5203090000000  0.4623540000000 1.0
C      1  0.4639940000000  0.4990780000000  0.4873490000000 1.0
C      1  0.5062870000000  0.5874690000000  0.4999450000000 1.0
C      1  0.4618450000000  0.5321930000000  0.4840390000000 1.0
C      1  0.4565140000000  0.4813560000000  0.5136680000000 1.0
C      1  0.5267580000000  0.4359780000000  0.4873890000000 1.0
C      1  0.5403850000000  0.4985070000000  0.4923320000000 1.0
C      1  0.4804000000000  0.4163350000000  0.4897430000000 1.0
C      1  0.5233640000000  0.5577260000000  0.5390820000000 1.0
C      1  0.5083140000000  0.5419010000000  0.4258060000000 1.0
C      1  0.4626860000000  0.4629330000000  0.5659550000000 1.0
C      1  0.4809800000000  0.4658050000000  0.4730840000000 1.0
C      1  0.5277120000000  0.5819020000000  0.5167030000000 1.0
C      1  0.4807490000000  0.5683970000000  0.5026300000000 1.0
C      1  0.5071930000000  0.4721400000000  0.4579640000000 1.0
C      1  0.5579670000000  0.4776010000000  0.5124050000000 1.0
C      1  0.5412100000000  0.5006990000000  0.5589740000000 1.0
C      1  0.5500720000000  0.5572090000000  0.5197340000000 1.0
C      1  0.5491680000000  0.4500780000000  0.5286140000000 1.0
C      1  0.5506390000000  0.5022780000000  0.4468860000000 1.0
C      1  0.4527280000000  0.4919540000000  0.5653270000000 1.0
C      1  0.4793150000000  0.5400530000000  0.4381310000000 1.0
C      1  0.5657800000000  0.5430510000000  0.4951520000000 1.0
C      1  0.4831370000000  0.5463940000000  0.4693300000000 1.0
C      1  0.4939870000000  0.4836160000000  0.5270470000000 1.0
C      1  0.5475500000000  0.4290240000000  0.5098110000000 1.0
C      1  0.5192260000000  0.4976560000000  0.4711970000000 1.0
C      1  0.4419650000000  0.5207960000000  0.4621350000000 1.0
C      1  0.5223340000000  0.5095970000000  0.5777370000000 1.0
C      1  0.4631950000000  0.4446180000000  0.4556490000000 1.0
C      1  0.4947390000000  0.4738180000000  0.4282770000000 1.0
C      1  0.4691350000000  0.5073190000000  0.5835790000000 1.0
C      1  0.4987010000000  0.5052020000000  0.4373590000000 1.0
C      1  0.5243100000000  0.4460980000000  0.4573110000000 1.0
C      1  0.4865780000000  0.5097230000000  0.5477480000000 1.0
END
