TITL C-2778427-5640-47 -0.00393987033649815 125000 -1156.29686745401 0 0 195 (C1) n - 1
REM
REM in /home/nfs/bkarasulu/CARBON/AIRSS/Generating-Clusters/REBO/Only-C1/SD-CG/HFTN-CG
REM
REM
REM
REM
REM
REM ./C.cell (11c1c37f851c82e70ff6c80c92926a4b)
REM
REM compiler GCC version 9.2.1 20190827 (Red Hat 9.2.1-1)
REM options -cpp -mtune=generic -march=x86-64 -g -O0 -fpre-include=/usr/include/finclude/math-vector-fortran.h
REM seed -17958318 -900899600 -1799856864 -1320065457 -1570287066 -2018595812 -725959765 -222532838 253908862 -606332079 -728701008 1471732934 -353145399 286938652 495519906 1168053519 1363981549 1880684569 -99769666 -1002534277 -185159575 232405513 -306276637 345961821 -616707219 83419898 -1164497879 -1968745777 -2000673297 -110243505 -346432953 -891697701 631180079
REM
CELL 1.54180   50.00000   50.00000   50.00000   90.00000   90.00000   90.00000
LATT -1
SFAC C  
C      1  0.5717950000000  0.5109060000000  0.5941360000000 1.0
C      1  0.4576710000000  0.4432700000000  0.5382440000000 1.0
C      1  0.5603550000000  0.4472090000000  0.5292400000000 1.0
C      1  0.4458550000000  0.4605610000000  0.5124830000000 1.0
C      1  0.4452010000000  0.4117510000000  0.5436510000000 1.0
C      1  0.5115500000000  0.4410340000000  0.4022670000000 1.0
C      1  0.4978060000000  0.4653020000000  0.5824300000000 1.0
C      1  0.5336730000000  0.4039270000000  0.4489860000000 1.0
C      1  0.5101690000000  0.5387760000000  0.5398030000000 1.0
C      1  0.4931520000000  0.4185820000000  0.5110570000000 1.0
C      1  0.4506550000000  0.5315460000000  0.4594270000000 1.0
C      1  0.5520700000000  0.5990890000000  0.4782080000000 1.0
C      1  0.5941790000000  0.4312630000000  0.5119970000000 1.0
C      1  0.3961540000000  0.5180060000000  0.4633590000000 1.0
C      1  0.5294170000000  0.5537620000000  0.5581490000000 1.0
C      1  0.4466810000000  0.4250040000000  0.5717510000000 1.0
C      1  0.4840130000000  0.4520620000000  0.4628230000000 1.0
C      1  0.4132710000000  0.4512020000000  0.5522580000000 1.0
C      1  0.5757220000000  0.5652660000000  0.5270520000000 1.0
C      1  0.5935210000000  0.5690400000000  0.4569070000000 1.0
C      1  0.4437880000000  0.3934490000000  0.4850300000000 1.0
C      1  0.5038280000000  0.6073480000000  0.4567730000000 1.0
C      1  0.5934740000000  0.5386590000000  0.5400310000000 1.0
C      1  0.4760000000000  0.4067050000000  0.4411840000000 1.0
C      1  0.4379020000000  0.5434900000000  0.4300590000000 1.0
C      1  0.4465790000000  0.5755250000000  0.4331160000000 1.0
C      1  0.4634330000000  0.5918870000000  0.5328040000000 1.0
C      1  0.5360890000000  0.4791750000000  0.6136800000000 1.0
C      1  0.4244650000000  0.4780270000000  0.5195000000000 1.0
C      1  0.4335070000000  0.4863760000000  0.4752190000000 1.0
C      1  0.5195550000000  0.5464220000000  0.4506160000000 1.0
C      1  0.5765690000000  0.4790750000000  0.5474330000000 1.0
C      1  0.4781170000000  0.5117780000000  0.4386220000000 1.0
C      1  0.6029000000000  0.4888770000000  0.5313420000000 1.0
C      1  0.5697060000000  0.5149100000000  0.4079190000000 1.0
C      1  0.4717910000000  0.4750290000000  0.3869870000000 1.0
C      1  0.4472590000000  0.5400540000000  0.5397850000000 1.0
C      1  0.5001790000000  0.4538870000000  0.5301050000000 1.0
C      1  0.4859750000000  0.4047870000000  0.4728550000000 1.0
C      1  0.5229270000000  0.4362600000000  0.4510820000000 1.0
C      1  0.5626970000000  0.5578960000000  0.5562320000000 1.0
C      1  0.4760100000000  0.5456690000000  0.4409150000000 1.0
C      1  0.5146760000000  0.5574740000000  0.4827030000000 1.0
C      1  0.5255250000000  0.4850950000000  0.4257120000000 1.0
C      1  0.4783280000000  0.5466680000000  0.5357660000000 1.0
C      1  0.4263630000000  0.5758510000000  0.5616830000000 1.0
C      1  0.5494770000000  0.4900660000000  0.5430360000000 1.0
C      1  0.5994660000000  0.4747160000000  0.4895580000000 1.0
C      1  0.5485150000000  0.5450300000000  0.4633280000000 1.0
C      1  0.4954920000000  0.4975700000000  0.3926680000000 1.0
C      1  0.4862230000000  0.4212600000000  0.4120740000000 1.0
C      1  0.4685560000000  0.5034560000000  0.4667660000000 1.0
C      1  0.4395080000000  0.5853550000000  0.4639820000000 1.0
C      1  0.5116760000000  0.4830710000000  0.4948510000000 1.0
C      1  0.4309330000000  0.5453840000000  0.5872780000000 1.0
C      1  0.4957620000000  0.5307290000000  0.3915800000000 1.0
C      1  0.4622920000000  0.5079250000000  0.5769100000000 1.0
C      1  0.5662900000000  0.5473250000000  0.4381890000000 1.0
C      1  0.5713920000000  0.5809480000000  0.4361510000000 1.0
C      1  0.5059140000000  0.6109460000000  0.5027010000000 1.0
C      1  0.5270560000000  0.4525360000000  0.6064390000000 1.0
C      1  0.5560700000000  0.5178200000000  0.4761090000000 1.0
C      1  0.4008020000000  0.4905710000000  0.4734910000000 1.0
C      1  0.4104680000000  0.5677210000000  0.4619140000000 1.0
C      1  0.5390680000000  0.4982280000000  0.4607120000000 1.0
C      1  0.4615040000000  0.5497820000000  0.4933290000000 1.0
C      1  0.5263170000000  0.4783080000000  0.5733750000000 1.0
C      1  0.5758910000000  0.4646050000000  0.4391270000000 1.0
C      1  0.5480950000000  0.3960970000000  0.4715420000000 1.0
C      1  0.4932240000000  0.4579140000000  0.5042300000000 1.0
C      1  0.4778390000000  0.5537410000000  0.4078170000000 1.0
C      1  0.4154000000000  0.4393960000000  0.4975290000000 1.0
C      1  0.5232770000000  0.5317890000000  0.4064100000000 1.0
C      1  0.5170980000000  0.5010050000000  0.6214150000000 1.0
C      1  0.4077180000000  0.5560930000000  0.4347700000000 1.0
C      1  0.5062110000000  0.4634280000000  0.4392120000000 1.0
C      1  0.5551360000000  0.4923000000000  0.3999230000000 1.0
C      1  0.4501750000000  0.4753890000000  0.5966080000000 1.0
C      1  0.4898880000000  0.4812940000000  0.4710380000000 1.0
C      1  0.6059310000000  0.5159760000000  0.5294820000000 1.0
C      1  0.3930170000000  0.4741050000000  0.5268300000000 1.0
C      1  0.4155080000000  0.4643840000000  0.4471240000000 1.0
C      1  0.4359070000000  0.5010090000000  0.6057350000000 1.0
C      1  0.5358000000000  0.5069700000000  0.4994210000000 1.0
C      1  0.5007030000000  0.3870020000000  0.4879590000000 1.0
C      1  0.5381320000000  0.4676010000000  0.4859530000000 1.0
C      1  0.5350640000000  0.5628570000000  0.5096370000000 1.0
C      1  0.5551740000000  0.4612870000000  0.5793910000000 1.0
C      1  0.4734860000000  0.5810640000000  0.4228040000000 1.0
C      1  0.5907840000000  0.5664870000000  0.4860670000000 1.0
C      1  0.5602180000000  0.5358390000000  0.5193630000000 1.0
C      1  0.5023690000000  0.5277260000000  0.5714070000000 1.0
C      1  0.5990680000000  0.4548910000000  0.5331030000000 1.0
C      1  0.3846240000000  0.4994970000000  0.5420540000000 1.0
C      1  0.4873150000000  0.6093140000000  0.4804450000000 1.0
C      1  0.4065010000000  0.5428420000000  0.4784610000000 1.0
C      1  0.4856280000000  0.4854010000000  0.4228610000000 1.0
C      1  0.4492060000000  0.4123980000000  0.4600900000000 1.0
C      1  0.4337980000000  0.4606960000000  0.4231350000000 1.0
C      1  0.5625330000000  0.5918030000000  0.5100890000000 1.0
C      1  0.5949690000000  0.5364820000000  0.4470690000000 1.0
C      1  0.5375350000000  0.4403820000000  0.4111270000000 1.0
C      1  0.4670240000000  0.5144740000000  0.6084080000000 1.0
C      1  0.5206350000000  0.4283080000000  0.5071510000000 1.0
C      1  0.5197510000000  0.5677230000000  0.5869390000000 1.0
C      1  0.5767400000000  0.4491070000000  0.5586780000000 1.0
C      1  0.4189600000000  0.5195820000000  0.5923610000000 1.0
C      1  0.6005090000000  0.4926600000000  0.4692370000000 1.0
C      1  0.5518820000000  0.5209600000000  0.5456740000000 1.0
C      1  0.4380120000000  0.4962310000000  0.5597840000000 1.0
C      1  0.4916800000000  0.4354140000000  0.5775380000000 1.0
C      1  0.5256540000000  0.4405100000000  0.4828250000000 1.0
C      1  0.4817000000000  0.4491800000000  0.3924500000000 1.0
C      1  0.5173820000000  0.5171610000000  0.4332930000000 1.0
C      1  0.5698440000000  0.4113360000000  0.5148880000000 1.0
C      1  0.5731350000000  0.4641910000000  0.5042520000000 1.0
C      1  0.4065990000000  0.4569760000000  0.4759090000000 1.0
C      1  0.4135240000000  0.4781730000000  0.5623660000000 1.0
C      1  0.4286000000000  0.6235360000000  0.5180920000000 1.0
C      1  0.5949990000000  0.4880410000000  0.4413490000000 1.0
C      1  0.5369040000000  0.4322420000000  0.5300680000000 1.0
C      1  0.5430250000000  0.5833050000000  0.5676440000000 1.0
C      1  0.5901410000000  0.4383070000000  0.4541310000000 1.0
C      1  0.5513380000000  0.5680870000000  0.4824330000000 1.0
C      1  0.4499270000000  0.6075960000000  0.5126280000000 1.0
C      1  0.5525870000000  0.5419500000000  0.4080640000000 1.0
C      1  0.5302480000000  0.6041600000000  0.5112160000000 1.0
C      1  0.4793440000000  0.5402710000000  0.5930650000000 1.0
C      1  0.4267060000000  0.4938970000000  0.4438890000000 1.0
C      1  0.5264060000000  0.4237300000000  0.5571540000000 1.0
C      1  0.4804590000000  0.5267870000000  0.5011700000000 1.0
C      1  0.5247830000000  0.5279340000000  0.6130820000000 1.0
C      1  0.5190990000000  0.3885530000000  0.5107980000000 1.0
C      1  0.5760580000000  0.5299710000000  0.5679270000000 1.0
C      1  0.5721220000000  0.4164490000000  0.4816450000000 1.0
C      1  0.4739520000000  0.4795440000000  0.5648480000000 1.0
C      1  0.6022500000000  0.4323950000000  0.4821320000000 1.0
C      1  0.5253220000000  0.4886410000000  0.3918150000000 1.0
C      1  0.4429090000000  0.4237720000000  0.4978730000000 1.0
C      1  0.4432060000000  0.3990910000000  0.5186300000000 1.0
C      1  0.4797050000000  0.5724180000000  0.5208150000000 1.0
C      1  0.4669880000000  0.5029430000000  0.5169460000000 1.0
C      1  0.4874530000000  0.4909100000000  0.5368950000000 1.0
C      1  0.4310720000000  0.5120530000000  0.4194720000000 1.0
C      1  0.4744030000000  0.4332010000000  0.4887410000000 1.0
C      1  0.5655590000000  0.4645940000000  0.4709930000000 1.0
C      1  0.5297280000000  0.5119950000000  0.5699200000000 1.0
C      1  0.5320940000000  0.6102740000000  0.4631600000000 1.0
C      1  0.4014760000000  0.5085370000000  0.5703830000000 1.0
C      1  0.5640690000000  0.4843050000000  0.6011270000000 1.0
C      1  0.5176520000000  0.4779860000000  0.5418210000000 1.0
C      1  0.5227700000000  0.5326780000000  0.5129130000000 1.0
C      1  0.4978880000000  0.5899340000000  0.4347480000000 1.0
C      1  0.4686570000000  0.5216340000000  0.4098260000000 1.0
C      1  0.4470480000000  0.5077400000000  0.4912430000000 1.0
C      1  0.4677690000000  0.5669610000000  0.4656370000000 1.0
C      1  0.5446480000000  0.4162870000000  0.4239950000000 1.0
C      1  0.4701790000000  0.4218880000000  0.5888990000000 1.0
C      1  0.4229740000000  0.5514690000000  0.5485620000000 1.0
C      1  0.5094600000000  0.5062360000000  0.4627000000000 1.0
C      1  0.5073000000000  0.5494540000000  0.6046020000000 1.0
C      1  0.4476510000000  0.4581400000000  0.5674020000000 1.0
C      1  0.5458340000000  0.3950790000000  0.5026190000000 1.0
C      1  0.4441350000000  0.4408060000000  0.4620640000000 1.0
C      1  0.5816680000000  0.5414610000000  0.4957450000000 1.0
C      1  0.4414880000000  0.5113700000000  0.5328850000000 1.0
C      1  0.4551370000000  0.5844560000000  0.5604540000000 1.0
C      1  0.4884810000000  0.4317790000000  0.5477650000000 1.0
C      1  0.4742770000000  0.4397490000000  0.4360300000000 1.0
C      1  0.5313420000000  0.4383760000000  0.5798090000000 1.0
C      1  0.4594420000000  0.6030900000000  0.4850790000000 1.0
C      1  0.4032400000000  0.5249020000000  0.4349690000000 1.0
C      1  0.4458360000000  0.4605050000000  0.4826950000000 1.0
C      1  0.4108400000000  0.5091270000000  0.5215530000000 1.0
C      1  0.5455650000000  0.5738890000000  0.4176270000000 1.0
C      1  0.4337660000000  0.5363430000000  0.4885710000000 1.0
C      1  0.5052080000000  0.5268140000000  0.4837780000000 1.0
C      1  0.5060910000000  0.4042320000000  0.5380610000000 1.0
C      1  0.4890970000000  0.4963330000000  0.6216080000000 1.0
C      1  0.5535240000000  0.4664740000000  0.4193900000000 1.0
C      1  0.4789890000000  0.5175080000000  0.5521750000000 1.0
C      1  0.4564510000000  0.5582320000000  0.5812520000000 1.0
C      1  0.5465050000000  0.4816080000000  0.5143700000000 1.0
C      1  0.5563070000000  0.4353930000000  0.4579560000000 1.0
C      1  0.5411080000000  0.5842430000000  0.5353850000000 1.0
C      1  0.4608550000000  0.4634260000000  0.4234650000000 1.0
C      1  0.4883450000000  0.5706210000000  0.4902920000000 1.0
C      1  0.5197350000000  0.5712040000000  0.4309600000000 1.0
C      1  0.4019810000000  0.5314380000000  0.5457690000000 1.0
C      1  0.4778160000000  0.4755330000000  0.6044360000000 1.0
C      1  0.5881760000000  0.5194270000000  0.4743380000000 1.0
C      1  0.4523400000000  0.4975880000000  0.3974750000000 1.0
C      1  0.4037880000000  0.4441940000000  0.5234790000000 1.0
C      1  0.5902520000000  0.5120890000000  0.4271220000000 1.0
C      1  0.5458670000000  0.5250880000000  0.5935590000000 1.0
END
