TITL C-2778424-3986-385 -0.00163462182543423 125000 -446.164542160231 0 0 77 (C1) n - 1
REM
REM in /home/nfs/bkarasulu/CARBON/AIRSS/Generating-Clusters/REBO/Only-C1/SD-CG/HFTN-CG
REM
REM
REM
REM
REM
REM ./C.cell (11c1c37f851c82e70ff6c80c92926a4b)
REM
REM compiler GCC version 9.2.1 20190827 (Red Hat 9.2.1-1)
REM options -cpp -mtune=generic -march=x86-64 -g -O0 -fpre-include=/usr/include/finclude/math-vector-fortran.h
REM seed 405244350 422835266 -1927024704 -876115328 1750734564 1470304438 1314921521 -1521176064 1611495686 -1159567132 287899081 -1292925349 -1564016545 -666878777 1857175180 -37920377 -1666595993 -875855112 -1121615479 -971454659 194959776 -1451557704 -87119084 722088485 -483666206 -1019298883 -2026817216 1060718783 -419438598 2057994446 -1456025716 -871642478 1936061048
REM
CELL 1.54180   50.00000   50.00000   50.00000   90.00000   90.00000   90.00000
LATT -1
SFAC C  
C      1  0.5302970000000  0.5514180000000  0.4548750000000 1.0
C      1  0.4563530000000  0.4818620000000  0.5482390000000 1.0
C      1  0.5240540000000  0.5146720000000  0.5103510000000 1.0
C      1  0.5206300000000  0.4443990000000  0.4432830000000 1.0
C      1  0.5471910000000  0.4497360000000  0.5602290000000 1.0
C      1  0.5038860000000  0.5368770000000  0.5163160000000 1.0
C      1  0.5493960000000  0.5556090000000  0.5038890000000 1.0
C      1  0.5195570000000  0.4802640000000  0.5640170000000 1.0
C      1  0.5035560000000  0.4554680000000  0.4935400000000 1.0
C      1  0.5263860000000  0.4589720000000  0.5380600000000 1.0
C      1  0.5007530000000  0.5017240000000  0.4293400000000 1.0
C      1  0.5568400000000  0.5092800000000  0.4578140000000 1.0
C      1  0.5602030000000  0.4703790000000  0.4934200000000 1.0
C      1  0.5002620000000  0.5770870000000  0.4967020000000 1.0
C      1  0.4617390000000  0.4595060000000  0.4363270000000 1.0
C      1  0.5336520000000  0.4637030000000  0.5070990000000 1.0
C      1  0.5442490000000  0.5637150000000  0.4770940000000 1.0
C      1  0.4844030000000  0.5205830000000  0.4725140000000 1.0
C      1  0.4847830000000  0.4814700000000  0.5168920000000 1.0
C      1  0.4791960000000  0.4697360000000  0.4636510000000 1.0
C      1  0.5445590000000  0.5640960000000  0.5296440000000 1.0
C      1  0.5544770000000  0.5167280000000  0.5562040000000 1.0
C      1  0.5557500000000  0.4801660000000  0.4609390000000 1.0
C      1  0.4851650000000  0.4180470000000  0.5167250000000 1.0
C      1  0.4908860000000  0.4439790000000  0.4447820000000 1.0
C      1  0.5131110000000  0.4164060000000  0.5123720000000 1.0
C      1  0.5011440000000  0.5532490000000  0.4570480000000 1.0
C      1  0.4349100000000  0.4794730000000  0.5218220000000 1.0
C      1  0.4689660000000  0.4966330000000  0.5742610000000 1.0
C      1  0.4564090000000  0.4505760000000  0.5373840000000 1.0
C      1  0.5066380000000  0.5606310000000  0.5405310000000 1.0
C      1  0.5427100000000  0.4651170000000  0.4405070000000 1.0
C      1  0.5783780000000  0.4827310000000  0.5198660000000 1.0
C      1  0.4732800000000  0.4291890000000  0.5402260000000 1.0
C      1  0.4553190000000  0.5253870000000  0.4626770000000 1.0
C      1  0.4454920000000  0.4383500000000  0.4775780000000 1.0
C      1  0.4723480000000  0.4630820000000  0.4938300000000 1.0
C      1  0.5248820000000  0.5145110000000  0.4225770000000 1.0
C      1  0.4767020000000  0.5098220000000  0.4166650000000 1.0
C      1  0.4393830000000  0.5044540000000  0.5042150000000 1.0
C      1  0.5325780000000  0.5415900000000  0.5519320000000 1.0
C      1  0.4798800000000  0.5285600000000  0.5353310000000 1.0
C      1  0.4964220000000  0.5499290000000  0.5686410000000 1.0
C      1  0.5407020000000  0.5270160000000  0.4425180000000 1.0
C      1  0.5707720000000  0.5169290000000  0.4813350000000 1.0
C      1  0.5344980000000  0.4425460000000  0.4723070000000 1.0
C      1  0.5663380000000  0.4642370000000  0.5676250000000 1.0
C      1  0.4541570000000  0.5252280000000  0.5768590000000 1.0
C      1  0.4445860000000  0.4526350000000  0.5066090000000 1.0
C      1  0.5854910000000  0.4931660000000  0.4897100000000 1.0
C      1  0.5733080000000  0.4884780000000  0.5526150000000 1.0
C      1  0.4974350000000  0.4954660000000  0.4592330000000 1.0
C      1  0.4765610000000  0.5533930000000  0.4437120000000 1.0
C      1  0.4462930000000  0.5571340000000  0.4579470000000 1.0
C      1  0.5146600000000  0.4899250000000  0.5108800000000 1.0
C      1  0.4492730000000  0.5856900000000  0.5073570000000 1.0
C      1  0.4727630000000  0.4244170000000  0.4625990000000 1.0
C      1  0.4961890000000  0.5464380000000  0.4879500000000 1.0
C      1  0.5530140000000  0.5258910000000  0.5046120000000 1.0
C      1  0.4592630000000  0.5409800000000  0.5573820000000 1.0
C      1  0.5687400000000  0.5140440000000  0.5272540000000 1.0
C      1  0.4275110000000  0.4838200000000  0.4627790000000 1.0
C      1  0.5181760000000  0.4725300000000  0.4713260000000 1.0
C      1  0.4612470000000  0.5294140000000  0.4298510000000 1.0
C      1  0.4888620000000  0.4725340000000  0.5695920000000 1.0
C      1  0.5228170000000  0.5105260000000  0.5630330000000 1.0
C      1  0.4249980000000  0.5617140000000  0.4403490000000 1.0
C      1  0.4944540000000  0.5824410000000  0.5231730000000 1.0
C      1  0.4365040000000  0.5067210000000  0.4767220000000 1.0
C      1  0.4655070000000  0.5045300000000  0.5242310000000 1.0
C      1  0.4451760000000  0.5735150000000  0.4839020000000 1.0
C      1  0.4384510000000  0.4587830000000  0.4556060000000 1.0
C      1  0.4678480000000  0.5914080000000  0.5267630000000 1.0
C      1  0.4922640000000  0.5201170000000  0.5660450000000 1.0
C      1  0.4942060000000  0.4631990000000  0.5403400000000 1.0
C      1  0.5315000000000  0.4257660000000  0.4946070000000 1.0
C      1  0.4696660000000  0.4202050000000  0.4937700000000 1.0
END
