TITL C-2778434-4341-754 0.00205648130476445 125000 -471.324796716106 0 0 82 (C1) n - 1
REM
REM in /home/nfs/bkarasulu/CARBON/AIRSS/Generating-Clusters/REBO/Only-C1/SD-CG/HFTN-CG
REM
REM
REM
REM
REM
REM ./C.cell (11c1c37f851c82e70ff6c80c92926a4b)
REM
REM compiler GCC version 9.2.1 20190827 (Red Hat 9.2.1-1)
REM options -cpp -mtune=generic -march=x86-64 -g -O0 -fpre-include=/usr/include/finclude/math-vector-fortran.h
REM seed -2097207431 -1883818119 2010243526 556703741 664712273 1818364603 1349267328 800068185 1544591983 1414188610 -884195120 1649420763 -2028655575 -1218235763 -62465985 526584199 572523534 -515588268 -1541138355 766104470 1679941827 1271296225 1206475222 629165327 -1767778337 -982698553 -671824152 305409017 847353436 1712920986 1505210476 219380805 1220475786
REM
CELL 1.54180   50.00000   50.00000   50.00000   90.00000   90.00000   90.00000
LATT -1
SFAC C  
C      1  0.4896110000000  0.5259470000000  0.4528080000000 1.0
C      1  0.4802440000000  0.5475520000000  0.5718570000000 1.0
C      1  0.5666870000000  0.4843970000000  0.4322450000000 1.0
C      1  0.5006660000000  0.4699440000000  0.5686280000000 1.0
C      1  0.5304480000000  0.4397130000000  0.5377590000000 1.0
C      1  0.4273160000000  0.5133280000000  0.4799210000000 1.0
C      1  0.4925610000000  0.4948130000000  0.4435730000000 1.0
C      1  0.5399030000000  0.5024670000000  0.5449880000000 1.0
C      1  0.4524900000000  0.5557970000000  0.4581910000000 1.0
C      1  0.5294750000000  0.4556700000000  0.4422030000000 1.0
C      1  0.5020280000000  0.5529820000000  0.5566780000000 1.0
C      1  0.5225160000000  0.5572580000000  0.4627240000000 1.0
C      1  0.4585880000000  0.4936670000000  0.4645850000000 1.0
C      1  0.4893610000000  0.5324520000000  0.4851770000000 1.0
C      1  0.4537400000000  0.4601140000000  0.4434150000000 1.0
C      1  0.4664360000000  0.4846360000000  0.5422270000000 1.0
C      1  0.5864410000000  0.5072850000000  0.5247160000000 1.0
C      1  0.4619120000000  0.5382980000000  0.4999550000000 1.0
C      1  0.5843270000000  0.4964620000000  0.4946220000000 1.0
C      1  0.4825200000000  0.4413320000000  0.5720890000000 1.0
C      1  0.4705560000000  0.4552000000000  0.5367240000000 1.0
C      1  0.4887550000000  0.4228530000000  0.4698390000000 1.0
C      1  0.5466290000000  0.4532930000000  0.5558180000000 1.0
C      1  0.5079770000000  0.5149820000000  0.5439370000000 1.0
C      1  0.5669460000000  0.5190750000000  0.5386250000000 1.0
C      1  0.4149360000000  0.4851860000000  0.5359570000000 1.0
C      1  0.5205350000000  0.5202640000000  0.4774970000000 1.0
C      1  0.4730900000000  0.4726250000000  0.4338560000000 1.0
C      1  0.5272490000000  0.5356820000000  0.5630870000000 1.0
C      1  0.5583580000000  0.4782580000000  0.4845580000000 1.0
C      1  0.4235590000000  0.4404710000000  0.4908550000000 1.0
C      1  0.4523220000000  0.5598690000000  0.5221310000000 1.0
C      1  0.5572420000000  0.4496910000000  0.4937460000000 1.0
C      1  0.4646590000000  0.4645790000000  0.4816050000000 1.0
C      1  0.5021390000000  0.5529130000000  0.4362830000000 1.0
C      1  0.4576880000000  0.4314370000000  0.5662000000000 1.0
C      1  0.4190800000000  0.4888960000000  0.4709740000000 1.0
C      1  0.5040700000000  0.5695220000000  0.4871860000000 1.0
C      1  0.4451480000000  0.5048350000000  0.4451660000000 1.0
C      1  0.4707050000000  0.5673050000000  0.4798700000000 1.0
C      1  0.5037140000000  0.5587470000000  0.5256740000000 1.0
C      1  0.5575400000000  0.5394200000000  0.4548940000000 1.0
C      1  0.4373870000000  0.5502830000000  0.5423810000000 1.0
C      1  0.4825360000000  0.4976240000000  0.5693370000000 1.0
C      1  0.4316660000000  0.5160370000000  0.4256830000000 1.0
C      1  0.4429280000000  0.5247340000000  0.5534330000000 1.0
C      1  0.5019170000000  0.4455940000000  0.5444920000000 1.0
C      1  0.4902310000000  0.4995990000000  0.5275860000000 1.0
C      1  0.6078670000000  0.4933960000000  0.4806240000000 1.0
C      1  0.5369920000000  0.5622960000000  0.4935180000000 1.0
C      1  0.4339900000000  0.4613580000000  0.4699200000000 1.0
C      1  0.4905150000000  0.4940220000000  0.4765340000000 1.0
C      1  0.5333740000000  0.4791320000000  0.5668500000000 1.0
C      1  0.4688670000000  0.4908010000000  0.5028460000000 1.0
C      1  0.4901110000000  0.4504540000000  0.4729440000000 1.0
C      1  0.4312090000000  0.5379370000000  0.4655590000000 1.0
C      1  0.4303490000000  0.4335490000000  0.5161090000000 1.0
C      1  0.5432830000000  0.5636620000000  0.5243150000000 1.0
C      1  0.5296430000000  0.4875010000000  0.4799530000000 1.0
C      1  0.5248760000000  0.5832060000000  0.5365060000000 1.0
C      1  0.5351450000000  0.5109130000000  0.5135240000000 1.0
C      1  0.5150220000000  0.5063530000000  0.5758290000000 1.0
C      1  0.4409360000000  0.5009780000000  0.5338050000000 1.0
C      1  0.4652860000000  0.5235710000000  0.5704620000000 1.0
C      1  0.5766930000000  0.4831870000000  0.4577410000000 1.0
C      1  0.5582340000000  0.5418230000000  0.4822170000000 1.0
C      1  0.5138070000000  0.4639310000000  0.4650280000000 1.0
C      1  0.5595480000000  0.5174510000000  0.4970370000000 1.0
C      1  0.5377160000000  0.4055400000000  0.4950640000000 1.0
C      1  0.5414530000000  0.4310020000000  0.5132840000000 1.0
C      1  0.5085790000000  0.4933260000000  0.5040500000000 1.0
C      1  0.5210660000000  0.5016520000000  0.4321200000000 1.0
C      1  0.4698210000000  0.5471050000000  0.4370850000000 1.0
C      1  0.5500990000000  0.5426870000000  0.5427630000000 1.0
C      1  0.4471410000000  0.4360510000000  0.5382070000000 1.0
C      1  0.5506960000000  0.4257350000000  0.4748390000000 1.0
C      1  0.5445560000000  0.4320710000000  0.4477400000000 1.0
C      1  0.5388330000000  0.4796000000000  0.4285330000000 1.0
C      1  0.4798230000000  0.5721200000000  0.5113260000000 1.0
C      1  0.5124790000000  0.5344850000000  0.5080180000000 1.0
C      1  0.4460890000000  0.5122760000000  0.5036170000000 1.0
C      1  0.5290670000000  0.5277400000000  0.4462730000000 1.0
END
