TITL C-2778426-5645-1338 0.480423729911754 125000 -624.358751760654 0 0 109 (C1) n - 1
REM
REM in /home/nfs/bkarasulu/CARBON/AIRSS/Generating-Clusters/REBO/Only-C1/SD-CG/HFTN-CG
REM
REM
REM
REM
REM
REM ./C.cell (11c1c37f851c82e70ff6c80c92926a4b)
REM
REM compiler GCC version 9.2.1 20190827 (Red Hat 9.2.1-1)
REM options -cpp -mtune=generic -march=x86-64 -g -O0 -fpre-include=/usr/include/finclude/math-vector-fortran.h
REM seed 1065119316 -1890099487 -1100471366 817688007 1918873584 -1578089798 937121638 1021817698 796561489 -1977154579 -1981992039 -558335846 1811119027 505242297 1979573268 -434638207 -8914365 882611349 1085523790 -2085763617 -1824069632 -2099902737 -1428763102 289911898 298542981 -419332862 1693599821 -1516260721 520595388 -874655233 -1240721539 -1071176849 -500093739
REM
CELL 1.54180   50.00000   50.00000   50.00000   90.00000   90.00000   90.00000
LATT -1
SFAC C  
C      1  0.5758800000000  0.5303210000000  0.5265010000000 1.0
C      1  0.5128480000000  0.5230470000000  0.4600820000000 1.0
C      1  0.5084760000000  0.5869850000000  0.4661830000000 1.0
C      1  0.4721410000000  0.4150810000000  0.4975910000000 1.0
C      1  0.4633100000000  0.5225380000000  0.4988400000000 1.0
C      1  0.5254580000000  0.5034470000000  0.5734550000000 1.0
C      1  0.5752900000000  0.4967910000000  0.5338800000000 1.0
C      1  0.5152890000000  0.5729580000000  0.5148900000000 1.0
C      1  0.4251590000000  0.4689370000000  0.5119870000000 1.0
C      1  0.4140150000000  0.5108390000000  0.5314480000000 1.0
C      1  0.5636080000000  0.5542520000000  0.4796110000000 1.0
C      1  0.4414470000000  0.5451350000000  0.5027940000000 1.0
C      1  0.5368130000000  0.4444440000000  0.5678280000000 1.0
C      1  0.4577210000000  0.4485160000000  0.4548860000000 1.0
C      1  0.4836760000000  0.5993640000000  0.4854080000000 1.0
C      1  0.4479050000000  0.5694210000000  0.5475030000000 1.0
C      1  0.5506330000000  0.4231080000000  0.5139940000000 1.0
C      1  0.5201070000000  0.4818400000000  0.4711150000000 1.0
C      1  0.4955000000000  0.4372290000000  0.4482780000000 1.0
C      1  0.5703860000000  0.5314320000000  0.4669740000000 1.0
C      1  0.5922230000000  0.5085990000000  0.5067420000000 1.0
C      1  0.4447540000000  0.4939570000000  0.4998190000000 1.0
C      1  0.5466930000000  0.5784680000000  0.5158110000000 1.0
C      1  0.5232870000000  0.5406050000000  0.4343360000000 1.0
C      1  0.5723890000000  0.4383010000000  0.5073860000000 1.0
C      1  0.4826530000000  0.4771740000000  0.5591460000000 1.0
C      1  0.5008940000000  0.4929840000000  0.4971200000000 1.0
C      1  0.5748720000000  0.4804400000000  0.4976930000000 1.0
C      1  0.5242860000000  0.4059420000000  0.5209980000000 1.0
C      1  0.4651700000000  0.5619570000000  0.5122970000000 1.0
C      1  0.5766870000000  0.4634120000000  0.5273830000000 1.0
C      1  0.5524070000000  0.4745950000000  0.5707850000000 1.0
C      1  0.4927510000000  0.5641470000000  0.4449210000000 1.0
C      1  0.5130800000000  0.5272550000000  0.5655410000000 1.0
C      1  0.5475480000000  0.4945900000000  0.4447520000000 1.0
C      1  0.4347960000000  0.4382120000000  0.5217570000000 1.0
C      1  0.4757120000000  0.5089130000000  0.4573150000000 1.0
C      1  0.4335540000000  0.4946010000000  0.5500470000000 1.0
C      1  0.5275110000000  0.5387100000000  0.4869660000000 1.0
C      1  0.5013890000000  0.4118720000000  0.5027490000000 1.0
C      1  0.5548930000000  0.5082050000000  0.4680130000000 1.0
C      1  0.4734190000000  0.4501020000000  0.4278540000000 1.0
C      1  0.5466670000000  0.4756090000000  0.5160530000000 1.0
C      1  0.5356870000000  0.5679260000000  0.4736310000000 1.0
C      1  0.4706640000000  0.6074240000000  0.5081610000000 1.0
C      1  0.4597690000000  0.4806810000000  0.4655140000000 1.0
C      1  0.4770910000000  0.4628780000000  0.4863640000000 1.0
C      1  0.4773900000000  0.4578310000000  0.5166570000000 1.0
C      1  0.4769820000000  0.4690480000000  0.4010260000000 1.0
C      1  0.5467200000000  0.5550400000000  0.5597970000000 1.0
C      1  0.4057960000000  0.5279030000000  0.4679320000000 1.0
C      1  0.5241720000000  0.4545080000000  0.4266950000000 1.0
C      1  0.4207320000000  0.5364130000000  0.5242200000000 1.0
C      1  0.5131850000000  0.5420260000000  0.5423650000000 1.0
C      1  0.5413070000000  0.4648550000000  0.4505510000000 1.0
C      1  0.4729630000000  0.4884350000000  0.5165930000000 1.0
C      1  0.5028380000000  0.4436040000000  0.5662430000000 1.0
C      1  0.6093250000000  0.4935610000000  0.4828900000000 1.0
C      1  0.5336790000000  0.5757440000000  0.5438680000000 1.0
C      1  0.4842270000000  0.5525040000000  0.5764620000000 1.0
C      1  0.4587950000000  0.4231730000000  0.5219420000000 1.0
C      1  0.5321390000000  0.4326180000000  0.5401030000000 1.0
C      1  0.4040400000000  0.5026960000000  0.4843700000000 1.0
C      1  0.5326480000000  0.5090370000000  0.4260870000000 1.0
C      1  0.5037960000000  0.5211660000000  0.4145100000000 1.0
C      1  0.5257820000000  0.5697710000000  0.4422740000000 1.0
C      1  0.4331070000000  0.4987870000000  0.4680630000000 1.0
C      1  0.4831530000000  0.5343780000000  0.4358240000000 1.0
C      1  0.5621050000000  0.5306860000000  0.5553770000000 1.0
C      1  0.4867220000000  0.5343230000000  0.4774920000000 1.0
C      1  0.4312830000000  0.5489410000000  0.4747510000000 1.0
C      1  0.4596730000000  0.5101570000000  0.5391680000000 1.0
C      1  0.4534170000000  0.5206400000000  0.5795750000000 1.0
C      1  0.5775790000000  0.4447400000000  0.4798820000000 1.0
C      1  0.4638070000000  0.4954070000000  0.5760620000000 1.0
C      1  0.5629110000000  0.5530150000000  0.5095970000000 1.0
C      1  0.5024290000000  0.4932210000000  0.4469230000000 1.0
C      1  0.4623760000000  0.4280970000000  0.4732150000000 1.0
C      1  0.4807060000000  0.4372600000000  0.5410930000000 1.0
C      1  0.4272970000000  0.4616480000000  0.5442030000000 1.0
C      1  0.4061500000000  0.4935220000000  0.5102330000000 1.0
C      1  0.4640340000000  0.5403530000000  0.5552520000000 1.0
C      1  0.4937880000000  0.5622250000000  0.4957170000000 1.0
C      1  0.5318580000000  0.5058970000000  0.4906140000000 1.0
C      1  0.4725450000000  0.5709960000000  0.4703700000000 1.0
C      1  0.5566760000000  0.4404260000000  0.4612710000000 1.0
C      1  0.5185570000000  0.4719010000000  0.5767620000000 1.0
C      1  0.5952180000000  0.4686940000000  0.4745380000000 1.0
C      1  0.4685720000000  0.4763530000000  0.3776450000000 1.0
C      1  0.5031420000000  0.4770790000000  0.5402340000000 1.0
C      1  0.5354230000000  0.5353700000000  0.5200090000000 1.0
C      1  0.4352810000000  0.5300880000000  0.5979960000000 1.0
C      1  0.5221640000000  0.4570470000000  0.5216180000000 1.0
C      1  0.4573280000000  0.5886770000000  0.5259500000000 1.0
C      1  0.4938460000000  0.5215080000000  0.5143740000000 1.0
C      1  0.4452120000000  0.4686880000000  0.5698430000000 1.0
C      1  0.4979900000000  0.4483800000000  0.4741740000000 1.0
C      1  0.4573910000000  0.5477140000000  0.4528290000000 1.0
C      1  0.5428810000000  0.4172230000000  0.4513190000000 1.0
C      1  0.4600620000000  0.4837460000000  0.3539860000000 1.0
C      1  0.4993260000000  0.4721000000000  0.4257070000000 1.0
C      1  0.5432900000000  0.5057630000000  0.5287280000000 1.0
C      1  0.5551340000000  0.5056090000000  0.5671840000000 1.0
C      1  0.4695630000000  0.4477780000000  0.5706140000000 1.0
C      1  0.4337220000000  0.5254030000000  0.4493210000000 1.0
C      1  0.5126180000000  0.5032640000000  0.5335640000000 1.0
C      1  0.4846810000000  0.5462300000000  0.5309870000000 1.0
C      1  0.5201060000000  0.4249960000000  0.4351240000000 1.0
C      1  0.5138470000000  0.4384940000000  0.4958310000000 1.0
END
