TITL C-2778422-5617-1426 -0.00130899737156188 125000 -1057.44460501966 0 0 184 (C1) n - 1
REM
REM in /home/nfs/bkarasulu/CARBON/AIRSS/Generating-Clusters/REBO/Only-C1/SD-CG/HFTN-CG
REM
REM
REM
REM
REM
REM ./C.cell (11c1c37f851c82e70ff6c80c92926a4b)
REM
REM compiler GCC version 9.2.1 20190827 (Red Hat 9.2.1-1)
REM options -cpp -mtune=generic -march=x86-64 -g -O0 -fpre-include=/usr/include/finclude/math-vector-fortran.h
REM seed -365455961 1057980802 279571769 -1464740145 797523302 -521078017 558024873 -1753084750 1434716179 288476142 895562201 66288498 962693355 1639588938 -798600379 1338942726 1351513125 2071464596 -172575867 1401016467 -965925738 1491115067 1283815188 -1620321955 -1012588246 -1257335769 -1479258524 1983699676 -1466339675 -947856367 687904259 -1506840169 350793742
REM
CELL 1.54180   50.00000   50.00000   50.00000   90.00000   90.00000   90.00000
LATT -1
SFAC C  
C      1  0.5549790000000  0.4883060000000  0.5335650000000 1.0
C      1  0.5174700000000  0.5818330000000  0.5874160000000 1.0
C      1  0.4372020000000  0.5038710000000  0.4281710000000 1.0
C      1  0.4570280000000  0.5159970000000  0.5485890000000 1.0
C      1  0.4854880000000  0.4940550000000  0.3832960000000 1.0
C      1  0.5670130000000  0.4827620000000  0.4668920000000 1.0
C      1  0.4880960000000  0.4735660000000  0.4420450000000 1.0
C      1  0.4081500000000  0.4835630000000  0.4570630000000 1.0
C      1  0.5398150000000  0.5957460000000  0.5313430000000 1.0
C      1  0.4943450000000  0.4972960000000  0.4910750000000 1.0
C      1  0.5456530000000  0.4423010000000  0.5120260000000 1.0
C      1  0.4960800000000  0.5275990000000  0.5210160000000 1.0
C      1  0.3975900000000  0.4903280000000  0.4887980000000 1.0
C      1  0.6074840000000  0.5114180000000  0.5243910000000 1.0
C      1  0.4422900000000  0.4638050000000  0.4099710000000 1.0
C      1  0.4297820000000  0.5649190000000  0.5571130000000 1.0
C      1  0.4412220000000  0.4699600000000  0.4999170000000 1.0
C      1  0.3951740000000  0.5353820000000  0.5193000000000 1.0
C      1  0.5097540000000  0.4544720000000  0.4606160000000 1.0
C      1  0.5462460000000  0.5117050000000  0.5137960000000 1.0
C      1  0.4472570000000  0.5422070000000  0.5295570000000 1.0
C      1  0.5416650000000  0.4999180000000  0.3927570000000 1.0
C      1  0.3921790000000  0.5228760000000  0.4940320000000 1.0
C      1  0.4707850000000  0.6033890000000  0.4879860000000 1.0
C      1  0.4665290000000  0.4817810000000  0.4826460000000 1.0
C      1  0.5267600000000  0.4822320000000  0.4377940000000 1.0
C      1  0.4836120000000  0.5059130000000  0.5397730000000 1.0
C      1  0.5210580000000  0.4756810000000  0.6093440000000 1.0
C      1  0.4495350000000  0.5164930000000  0.5093140000000 1.0
C      1  0.5630480000000  0.5195680000000  0.4378610000000 1.0
C      1  0.4218140000000  0.5117310000000  0.4817880000000 1.0
C      1  0.4683870000000  0.4760030000000  0.3936830000000 1.0
C      1  0.4389040000000  0.4505380000000  0.5705670000000 1.0
C      1  0.4101490000000  0.4759980000000  0.5126580000000 1.0
C      1  0.5260240000000  0.5805550000000  0.5572650000000 1.0
C      1  0.4652860000000  0.5272520000000  0.4586800000000 1.0
C      1  0.4729320000000  0.4544630000000  0.4192520000000 1.0
C      1  0.5147170000000  0.5076710000000  0.5502250000000 1.0
C      1  0.4420310000000  0.5044350000000  0.5837160000000 1.0
C      1  0.4543650000000  0.4614930000000  0.5305210000000 1.0
C      1  0.4603080000000  0.4455670000000  0.6039030000000 1.0
C      1  0.4783880000000  0.4297680000000  0.5067340000000 1.0
C      1  0.4800400000000  0.5906540000000  0.5764330000000 1.0
C      1  0.5655700000000  0.5602350000000  0.5607610000000 1.0
C      1  0.4936910000000  0.5444140000000  0.4615780000000 1.0
C      1  0.4395110000000  0.5403300000000  0.4861850000000 1.0
C      1  0.6010940000000  0.4862140000000  0.5345560000000 1.0
C      1  0.5616250000000  0.4555620000000  0.4874470000000 1.0
C      1  0.4380240000000  0.4320470000000  0.5353040000000 1.0
C      1  0.5210770000000  0.4787550000000  0.4878220000000 1.0
C      1  0.4829200000000  0.4043370000000  0.5187430000000 1.0
C      1  0.5006960000000  0.6028340000000  0.4889300000000 1.0
C      1  0.5482970000000  0.4057910000000  0.4723930000000 1.0
C      1  0.4883140000000  0.5864050000000  0.5231450000000 1.0
C      1  0.4549490000000  0.4334160000000  0.4923910000000 1.0
C      1  0.5571140000000  0.5304670000000  0.4677880000000 1.0
C      1  0.5519340000000  0.5223610000000  0.5941270000000 1.0
C      1  0.5905740000000  0.5078380000000  0.4364430000000 1.0
C      1  0.4696290000000  0.5135400000000  0.6016530000000 1.0
C      1  0.4242930000000  0.4160880000000  0.5109970000000 1.0
C      1  0.4657180000000  0.3893610000000  0.4718790000000 1.0
C      1  0.5453370000000  0.4760420000000  0.4106120000000 1.0
C      1  0.4170290000000  0.5268480000000  0.5362270000000 1.0
C      1  0.4244350000000  0.4814560000000  0.5657380000000 1.0
C      1  0.4098330000000  0.5720150000000  0.5129320000000 1.0
C      1  0.5686590000000  0.5595080000000  0.4375600000000 1.0
C      1  0.5480390000000  0.5259540000000  0.4085480000000 1.0
C      1  0.5022110000000  0.5030030000000  0.4322330000000 1.0
C      1  0.5121620000000  0.5824660000000  0.4696370000000 1.0
C      1  0.5721710000000  0.5549520000000  0.5142760000000 1.0
C      1  0.4423380000000  0.4934210000000  0.5320830000000 1.0
C      1  0.5019180000000  0.4592380000000  0.5892400000000 1.0
C      1  0.4154520000000  0.4550500000000  0.5462580000000 1.0
C      1  0.5240940000000  0.4218620000000  0.4996030000000 1.0
C      1  0.4639500000000  0.5778100000000  0.5946200000000 1.0
C      1  0.4084480000000  0.4304810000000  0.4848740000000 1.0
C      1  0.4276500000000  0.4337210000000  0.4569390000000 1.0
C      1  0.5720750000000  0.4819140000000  0.5074600000000 1.0
C      1  0.4803060000000  0.4349320000000  0.5824780000000 1.0
C      1  0.5587720000000  0.4280680000000  0.5624930000000 1.0
C      1  0.4769700000000  0.4570180000000  0.5560520000000 1.0
C      1  0.5512190000000  0.5378330000000  0.5290450000000 1.0
C      1  0.5425120000000  0.4520010000000  0.4591870000000 1.0
C      1  0.4858150000000  0.5265420000000  0.4179080000000 1.0
C      1  0.4091600000000  0.5134450000000  0.4442640000000 1.0
C      1  0.5103650000000  0.5371190000000  0.4911870000000 1.0
C      1  0.4336520000000  0.5358740000000  0.4524500000000 1.0
C      1  0.5845720000000  0.5388420000000  0.5590020000000 1.0
C      1  0.4817610000000  0.4800350000000  0.5241960000000 1.0
C      1  0.4232020000000  0.5323720000000  0.4141440000000 1.0
C      1  0.4949290000000  0.5891020000000  0.5543680000000 1.0
C      1  0.6077090000000  0.5306700000000  0.4385820000000 1.0
C      1  0.5078540000000  0.4190740000000  0.5715890000000 1.0
C      1  0.4890360000000  0.3862260000000  0.4964230000000 1.0
C      1  0.6001140000000  0.5370670000000  0.5363560000000 1.0
C      1  0.5062490000000  0.5709110000000  0.4103690000000 1.0
C      1  0.5067780000000  0.4643660000000  0.5151390000000 1.0
C      1  0.4627040000000  0.4516040000000  0.4718100000000 1.0
C      1  0.5257150000000  0.4257780000000  0.4290710000000 1.0
C      1  0.4114000000000  0.4940810000000  0.5386170000000 1.0
C      1  0.4366350000000  0.5657580000000  0.5860720000000 1.0
C      1  0.3959030000000  0.5370160000000  0.4648740000000 1.0
C      1  0.4744060000000  0.5475850000000  0.5097640000000 1.0
C      1  0.5943630000000  0.5547580000000  0.4466800000000 1.0
C      1  0.5239650000000  0.5452340000000  0.4515410000000 1.0
C      1  0.5402740000000  0.5737880000000  0.4521770000000 1.0
C      1  0.4470580000000  0.5012890000000  0.4667940000000 1.0
C      1  0.4593680000000  0.5880770000000  0.4608240000000 1.0
C      1  0.4573490000000  0.5453240000000  0.6030400000000 1.0
C      1  0.5847720000000  0.4353280000000  0.5130280000000 1.0
C      1  0.5911680000000  0.4433610000000  0.4747430000000 1.0
C      1  0.4424800000000  0.5585870000000  0.4210630000000 1.0
C      1  0.4843250000000  0.4366300000000  0.4567470000000 1.0
C      1  0.4266340000000  0.4616960000000  0.4385130000000 1.0
C      1  0.5631720000000  0.5761520000000  0.5365640000000 1.0
C      1  0.5109110000000  0.5633820000000  0.5130190000000 1.0
C      1  0.5433120000000  0.4727810000000  0.5837640000000 1.0
C      1  0.5644280000000  0.4225980000000  0.5353370000000 1.0
C      1  0.5398170000000  0.5537420000000  0.3981980000000 1.0
C      1  0.5086920000000  0.4897810000000  0.5740160000000 1.0
C      1  0.4210920000000  0.4600530000000  0.4777350000000 1.0
C      1  0.5105210000000  0.5528350000000  0.3858580000000 1.0
C      1  0.4561490000000  0.4227350000000  0.5605760000000 1.0
C      1  0.4506880000000  0.5691020000000  0.4866240000000 1.0
C      1  0.5889510000000  0.4821860000000  0.4485960000000 1.0
C      1  0.4054330000000  0.4442650000000  0.5159340000000 1.0
C      1  0.4308990000000  0.5782630000000  0.5314950000000 1.0
C      1  0.5682280000000  0.5824170000000  0.4702120000000 1.0
C      1  0.5381020000000  0.4912670000000  0.4646320000000 1.0
C      1  0.4612670000000  0.5745360000000  0.4360380000000 1.0
C      1  0.4754100000000  0.4846110000000  0.5747900000000 1.0
C      1  0.5341430000000  0.5784170000000  0.4195310000000 1.0
C      1  0.5061850000000  0.4485080000000  0.5426100000000 1.0
C      1  0.4965730000000  0.5261550000000  0.3880260000000 1.0
C      1  0.5248480000000  0.5048670000000  0.5984140000000 1.0
C      1  0.4572440000000  0.5867990000000  0.5147420000000 1.0
C      1  0.4879330000000  0.4854290000000  0.6072650000000 1.0
C      1  0.4719330000000  0.4242840000000  0.4285630000000 1.0
C      1  0.5277840000000  0.5578910000000  0.5342220000000 1.0
C      1  0.5226800000000  0.4526860000000  0.4211340000000 1.0
C      1  0.4562390000000  0.5277000000000  0.4171650000000 1.0
C      1  0.5394390000000  0.5267940000000  0.5564970000000 1.0
C      1  0.4741730000000  0.5205930000000  0.4885690000000 1.0
C      1  0.5416880000000  0.5510840000000  0.5792920000000 1.0
C      1  0.5155170000000  0.4157490000000  0.5385920000000 1.0
C      1  0.5316300000000  0.4419040000000  0.5645530000000 1.0
C      1  0.5161340000000  0.5029650000000  0.5169320000000 1.0
C      1  0.5032010000000  0.4432390000000  0.4920190000000 1.0
C      1  0.5301280000000  0.5217250000000  0.4357070000000 1.0
C      1  0.5023030000000  0.5711170000000  0.6036910000000 1.0
C      1  0.5813050000000  0.4586560000000  0.5383490000000 1.0
C      1  0.5987930000000  0.4633580000000  0.4996370000000 1.0
C      1  0.5475550000000  0.4150230000000  0.4450420000000 1.0
C      1  0.4547390000000  0.4801200000000  0.4438050000000 1.0
C      1  0.4926180000000  0.4039180000000  0.4611190000000 1.0
C      1  0.5496950000000  0.4952310000000  0.5649120000000 1.0
C      1  0.5416100000000  0.4042690000000  0.5222020000000 1.0
C      1  0.5649630000000  0.4116150000000  0.4976620000000 1.0
C      1  0.5202670000000  0.5357240000000  0.6002970000000 1.0
C      1  0.4334870000000  0.5319470000000  0.5655410000000 1.0
C      1  0.4512880000000  0.4130800000000  0.4515380000000 1.0
C      1  0.5174380000000  0.6027750000000  0.5145740000000 1.0
C      1  0.5981210000000  0.5660150000000  0.4764800000000 1.0
C      1  0.5171410000000  0.3967640000000  0.4808950000000 1.0
C      1  0.4170340000000  0.5634620000000  0.4603130000000 1.0
C      1  0.4403050000000  0.4065770000000  0.4836090000000 1.0
C      1  0.5765400000000  0.5127140000000  0.5748740000000 1.0
C      1  0.6131090000000  0.5131070000000  0.4956650000000 1.0
C      1  0.5165140000000  0.5011510000000  0.3796940000000 1.0
C      1  0.5587940000000  0.4583570000000  0.4363940000000 1.0
C      1  0.4507130000000  0.4727680000000  0.5938160000000 1.0
C      1  0.6026980000000  0.5448050000000  0.5028870000000 1.0
C      1  0.4845970000000  0.5667350000000  0.4833250000000 1.0
C      1  0.5996000000000  0.4554410000000  0.4507610000000 1.0
C      1  0.4022360000000  0.5614090000000  0.4885870000000 1.0
C      1  0.5342490000000  0.5175610000000  0.4844490000000 1.0
C      1  0.5015610000000  0.4113520000000  0.4310740000000 1.0
C      1  0.5470690000000  0.4582410000000  0.5392420000000 1.0
C      1  0.5871990000000  0.4829660000000  0.5621760000000 1.0
C      1  0.5687960000000  0.5525000000000  0.4833530000000 1.0
C      1  0.4835580000000  0.4086290000000  0.5502140000000 1.0
C      1  0.4875900000000  0.5581150000000  0.4309780000000 1.0
C      1  0.4898860000000  0.5409490000000  0.6055250000000 1.0
C      1  0.6151260000000  0.4878570000000  0.4856330000000 1.0
END
