TITL C-2778422-5617-499 -0.00293700355745658 125000 -879.950473610314 0 0 152 (C1) n - 1
REM
REM in /home/nfs/bkarasulu/CARBON/AIRSS/Generating-Clusters/REBO/Only-C1/SD-CG/HFTN-CG
REM
REM
REM
REM
REM
REM ./C.cell (11c1c37f851c82e70ff6c80c92926a4b)
REM
REM compiler GCC version 9.2.1 20190827 (Red Hat 9.2.1-1)
REM options -cpp -mtune=generic -march=x86-64 -g -O0 -fpre-include=/usr/include/finclude/math-vector-fortran.h
REM seed 972383886 1759938877 951126592 -635960895 -1244740938 53961613 446981984 -516510138 88160959 -683109066 301209152 -463082700 863542435 404051279 -157802201 -1201226256 1091468784 692244915 747822426 258680680 1558824870 -1120610411 -312037358 1782963827 805172328 978552802 1239896833 305639278 -175261782 249084660 1580961206 -855585861 1629021050
REM
CELL 1.54180   50.00000   50.00000   50.00000   90.00000   90.00000   90.00000
LATT -1
SFAC C  
C      1  0.5165590000000  0.5435610000000  0.5629480000000 1.0
C      1  0.5327160000000  0.5259880000000  0.5873420000000 1.0
C      1  0.4819990000000  0.5465390000000  0.5828510000000 1.0
C      1  0.5130140000000  0.4206540000000  0.4354640000000 1.0
C      1  0.4307110000000  0.4287490000000  0.4847950000000 1.0
C      1  0.5370730000000  0.3864200000000  0.5290870000000 1.0
C      1  0.5067380000000  0.4539780000000  0.5876070000000 1.0
C      1  0.4988340000000  0.4062950000000  0.4492030000000 1.0
C      1  0.4988360000000  0.4999100000000  0.5482210000000 1.0
C      1  0.5028340000000  0.4989810000000  0.4215970000000 1.0
C      1  0.4026110000000  0.4481730000000  0.4856980000000 1.0
C      1  0.5634880000000  0.5471240000000  0.4354940000000 1.0
C      1  0.4797970000000  0.4250920000000  0.5092490000000 1.0
C      1  0.5452830000000  0.5949170000000  0.5111890000000 1.0
C      1  0.5156240000000  0.4755090000000  0.5641020000000 1.0
C      1  0.5802110000000  0.5066290000000  0.5751710000000 1.0
C      1  0.5255300000000  0.5143750000000  0.4137620000000 1.0
C      1  0.4426870000000  0.5418920000000  0.5389150000000 1.0
C      1  0.4914320000000  0.4572270000000  0.4649450000000 1.0
C      1  0.4496710000000  0.5652100000000  0.4660220000000 1.0
C      1  0.4639680000000  0.4472460000000  0.4271120000000 1.0
C      1  0.5719570000000  0.5166440000000  0.4706490000000 1.0
C      1  0.5125110000000  0.5904120000000  0.4780290000000 1.0
C      1  0.5444420000000  0.5387150000000  0.5513890000000 1.0
C      1  0.5367230000000  0.5231340000000  0.4530370000000 1.0
C      1  0.4289290000000  0.5689500000000  0.5389510000000 1.0
C      1  0.5733450000000  0.4727170000000  0.5342480000000 1.0
C      1  0.5624900000000  0.4249710000000  0.4990200000000 1.0
C      1  0.5359380000000  0.4405020000000  0.4381880000000 1.0
C      1  0.4264100000000  0.5078870000000  0.4366660000000 1.0
C      1  0.4865940000000  0.4597400000000  0.5392740000000 1.0
C      1  0.4095580000000  0.4915680000000  0.4506070000000 1.0
C      1  0.4760550000000  0.4648000000000  0.5093490000000 1.0
C      1  0.4692790000000  0.5427600000000  0.5490840000000 1.0
C      1  0.5982060000000  0.4886620000000  0.4961540000000 1.0
C      1  0.4503410000000  0.4862900000000  0.5308540000000 1.0
C      1  0.4571650000000  0.5460230000000  0.4859840000000 1.0
C      1  0.4710020000000  0.4956260000000  0.5052400000000 1.0
C      1  0.5380280000000  0.4623660000000  0.4130150000000 1.0
C      1  0.4520820000000  0.5696110000000  0.4342690000000 1.0
C      1  0.5763300000000  0.5415100000000  0.4592160000000 1.0
C      1  0.5039910000000  0.5651920000000  0.4333710000000 1.0
C      1  0.5441300000000  0.5035950000000  0.4792160000000 1.0
C      1  0.4481270000000  0.4489150000000  0.5055920000000 1.0
C      1  0.5333660000000  0.4421780000000  0.4779730000000 1.0
C      1  0.4487970000000  0.4115660000000  0.5136280000000 1.0
C      1  0.5259960000000  0.4509320000000  0.5246990000000 1.0
C      1  0.5432560000000  0.4812040000000  0.5474150000000 1.0
C      1  0.4340530000000  0.5650100000000  0.5701970000000 1.0
C      1  0.4484760000000  0.4332200000000  0.4493360000000 1.0
C      1  0.4908500000000  0.3928520000000  0.5059010000000 1.0
C      1  0.4232480000000  0.5227120000000  0.5370000000000 1.0
C      1  0.4142800000000  0.4721520000000  0.5552670000000 1.0
C      1  0.5346570000000  0.5538020000000  0.4623700000000 1.0
C      1  0.4817040000000  0.5601770000000  0.5001170000000 1.0
C      1  0.5143940000000  0.4321610000000  0.5470480000000 1.0
C      1  0.4165210000000  0.4784970000000  0.4793260000000 1.0
C      1  0.5504280000000  0.4976090000000  0.4401910000000 1.0
C      1  0.4995130000000  0.6002010000000  0.5033450000000 1.0
C      1  0.4963600000000  0.5047350000000  0.4885320000000 1.0
C      1  0.5181860000000  0.5881040000000  0.5264960000000 1.0
C      1  0.4497670000000  0.4655530000000  0.4125550000000 1.0
C      1  0.4630370000000  0.4499660000000  0.4748630000000 1.0
C      1  0.4857640000000  0.4975770000000  0.5786310000000 1.0
C      1  0.5308350000000  0.4180160000000  0.5679740000000 1.0
C      1  0.5679920000000  0.5853300000000  0.5240550000000 1.0
C      1  0.5346160000000  0.5449150000000  0.4176110000000 1.0
C      1  0.4783390000000  0.5732760000000  0.5533950000000 1.0
C      1  0.5835280000000  0.4893930000000  0.4439230000000 1.0
C      1  0.5285720000000  0.5809250000000  0.5557960000000 1.0
C      1  0.4976050000000  0.5293200000000  0.5426880000000 1.0
C      1  0.4676960000000  0.5899430000000  0.4540730000000 1.0
C      1  0.4991520000000  0.5221090000000  0.5912180000000 1.0
C      1  0.5468970000000  0.4034680000000  0.4837770000000 1.0
C      1  0.4148790000000  0.5712890000000  0.5137680000000 1.0
C      1  0.5107100000000  0.4201200000000  0.4848070000000 1.0
C      1  0.5062570000000  0.5576270000000  0.4767240000000 1.0
C      1  0.4962070000000  0.5874260000000  0.4520390000000 1.0
C      1  0.4541220000000  0.4098790000000  0.4717150000000 1.0
C      1  0.5079960000000  0.4711600000000  0.4207850000000 1.0
C      1  0.5417320000000  0.5949150000000  0.4831720000000 1.0
C      1  0.5228980000000  0.3927150000000  0.5018190000000 1.0
C      1  0.4765170000000  0.5059890000000  0.4332940000000 1.0
C      1  0.5512370000000  0.4315460000000  0.5243650000000 1.0
C      1  0.4355410000000  0.5308150000000  0.4511240000000 1.0
C      1  0.4568740000000  0.4947930000000  0.5912100000000 1.0
C      1  0.5888740000000  0.5751800000000  0.5083550000000 1.0
C      1  0.4616880000000  0.5917720000000  0.5393320000000 1.0
C      1  0.5035190000000  0.5713110000000  0.5733980000000 1.0
C      1  0.4714190000000  0.3961960000000  0.5338290000000 1.0
C      1  0.4904740000000  0.4546250000000  0.4360230000000 1.0
C      1  0.5839000000000  0.5628500000000  0.4799860000000 1.0
C      1  0.5612780000000  0.4543300000000  0.5580930000000 1.0
C      1  0.4190530000000  0.5052720000000  0.5618780000000 1.0
C      1  0.4753410000000  0.5525210000000  0.4215440000000 1.0
C      1  0.4485160000000  0.5429060000000  0.5830500000000 1.0
C      1  0.6013250000000  0.5102740000000  0.5168220000000 1.0
C      1  0.5207830000000  0.4304170000000  0.5917870000000 1.0
C      1  0.4253110000000  0.4569200000000  0.5789810000000 1.0
C      1  0.4831060000000  0.5277430000000  0.3911730000000 1.0
C      1  0.5427390000000  0.5105780000000  0.5323010000000 1.0
C      1  0.5800550000000  0.5497690000000  0.5375220000000 1.0
C      1  0.5748580000000  0.4691440000000  0.5039440000000 1.0
C      1  0.5488310000000  0.4941390000000  0.4064090000000 1.0
C      1  0.4389090000000  0.5152540000000  0.5830710000000 1.0
C      1  0.4426080000000  0.4712320000000  0.4602180000000 1.0
C      1  0.5727510000000  0.5200040000000  0.5305770000000 1.0
C      1  0.4482490000000  0.4958770000000  0.4179310000000 1.0
C      1  0.5705170000000  0.4708050000000  0.4185960000000 1.0
C      1  0.4685130000000  0.5903730000000  0.5091510000000 1.0
C      1  0.3932800000000  0.4943890000000  0.5423350000000 1.0
C      1  0.4756400000000  0.6213970000000  0.4971590000000 1.0
C      1  0.5905830000000  0.4975690000000  0.5466570000000 1.0
C      1  0.4576500000000  0.4975830000000  0.4593020000000 1.0
C      1  0.4660610000000  0.5342770000000  0.4467100000000 1.0
C      1  0.4503130000000  0.4658180000000  0.5848570000000 1.0
C      1  0.4822870000000  0.4033730000000  0.4757840000000 1.0
C      1  0.5644390000000  0.5339170000000  0.5764640000000 1.0
C      1  0.5129590000000  0.4777510000000  0.4760900000000 1.0
C      1  0.3967680000000  0.4951970000000  0.5097260000000 1.0
C      1  0.5469810000000  0.4094910000000  0.5431250000000 1.0
C      1  0.5028120000000  0.4472500000000  0.5027040000000 1.0
C      1  0.5043890000000  0.5469960000000  0.4045220000000 1.0
C      1  0.4310990000000  0.4953810000000  0.5039760000000 1.0
C      1  0.4186990000000  0.5408110000000  0.4717900000000 1.0
C      1  0.5400700000000  0.4754640000000  0.5867830000000 1.0
C      1  0.5104850000000  0.4797490000000  0.5246970000000 1.0
C      1  0.5736630000000  0.4475400000000  0.4785830000000 1.0
C      1  0.5661440000000  0.4354940000000  0.5747510000000 1.0
C      1  0.5661620000000  0.4627820000000  0.4516280000000 1.0
C      1  0.5530340000000  0.4989190000000  0.5897720000000 1.0
C      1  0.4895380000000  0.5286140000000  0.4706770000000 1.0
C      1  0.4278910000000  0.4613030000000  0.5274140000000 1.0
C      1  0.4062070000000  0.5244110000000  0.5151700000000 1.0
C      1  0.4981210000000  0.5604620000000  0.5282120000000 1.0
C      1  0.5584340000000  0.5766280000000  0.4655420000000 1.0
C      1  0.5953990000000  0.4990010000000  0.4703960000000 1.0
C      1  0.5583670000000  0.5696140000000  0.5500000000000 1.0
C      1  0.5067130000000  0.5330490000000  0.4436200000000 1.0
C      1  0.4005780000000  0.4636400000000  0.5125920000000 1.0
C      1  0.4101540000000  0.5469560000000  0.4982580000000 1.0
C      1  0.4522790000000  0.5151350000000  0.4859820000000 1.0
C      1  0.5429290000000  0.5730890000000  0.4352200000000 1.0
C      1  0.4196270000000  0.4459590000000  0.4567370000000 1.0
C      1  0.5556660000000  0.4253850000000  0.4596940000000 1.0
C      1  0.5438980000000  0.4714480000000  0.4898700000000 1.0
C      1  0.5967310000000  0.5431040000000  0.5086340000000 1.0
C      1  0.4683190000000  0.4763180000000  0.5579670000000 1.0
C      1  0.4842130000000  0.4265050000000  0.5429780000000 1.0
C      1  0.5252850000000  0.5030680000000  0.5056340000000 1.0
C      1  0.5336500000000  0.4718900000000  0.4514440000000 1.0
C      1  0.4637650000000  0.5135490000000  0.3961730000000 1.0
END
