TITL C-2778428-5639-1048 0.00578500335075522 125000 -537.303393785277 0 0 97 (C1) n - 1
REM
REM in /home/nfs/bkarasulu/CARBON/AIRSS/Generating-Clusters/REBO/Only-C1/SD-CG/HFTN-CG
REM
REM
REM
REM
REM
REM ./C.cell (11c1c37f851c82e70ff6c80c92926a4b)
REM
REM compiler GCC version 9.2.1 20190827 (Red Hat 9.2.1-1)
REM options -cpp -mtune=generic -march=x86-64 -g -O0 -fpre-include=/usr/include/finclude/math-vector-fortran.h
REM seed -321182965 -2124051685 413329400 -1982465533 1894599411 1952608943 971507462 2094293474 -1687856966 2124709064 -1631846126 1557899548 1322560499 494044150 -937822886 1158781710 -2077237154 1959684599 1708074112 -1761356341 1226462730 -220277140 -1661296114 294376760 -677321355 -1859864783 206032637 1371970417 1179391431 1297553995 -354356343 290952134 337757705
REM
CELL 1.54180   50.00000   50.00000   50.00000   90.00000   90.00000   90.00000
LATT -1
SFAC C  
C      1  0.4598530000000  0.5050660000000  0.4382330000000 1.0
C      1  0.4913720000000  0.4593070000000  0.4540740000000 1.0
C      1  0.5206720000000  0.5494950000000  0.4963010000000 1.0
C      1  0.4308490000000  0.5523830000000  0.4699260000000 1.0
C      1  0.5123380000000  0.4478400000000  0.5632610000000 1.0
C      1  0.4979710000000  0.5728910000000  0.5223530000000 1.0
C      1  0.4811220000000  0.5131280000000  0.4170830000000 1.0
C      1  0.5696240000000  0.5455540000000  0.4654930000000 1.0
C      1  0.4331970000000  0.5901690000000  0.5499580000000 1.0
C      1  0.4899120000000  0.5063230000000  0.4795270000000 1.0
C      1  0.4173300000000  0.4930850000000  0.4795830000000 1.0
C      1  0.4694860000000  0.5438640000000  0.4265160000000 1.0
C      1  0.5460710000000  0.5494280000000  0.5434580000000 1.0
C      1  0.4165730000000  0.4988980000000  0.5420600000000 1.0
C      1  0.5289190000000  0.5287330000000  0.5615530000000 1.0
C      1  0.5332260000000  0.5501380000000  0.4248370000000 1.0
C      1  0.5646110000000  0.5037150000000  0.4320070000000 1.0
C      1  0.4811060000000  0.5771150000000  0.4729480000000 1.0
C      1  0.4573610000000  0.4402750000000  0.4625020000000 1.0
C      1  0.5006540000000  0.5535320000000  0.4327700000000 1.0
C      1  0.5249620000000  0.5023460000000  0.5459380000000 1.0
C      1  0.4750740000000  0.4759770000000  0.4755950000000 1.0
C      1  0.5498940000000  0.4691830000000  0.5258210000000 1.0
C      1  0.4838130000000  0.4111250000000  0.5244930000000 1.0
C      1  0.5166430000000  0.4198680000000  0.4744240000000 1.0
C      1  0.5643800000000  0.4415140000000  0.5726260000000 1.0
C      1  0.5129760000000  0.5158650000000  0.4278040000000 1.0
C      1  0.5193180000000  0.5213250000000  0.4680790000000 1.0
C      1  0.5708360000000  0.4604800000000  0.4626140000000 1.0
C      1  0.4411060000000  0.5179720000000  0.5561860000000 1.0
C      1  0.4577910000000  0.4781730000000  0.4466420000000 1.0
C      1  0.5639190000000  0.4950200000000  0.5429440000000 1.0
C      1  0.4367910000000  0.4667850000000  0.4698000000000 1.0
C      1  0.5392580000000  0.4631300000000  0.4663860000000 1.0
C      1  0.5743700000000  0.4956710000000  0.4808250000000 1.0
C      1  0.5196000000000  0.3943910000000  0.4767510000000 1.0
C      1  0.5042300000000  0.4834770000000  0.5856770000000 1.0
C      1  0.5371440000000  0.5057950000000  0.5152660000000 1.0
C      1  0.4080340000000  0.5020450000000  0.5110560000000 1.0
C      1  0.4103380000000  0.5329880000000  0.5221510000000 1.0
C      1  0.5129440000000  0.5760040000000  0.4794480000000 1.0
C      1  0.4682770000000  0.4477990000000  0.5241190000000 1.0
C      1  0.5196050000000  0.4439430000000  0.4545560000000 1.0
C      1  0.5005990000000  0.6002800000000  0.5224530000000 1.0
C      1  0.5744660000000  0.5452920000000  0.4921040000000 1.0
C      1  0.4607240000000  0.5547420000000  0.5713650000000 1.0
C      1  0.5113250000000  0.5250500000000  0.5075580000000 1.0
C      1  0.4917030000000  0.5274160000000  0.4528140000000 1.0
C      1  0.4968680000000  0.4832110000000  0.4118790000000 1.0
C      1  0.5488130000000  0.5369210000000  0.5075890000000 1.0
C      1  0.4742570000000  0.4086360000000  0.4978010000000 1.0
C      1  0.5411180000000  0.4542430000000  0.5699410000000 1.0
C      1  0.4590400000000  0.3876690000000  0.4895400000000 1.0
C      1  0.5677760000000  0.4547860000000  0.4930820000000 1.0
C      1  0.5812720000000  0.4737880000000  0.5134960000000 1.0
C      1  0.4840070000000  0.5112680000000  0.5108810000000 1.0
C      1  0.5078240000000  0.4561390000000  0.4246440000000 1.0
C      1  0.5440140000000  0.5185970000000  0.4237930000000 1.0
C      1  0.4591150000000  0.5609240000000  0.4526570000000 1.0
C      1  0.4514180000000  0.4256360000000  0.4396710000000 1.0
C      1  0.4271100000000  0.5416780000000  0.5418850000000 1.0
C      1  0.5919560000000  0.5005710000000  0.5043060000000 1.0
C      1  0.4634790000000  0.4466120000000  0.5577620000000 1.0
C      1  0.4906130000000  0.4702530000000  0.5116950000000 1.0
C      1  0.5191610000000  0.4666090000000  0.5289930000000 1.0
C      1  0.5842360000000  0.5268470000000  0.5154260000000 1.0
C      1  0.4470930000000  0.4882690000000  0.5463070000000 1.0
C      1  0.4700090000000  0.4179660000000  0.5506650000000 1.0
C      1  0.5457330000000  0.4880050000000  0.4908050000000 1.0
C      1  0.4596920000000  0.4725370000000  0.5678580000000 1.0
C      1  0.4731670000000  0.5229820000000  0.5668630000000 1.0
C      1  0.4394420000000  0.5641840000000  0.5541970000000 1.0
C      1  0.5016260000000  0.5417510000000  0.5666130000000 1.0
C      1  0.4551870000000  0.4587440000000  0.4974020000000 1.0
C      1  0.4960460000000  0.4755270000000  0.5517360000000 1.0
C      1  0.5671310000000  0.5229000000000  0.5396890000000 1.0
C      1  0.5786240000000  0.4885050000000  0.4515390000000 1.0
C      1  0.5395070000000  0.4465190000000  0.5021150000000 1.0
C      1  0.4619690000000  0.5442990000000  0.4827170000000 1.0
C      1  0.4760380000000  0.4923190000000  0.5819860000000 1.0
C      1  0.5304760000000  0.4826460000000  0.5703380000000 1.0
C      1  0.5069480000000  0.4474520000000  0.4923270000000 1.0
C      1  0.5331040000000  0.5866870000000  0.5035620000000 1.0
C      1  0.4812210000000  0.5622010000000  0.5022970000000 1.0
C      1  0.5246800000000  0.4910370000000  0.4670890000000 1.0
C      1  0.4525990000000  0.5220000000000  0.4586340000000 1.0
C      1  0.4228630000000  0.5201820000000  0.4666440000000 1.0
C      1  0.4637420000000  0.4892170000000  0.5208880000000 1.0
C      1  0.5127110000000  0.5589360000000  0.5425740000000 1.0
C      1  0.4791260000000  0.4315910000000  0.4807900000000 1.0
C      1  0.5238470000000  0.5695230000000  0.4515680000000 1.0
C      1  0.5404930000000  0.5408160000000  0.4567920000000 1.0
C      1  0.4997990000000  0.4387710000000  0.5341230000000 1.0
C      1  0.5435060000000  0.5752060000000  0.5229850000000 1.0
C      1  0.4356860000000  0.4838040000000  0.5057610000000 1.0
C      1  0.4916570000000  0.5068930000000  0.5429020000000 1.0
C      1  0.5018320000000  0.4895440000000  0.4452550000000 1.0
END
