TITL C-2778433-5640-1435 -0.0892145189529785 125000 -691.359273918509 0 0 119 (C1) n - 1
REM
REM in /home/nfs/bkarasulu/CARBON/AIRSS/Generating-Clusters/REBO/Only-C1/SD-CG/HFTN-CG
REM
REM
REM
REM
REM
REM ./C.cell (11c1c37f851c82e70ff6c80c92926a4b)
REM
REM compiler GCC version 9.2.1 20190827 (Red Hat 9.2.1-1)
REM options -cpp -mtune=generic -march=x86-64 -g -O0 -fpre-include=/usr/include/finclude/math-vector-fortran.h
REM seed 1123460925 677950406 445954049 1312202580 1309112149 -1555674937 1052668998 -1149692406 -710595078 -1669131690 -256760300 966795529 862641531 -1262955508 152045233 1557834294 -1192347084 1580181740 -505462995 2019189468 567651173 621047701 478497933 -568430798 -778391197 -988717541 244791953 1460360737 -1485863054 1907062854 805064562 -1956182980 2034674455
REM
CELL 1.54180   50.00000   50.00000   50.00000   90.00000   90.00000   90.00000
LATT -1
SFAC C  
C      1  0.5539360000000  0.5272570000000  0.4864450000000 1.0
C      1  0.5647770000000  0.5314420000000  0.4231280000000 1.0
C      1  0.5044250000000  0.5438530000000  0.5858790000000 1.0
C      1  0.5144850000000  0.4951720000000  0.4682350000000 1.0
C      1  0.5196030000000  0.5727760000000  0.5479940000000 1.0
C      1  0.4249380000000  0.5577300000000  0.5201700000000 1.0
C      1  0.4525430000000  0.4803150000000  0.4157210000000 1.0
C      1  0.5845350000000  0.5389950000000  0.4491120000000 1.0
C      1  0.4081980000000  0.5090730000000  0.4724280000000 1.0
C      1  0.4844510000000  0.4599630000000  0.5398030000000 1.0
C      1  0.4144510000000  0.4905490000000  0.5332050000000 1.0
C      1  0.4344200000000  0.4214070000000  0.4971910000000 1.0
C      1  0.5390810000000  0.4949180000000  0.5355780000000 1.0
C      1  0.5357420000000  0.4873050000000  0.5744640000000 1.0
C      1  0.5403830000000  0.5345430000000  0.4096050000000 1.0
C      1  0.5102920000000  0.4887200000000  0.5944300000000 1.0
C      1  0.4972990000000  0.4093030000000  0.5395630000000 1.0
C      1  0.4027110000000  0.5295650000000  0.4927100000000 1.0
C      1  0.4960650000000  0.5770810000000  0.4722900000000 1.0
C      1  0.5352470000000  0.4276620000000  0.5362900000000 1.0
C      1  0.5275170000000  0.5262650000000  0.5301810000000 1.0
C      1  0.4878360000000  0.4851480000000  0.4820690000000 1.0
C      1  0.5315230000000  0.5214290000000  0.4614780000000 1.0
C      1  0.4530810000000  0.4834470000000  0.5269420000000 1.0
C      1  0.4667520000000  0.5100080000000  0.4895480000000 1.0
C      1  0.4850790000000  0.5627160000000  0.5239150000000 1.0
C      1  0.4339660000000  0.4460670000000  0.4573340000000 1.0
C      1  0.4434820000000  0.5026450000000  0.5060520000000 1.0
C      1  0.5236000000000  0.5191410000000  0.5722820000000 1.0
C      1  0.5119870000000  0.4677270000000  0.5588130000000 1.0
C      1  0.4981160000000  0.5896890000000  0.5099960000000 1.0
C      1  0.5293140000000  0.4657180000000  0.5249870000000 1.0
C      1  0.4131620000000  0.5150840000000  0.5158430000000 1.0
C      1  0.5637510000000  0.4913710000000  0.5566970000000 1.0
C      1  0.4313090000000  0.4657310000000  0.4361100000000 1.0
C      1  0.5868320000000  0.4726770000000  0.5478110000000 1.0
C      1  0.5754890000000  0.5303840000000  0.5199930000000 1.0
C      1  0.4815960000000  0.4882920000000  0.5768920000000 1.0
C      1  0.4163930000000  0.5554810000000  0.4923960000000 1.0
C      1  0.5106150000000  0.5197560000000  0.4176110000000 1.0
C      1  0.5123450000000  0.5561510000000  0.4935950000000 1.0
C      1  0.4899770000000  0.5155570000000  0.5944480000000 1.0
C      1  0.5120460000000  0.4292070000000  0.5157230000000 1.0
C      1  0.5087980000000  0.4184930000000  0.4541580000000 1.0
C      1  0.5299640000000  0.4413860000000  0.5591080000000 1.0
C      1  0.5342990000000  0.5688050000000  0.4722020000000 1.0
C      1  0.4836530000000  0.5392570000000  0.4688890000000 1.0
C      1  0.5095990000000  0.4559440000000  0.4989290000000 1.0
C      1  0.4089290000000  0.4659420000000  0.5158190000000 1.0
C      1  0.5789500000000  0.4952970000000  0.4704970000000 1.0
C      1  0.5165060000000  0.5530830000000  0.4217330000000 1.0
C      1  0.5539570000000  0.5539560000000  0.4675830000000 1.0
C      1  0.4390470000000  0.4599810000000  0.4877460000000 1.0
C      1  0.5016090000000  0.5733030000000  0.4417150000000 1.0
C      1  0.4959160000000  0.5363270000000  0.5385070000000 1.0
C      1  0.5483370000000  0.5374930000000  0.5623290000000 1.0
C      1  0.4496070000000  0.4579600000000  0.5162290000000 1.0
C      1  0.5334480000000  0.4746920000000  0.4485140000000 1.0
C      1  0.4251650000000  0.5182010000000  0.4524010000000 1.0
C      1  0.4821780000000  0.4922310000000  0.4226070000000 1.0
C      1  0.4302190000000  0.5642780000000  0.4685370000000 1.0
C      1  0.4704590000000  0.5726850000000  0.4419920000000 1.0
C      1  0.5951400000000  0.4511280000000  0.5223120000000 1.0
C      1  0.5856560000000  0.5068370000000  0.4995690000000 1.0
C      1  0.4622320000000  0.4704160000000  0.5633830000000 1.0
C      1  0.5624570000000  0.4604110000000  0.5192680000000 1.0
C      1  0.5878870000000  0.4834610000000  0.5158340000000 1.0
C      1  0.5505230000000  0.5729480000000  0.5084970000000 1.0
C      1  0.5803630000000  0.4670310000000  0.4674060000000 1.0
C      1  0.4408360000000  0.4946880000000  0.5543280000000 1.0
C      1  0.4779380000000  0.6008400000000  0.4882900000000 1.0
C      1  0.4565230000000  0.5813030000000  0.4703150000000 1.0
C      1  0.4334010000000  0.5457590000000  0.4458960000000 1.0
C      1  0.5862300000000  0.4490680000000  0.4893940000000 1.0
C      1  0.5440630000000  0.5086150000000  0.5069740000000 1.0
C      1  0.4631600000000  0.5703040000000  0.5439730000000 1.0
C      1  0.5104270000000  0.4010590000000  0.4796890000000 1.0
C      1  0.4598560000000  0.5474450000000  0.4323040000000 1.0
C      1  0.5126910000000  0.4555700000000  0.4682380000000 1.0
C      1  0.5277030000000  0.5586720000000  0.5701690000000 1.0
C      1  0.5586540000000  0.4209070000000  0.5240740000000 1.0
C      1  0.4153390000000  0.4377980000000  0.5161580000000 1.0
C      1  0.5401210000000  0.4115960000000  0.4775060000000 1.0
C      1  0.5727420000000  0.5569850000000  0.5053060000000 1.0
C      1  0.4639560000000  0.4697200000000  0.4689010000000 1.0
C      1  0.4417420000000  0.5506530000000  0.5423280000000 1.0
C      1  0.4186050000000  0.4854450000000  0.4896290000000 1.0
C      1  0.5659960000000  0.5228840000000  0.5457930000000 1.0
C      1  0.4608630000000  0.4174900000000  0.5027430000000 1.0
C      1  0.4845270000000  0.4191280000000  0.5671790000000 1.0
C      1  0.5602510000000  0.4574290000000  0.4497150000000 1.0
C      1  0.5864520000000  0.5361920000000  0.4820490000000 1.0
C      1  0.4750820000000  0.4313770000000  0.5304390000000 1.0
C      1  0.4641680000000  0.5924450000000  0.5602380000000 1.0
C      1  0.4636540000000  0.4373970000000  0.4599060000000 1.0
C      1  0.4777190000000  0.5260190000000  0.4242350000000 1.0
C      1  0.4587660000000  0.5180710000000  0.4593280000000 1.0
C      1  0.5266630000000  0.5932750000000  0.5058230000000 1.0
C      1  0.4499330000000  0.5261930000000  0.5568050000000 1.0
C      1  0.4940300000000  0.5058240000000  0.5243900000000 1.0
C      1  0.5481990000000  0.4609990000000  0.4903380000000 1.0
C      1  0.4731590000000  0.5616540000000  0.4926570000000 1.0
C      1  0.4876990000000  0.4346950000000  0.4452890000000 1.0
C      1  0.5374520000000  0.4356910000000  0.4555460000000 1.0
C      1  0.4797320000000  0.5309510000000  0.5657820000000 1.0
C      1  0.5626860000000  0.5129930000000  0.4505540000000 1.0
C      1  0.4420950000000  0.4327320000000  0.5345700000000 1.0
C      1  0.4520080000000  0.4894200000000  0.4482760000000 1.0
C      1  0.5038090000000  0.5007550000000  0.5549300000000 1.0
C      1  0.5113330000000  0.5421920000000  0.4531570000000 1.0
C      1  0.4698690000000  0.4391740000000  0.5706770000000 1.0
C      1  0.4937150000000  0.5282780000000  0.4995160000000 1.0
C      1  0.5258050000000  0.5570330000000  0.5222280000000 1.0
C      1  0.4904770000000  0.4777610000000  0.5140590000000 1.0
C      1  0.5605050000000  0.4293200000000  0.4942490000000 1.0
C      1  0.5156430000000  0.4892330000000  0.4250120000000 1.0
C      1  0.5380280000000  0.4852480000000  0.4867770000000 1.0
C      1  0.4916680000000  0.4069530000000  0.5035310000000 1.0
C      1  0.4957860000000  0.4659060000000  0.4400160000000 1.0
END
