TITL C-2778437-8639-402 -0.00413238328215513 125000 -1062.40564141651 0 0 185 (C1) n - 1
REM
REM in /home/nfs/bkarasulu/CARBON/AIRSS/Generating-Clusters/REBO/Only-C1/SD-CG/HFTN-CG
REM
REM
REM
REM
REM
REM ./C.cell (11c1c37f851c82e70ff6c80c92926a4b)
REM
REM compiler GCC version 9.2.1 20190827 (Red Hat 9.2.1-1)
REM options -cpp -mtune=generic -march=x86-64 -g -O0 -fpre-include=/usr/include/finclude/math-vector-fortran.h
REM seed -852314161 -487583312 1362405047 -1417797998 832955082 -35524571 -888454533 852771496 -2010113984 1239847372 1842137356 2086210546 1975840715 -1131845681 163534252 1331975452 1568921138 -170345094 986245928 -1215818869 -51340495 690682943 187000075 -1248760050 -1437107488 1761891816 625129491 637758798 -910479122 1381383378 312179788 -797512919 -1156562579
REM
CELL 1.54180   50.00000   50.00000   50.00000   90.00000   90.00000   90.00000
LATT -1
SFAC C  
C      1  0.4593660000000  0.3999250000000  0.5210430000000 1.0
C      1  0.5189280000000  0.4757800000000  0.4003520000000 1.0
C      1  0.5052910000000  0.5052250000000  0.5529180000000 1.0
C      1  0.4370610000000  0.4892380000000  0.5944370000000 1.0
C      1  0.5851860000000  0.4801730000000  0.4102770000000 1.0
C      1  0.6054890000000  0.5033560000000  0.5208630000000 1.0
C      1  0.4094940000000  0.5751050000000  0.5027640000000 1.0
C      1  0.5383130000000  0.4557330000000  0.4137100000000 1.0
C      1  0.5223920000000  0.4434090000000  0.5663080000000 1.0
C      1  0.5122530000000  0.5667790000000  0.5264670000000 1.0
C      1  0.4567850000000  0.5884070000000  0.5023690000000 1.0
C      1  0.4561860000000  0.5374540000000  0.4692640000000 1.0
C      1  0.4583380000000  0.4955480000000  0.3941610000000 1.0
C      1  0.5360290000000  0.3946020000000  0.4752740000000 1.0
C      1  0.5935640000000  0.4782980000000  0.4435610000000 1.0
C      1  0.5296560000000  0.4130340000000  0.5769170000000 1.0
C      1  0.5387710000000  0.5678780000000  0.4773670000000 1.0
C      1  0.4406950000000  0.5362640000000  0.5900440000000 1.0
C      1  0.5418730000000  0.5162410000000  0.5646420000000 1.0
C      1  0.5273770000000  0.5410070000000  0.4949970000000 1.0
C      1  0.5672640000000  0.5577220000000  0.5195320000000 1.0
C      1  0.5529360000000  0.5763770000000  0.4253540000000 1.0
C      1  0.4712910000000  0.5197010000000  0.4887460000000 1.0
C      1  0.5206060000000  0.4077430000000  0.5483690000000 1.0
C      1  0.3948650000000  0.4728370000000  0.4956060000000 1.0
C      1  0.4946230000000  0.4861940000000  0.5131690000000 1.0
C      1  0.4721940000000  0.5499090000000  0.4185040000000 1.0
C      1  0.4085080000000  0.4343740000000  0.5358250000000 1.0
C      1  0.5596450000000  0.4706270000000  0.5821450000000 1.0
C      1  0.6075930000000  0.4732470000000  0.5045020000000 1.0
C      1  0.4714890000000  0.5098430000000  0.5505510000000 1.0
C      1  0.5749180000000  0.4947420000000  0.5124210000000 1.0
C      1  0.5967780000000  0.5522480000000  0.4931580000000 1.0
C      1  0.4343140000000  0.4966400000000  0.5552470000000 1.0
C      1  0.4452910000000  0.5132530000000  0.4274060000000 1.0
C      1  0.3965540000000  0.4841740000000  0.5559490000000 1.0
C      1  0.4501130000000  0.4673980000000  0.5794760000000 1.0
C      1  0.5894750000000  0.4491440000000  0.4589000000000 1.0
C      1  0.4516270000000  0.5109110000000  0.6054020000000 1.0
C      1  0.4781070000000  0.5981230000000  0.5274900000000 1.0
C      1  0.4997900000000  0.5355370000000  0.5604930000000 1.0
C      1  0.5083040000000  0.5133890000000  0.5019090000000 1.0
C      1  0.5001620000000  0.4981350000000  0.6065080000000 1.0
C      1  0.5637880000000  0.5312550000000  0.5013260000000 1.0
C      1  0.5362460000000  0.5014480000000  0.3900730000000 1.0
C      1  0.4980450000000  0.5864370000000  0.5708650000000 1.0
C      1  0.4306900000000  0.4860040000000  0.4845270000000 1.0
C      1  0.5093120000000  0.4678850000000  0.4382030000000 1.0
C      1  0.4281040000000  0.5355600000000  0.5096520000000 1.0
C      1  0.4400290000000  0.4768340000000  0.5342810000000 1.0
C      1  0.5381040000000  0.4479620000000  0.5412380000000 1.0
C      1  0.4348300000000  0.4433860000000  0.4569430000000 1.0
C      1  0.4891140000000  0.5407460000000  0.5063600000000 1.0
C      1  0.5473920000000  0.5433310000000  0.5928090000000 1.0
C      1  0.3863360000000  0.5283800000000  0.5412770000000 1.0
C      1  0.5266710000000  0.4945890000000  0.5348230000000 1.0
C      1  0.5103600000000  0.5919620000000  0.5048220000000 1.0
C      1  0.5353730000000  0.4323520000000  0.4320420000000 1.0
C      1  0.6011150000000  0.5368270000000  0.5184520000000 1.0
C      1  0.4601930000000  0.4014980000000  0.5486550000000 1.0
C      1  0.5717720000000  0.5432700000000  0.4540350000000 1.0
C      1  0.5663290000000  0.5719120000000  0.4489190000000 1.0
C      1  0.4012650000000  0.4568040000000  0.5578440000000 1.0
C      1  0.5576060000000  0.4940710000000  0.5498720000000 1.0
C      1  0.5109380000000  0.4373920000000  0.4538190000000 1.0
C      1  0.4562920000000  0.4307860000000  0.5648720000000 1.0
C      1  0.5840580000000  0.5456980000000  0.5445050000000 1.0
C      1  0.4926980000000  0.4203640000000  0.5133850000000 1.0
C      1  0.4651540000000  0.5717590000000  0.5398010000000 1.0
C      1  0.4759580000000  0.5676830000000  0.5701610000000 1.0
C      1  0.3997690000000  0.5221310000000  0.4849190000000 1.0
C      1  0.4961020000000  0.5404150000000  0.5912470000000 1.0
C      1  0.5232790000000  0.5345330000000  0.4620020000000 1.0
C      1  0.4924930000000  0.5984380000000  0.4053890000000 1.0
C      1  0.4511060000000  0.5734880000000  0.4430600000000 1.0
C      1  0.4866240000000  0.4758530000000  0.3930210000000 1.0
C      1  0.6064670000000  0.5337830000000  0.4713500000000 1.0
C      1  0.4851380000000  0.4569040000000  0.4208720000000 1.0
C      1  0.5277350000000  0.5551330000000  0.4168440000000 1.0
C      1  0.5204030000000  0.5948210000000  0.4680680000000 1.0
C      1  0.4920020000000  0.4476920000000  0.5598720000000 1.0
C      1  0.4907390000000  0.5021540000000  0.4698700000000 1.0
C      1  0.4220100000000  0.5605430000000  0.4552040000000 1.0
C      1  0.5700290000000  0.4376310000000  0.5469530000000 1.0
C      1  0.5455850000000  0.5076320000000  0.5143230000000 1.0
C      1  0.4427230000000  0.4339780000000  0.5336770000000 1.0
C      1  0.5642170000000  0.4321940000000  0.4505430000000 1.0
C      1  0.5347220000000  0.4021390000000  0.5241340000000 1.0
C      1  0.5592950000000  0.5877090000000  0.5100090000000 1.0
C      1  0.4155750000000  0.4644740000000  0.5213750000000 1.0
C      1  0.5344800000000  0.4749800000000  0.4713960000000 1.0
C      1  0.5373370000000  0.4343480000000  0.4718410000000 1.0
C      1  0.4798320000000  0.5454210000000  0.4487730000000 1.0
C      1  0.5522440000000  0.4921000000000  0.4489200000000 1.0
C      1  0.5071500000000  0.4860940000000  0.5780230000000 1.0
C      1  0.4886730000000  0.3946820000000  0.4803650000000 1.0
C      1  0.5402710000000  0.4448680000000  0.5015230000000 1.0
C      1  0.4836430000000  0.4225120000000  0.4620840000000 1.0
C      1  0.5904340000000  0.4357830000000  0.5206650000000 1.0
C      1  0.4323100000000  0.5791490000000  0.5180010000000 1.0
C      1  0.4353050000000  0.5231300000000  0.4557330000000 1.0
C      1  0.5588150000000  0.4726510000000  0.4249070000000 1.0
C      1  0.5509350000000  0.5431540000000  0.5528130000000 1.0
C      1  0.4890130000000  0.3999400000000  0.4295320000000 1.0
C      1  0.4778670000000  0.5871460000000  0.4316970000000 1.0
C      1  0.4486090000000  0.4808500000000  0.4550230000000 1.0
C      1  0.4947600000000  0.5744780000000  0.4576460000000 1.0
C      1  0.3858380000000  0.4957780000000  0.4835070000000 1.0
C      1  0.4982360000000  0.5670650000000  0.4106490000000 1.0
C      1  0.4768480000000  0.5144030000000  0.6171830000000 1.0
C      1  0.5361650000000  0.5255460000000  0.4137140000000 1.0
C      1  0.5519860000000  0.5225170000000  0.4613690000000 1.0
C      1  0.4120210000000  0.5002110000000  0.5791020000000 1.0
C      1  0.5353600000000  0.5990910000000  0.5271440000000 1.0
C      1  0.5222380000000  0.5202910000000  0.5921360000000 1.0
C      1  0.4888520000000  0.5100280000000  0.3906500000000 1.0
C      1  0.4752000000000  0.4480970000000  0.5878960000000 1.0
C      1  0.4896970000000  0.5686380000000  0.4908890000000 1.0
C      1  0.4837780000000  0.5439760000000  0.6228200000000 1.0
C      1  0.5056710000000  0.5952730000000  0.5441610000000 1.0
C      1  0.3960000000000  0.5022460000000  0.5334170000000 1.0
C      1  0.4616500000000  0.4389040000000  0.4777350000000 1.0
C      1  0.4201780000000  0.4536370000000  0.4834770000000 1.0
C      1  0.4578610000000  0.5392910000000  0.5613560000000 1.0
C      1  0.5420630000000  0.5909060000000  0.5595190000000 1.0
C      1  0.4903650000000  0.4653300000000  0.6075060000000 1.0
C      1  0.4230970000000  0.4327160000000  0.5057090000000 1.0
C      1  0.5198040000000  0.4981950000000  0.4263420000000 1.0
C      1  0.4382380000000  0.5518140000000  0.4199730000000 1.0
C      1  0.4774500000000  0.4785320000000  0.5624720000000 1.0
C      1  0.4133610000000  0.5510700000000  0.4830010000000 1.0
C      1  0.5587730000000  0.4216490000000  0.5195660000000 1.0
C      1  0.4672770000000  0.3831480000000  0.5000460000000 1.0
C      1  0.4454650000000  0.5162390000000  0.5315990000000 1.0
C      1  0.4627270000000  0.4297150000000  0.5064030000000 1.0
C      1  0.5235730000000  0.5610750000000  0.4474000000000 1.0
C      1  0.4607080000000  0.4768750000000  0.4232430000000 1.0
C      1  0.5023320000000  0.4731450000000  0.4689710000000 1.0
C      1  0.4605560000000  0.4901430000000  0.4927180000000 1.0
C      1  0.5637770000000  0.4640480000000  0.4746640000000 1.0
C      1  0.4122250000000  0.5367970000000  0.4339140000000 1.0
C      1  0.4098990000000  0.5040430000000  0.4430360000000 1.0
C      1  0.3939460000000  0.5423740000000  0.5640230000000 1.0
C      1  0.4593250000000  0.5697580000000  0.4755420000000 1.0
C      1  0.5857020000000  0.5234300000000  0.5666230000000 1.0
C      1  0.5717240000000  0.4559100000000  0.5039890000000 1.0
C      1  0.5721170000000  0.5720150000000  0.4826470000000 1.0
C      1  0.5964840000000  0.4660080000000  0.5360180000000 1.0
C      1  0.4718100000000  0.4676140000000  0.4740550000000 1.0
C      1  0.4445590000000  0.4293340000000  0.4334090000000 1.0
C      1  0.5647350000000  0.5077080000000  0.4069680000000 1.0
C      1  0.5363850000000  0.5493170000000  0.5241340000000 1.0
C      1  0.5897540000000  0.4964770000000  0.5500720000000 1.0
C      1  0.5441000000000  0.5671320000000  0.5725680000000 1.0
C      1  0.5610460000000  0.4109400000000  0.4832310000000 1.0
C      1  0.4925380000000  0.3855660000000  0.4497350000000 1.0
C      1  0.4985110000000  0.4239090000000  0.5408560000000 1.0
C      1  0.4108660000000  0.5310480000000  0.5822690000000 1.0
C      1  0.4649140000000  0.4801100000000  0.5215550000000 1.0
C      1  0.5134610000000  0.5188060000000  0.3805820000000 1.0
C      1  0.4761930000000  0.4293190000000  0.4293760000000 1.0
C      1  0.4533240000000  0.5292020000000  0.3990790000000 1.0
C      1  0.4278460000000  0.4483020000000  0.5677960000000 1.0
C      1  0.5790660000000  0.4615380000000  0.5652620000000 1.0
C      1  0.4390010000000  0.5535570000000  0.5365560000000 1.0
C      1  0.5324110000000  0.4685510000000  0.5806790000000 1.0
C      1  0.5357100000000  0.5037460000000  0.4838580000000 1.0
C      1  0.4884340000000  0.5501690000000  0.5365230000000 1.0
C      1  0.4165990000000  0.4709250000000  0.4480930000000 1.0
C      1  0.5192730000000  0.4652140000000  0.5189290000000 1.0
C      1  0.5004880000000  0.5186820000000  0.4458350000000 1.0
C      1  0.5873830000000  0.5140670000000  0.4869070000000 1.0
C      1  0.5800330000000  0.5083650000000  0.4366410000000 1.0
C      1  0.5148950000000  0.3998620000000  0.4975190000000 1.0
C      1  0.6078850000000  0.4491680000000  0.4834980000000 1.0
C      1  0.5452310000000  0.4038350000000  0.4475140000000 1.0
C      1  0.5983760000000  0.5326910000000  0.4432600000000 1.0
C      1  0.4284630000000  0.4858320000000  0.4208550000000 1.0
C      1  0.5907280000000  0.4845240000000  0.4771410000000 1.0
C      1  0.4655150000000  0.5548950000000  0.5972360000000 1.0
C      1  0.4780640000000  0.5107590000000  0.4228890000000 1.0
C      1  0.4829230000000  0.6092330000000  0.4966350000000 1.0
C      1  0.5729100000000  0.5299680000000  0.5898250000000 1.0
C      1  0.4154400000000  0.5043590000000  0.5087670000000 1.0
C      1  0.5576080000000  0.4704990000000  0.5281340000000 1.0
END
