TITL C-2778428-5639-459 0.000122701067094577 125000 -287.88190195623 0 0 51 (C1) n - 1
REM
REM in /home/nfs/bkarasulu/CARBON/AIRSS/Generating-Clusters/REBO/Only-C1/SD-CG/HFTN-CG
REM
REM
REM
REM
REM
REM ./C.cell (11c1c37f851c82e70ff6c80c92926a4b)
REM
REM compiler GCC version 9.2.1 20190827 (Red Hat 9.2.1-1)
REM options -cpp -mtune=generic -march=x86-64 -g -O0 -fpre-include=/usr/include/finclude/math-vector-fortran.h
REM seed -43200399 272089306 935224937 1399548562 -1611291720 -345002711 2050550889 1326221185 363109895 -596518104 -360422390 1960344059 721705782 1555512354 -679601329 426417619 1755639128 827025747 1238125154 2128101900 998866172 -2098627974 -1545441373 439603749 2106558013 -179855032 -1227633811 93060259 1216571379 288941128 2033016297 -181634513 -1569942044
REM
CELL 1.54180   50.00000   50.00000   50.00000   90.00000   90.00000   90.00000
LATT -1
SFAC C  
C      1  0.4452090000000  0.4717850000000  0.5237890000000 1.0
C      1  0.5284610000000  0.4386240000000  0.4573080000000 1.0
C      1  0.4464860000000  0.4997950000000  0.4676360000000 1.0
C      1  0.4700210000000  0.5525670000000  0.5606550000000 1.0
C      1  0.5066620000000  0.4887560000000  0.5506600000000 1.0
C      1  0.5236670000000  0.4288890000000  0.5379110000000 1.0
C      1  0.5127270000000  0.4664920000000  0.5671370000000 1.0
C      1  0.5080950000000  0.5193940000000  0.5502500000000 1.0
C      1  0.5081910000000  0.5273110000000  0.5174470000000 1.0
C      1  0.5856610000000  0.5373600000000  0.4765390000000 1.0
C      1  0.4791580000000  0.5503490000000  0.4763680000000 1.0
C      1  0.4832580000000  0.4603670000000  0.4854890000000 1.0
C      1  0.4686140000000  0.5118770000000  0.4490330000000 1.0
C      1  0.5289820000000  0.4687080000000  0.4603860000000 1.0
C      1  0.4722870000000  0.4889740000000  0.4815060000000 1.0
C      1  0.5191950000000  0.5122440000000  0.4821680000000 1.0
C      1  0.4535160000000  0.4479190000000  0.5373640000000 1.0
C      1  0.4600560000000  0.5713580000000  0.5759660000000 1.0
C      1  0.5314090000000  0.5437640000000  0.5453260000000 1.0
C      1  0.5755180000000  0.5142140000000  0.4869590000000 1.0
C      1  0.5162720000000  0.4933310000000  0.4578420000000 1.0
C      1  0.4448960000000  0.5355580000000  0.5107490000000 1.0
C      1  0.4672910000000  0.5219640000000  0.5203370000000 1.0
C      1  0.4864910000000  0.5587930000000  0.4318570000000 1.0
C      1  0.4788440000000  0.4641560000000  0.4541490000000 1.0
C      1  0.5885300000000  0.4860750000000  0.4915840000000 1.0
C      1  0.5044910000000  0.4408750000000  0.5562030000000 1.0
C      1  0.5602100000000  0.4795080000000  0.4983360000000 1.0
C      1  0.5430090000000  0.4576810000000  0.4891780000000 1.0
C      1  0.4801280000000  0.5335090000000  0.5451250000000 1.0
C      1  0.4660530000000  0.4907930000000  0.5242860000000 1.0
C      1  0.4239040000000  0.4782840000000  0.5061040000000 1.0
C      1  0.5081120000000  0.5429000000000  0.4893630000000 1.0
C      1  0.4864120000000  0.5570300000000  0.4048580000000 1.0
C      1  0.4765400000000  0.4387600000000  0.5493760000000 1.0
C      1  0.4899730000000  0.4918300000000  0.4459420000000 1.0
C      1  0.5252970000000  0.5678580000000  0.5318020000000 1.0
C      1  0.4919310000000  0.4790180000000  0.5277090000000 1.0
C      1  0.5450520000000  0.5081540000000  0.4985370000000 1.0
C      1  0.5005810000000  0.5789160000000  0.4474500000000 1.0
C      1  0.4974610000000  0.4581900000000  0.5092310000000 1.0
C      1  0.4692200000000  0.4453700000000  0.4371830000000 1.0
C      1  0.5030440000000  0.5745340000000  0.4795350000000 1.0
C      1  0.5399780000000  0.5196540000000  0.5265450000000 1.0
C      1  0.5160840000000  0.5786250000000  0.5087760000000 1.0
C      1  0.5417030000000  0.4091940000000  0.5446730000000 1.0
C      1  0.5329300000000  0.4251620000000  0.4831840000000 1.0
C      1  0.4740950000000  0.5401950000000  0.4501540000000 1.0
C      1  0.4883000000000  0.5092010000000  0.4967640000000 1.0
C      1  0.4235820000000  0.4928310000000  0.4825270000000 1.0
C      1  0.5224110000000  0.4413040000000  0.5107430000000 1.0
END
