TITL C-2778425-5191-783 -0.00148811847163161 125000 -70.5430631660564 0 0 15 (C1) n - 1
REM
REM in /home/nfs/bkarasulu/CARBON/AIRSS/Generating-Clusters/REBO/Only-C1/SD-CG/HFTN-CG
REM
REM
REM
REM
REM
REM ./C.cell (11c1c37f851c82e70ff6c80c92926a4b)
REM
REM compiler GCC version 9.2.1 20190827 (Red Hat 9.2.1-1)
REM options -cpp -mtune=generic -march=x86-64 -g -O0 -fpre-include=/usr/include/finclude/math-vector-fortran.h
REM seed 380696961 966054328 -891642149 -1847975715 304392343 29802330 1292008842 1657488468 1557259249 97705541 2108257605 1116177828 588141873 1009470223 1109513688 909700656 -191598841 -2128259511 3551206 -348531919 -1482850375 1382339162 1101358039 546598274 -1614443885 1342824061 1096662228 -605865276 287239168 1970978723 -330791352 512423252 1807115210
REM
CELL 1.54180   50.00000   50.00000   50.00000   90.00000   90.00000   90.00000
LATT -1
SFAC C  
C      1  0.4955040000000  0.5353540000000  0.5461890000000 1.0
C      1  0.5247810000000  0.5124120000000  0.4721860000000 1.0
C      1  0.5042930000000  0.5028990000000  0.4374940000000 1.0
C      1  0.4712390000000  0.4672200000000  0.4349320000000 1.0
C      1  0.5434460000000  0.5191270000000  0.4561310000000 1.0
C      1  0.4554520000000  0.5058950000000  0.4818840000000 1.0
C      1  0.5183670000000  0.4968380000000  0.5743800000000 1.0
C      1  0.5114840000000  0.4955700000000  0.5222880000000 1.0
C      1  0.4851410000000  0.4865710000000  0.4490190000000 1.0
C      1  0.4758940000000  0.4644400000000  0.4909670000000 1.0
C      1  0.5026690000000  0.5044570000000  0.4912070000000 1.0
C      1  0.5096450000000  0.5076430000000  0.5504450000000 1.0
C      1  0.4790410000000  0.4900860000000  0.4787890000000 1.0
C      1  0.5266280000000  0.4866040000000  0.5970480000000 1.0
C      1  0.4964180000000  0.5248830000000  0.5170410000000 1.0
END
