TITL C-2778437-8639-1329 0.00296982606205516 125000 -736.569801203036 0 0 126 (C1) n - 1
REM
REM in /home/nfs/bkarasulu/CARBON/AIRSS/Generating-Clusters/REBO/Only-C1/SD-CG/HFTN-CG
REM
REM
REM
REM
REM
REM ./C.cell (11c1c37f851c82e70ff6c80c92926a4b)
REM
REM compiler GCC version 9.2.1 20190827 (Red Hat 9.2.1-1)
REM options -cpp -mtune=generic -march=x86-64 -g -O0 -fpre-include=/usr/include/finclude/math-vector-fortran.h
REM seed 727596060 222639728 -328777166 2081087259 1093018834 801331840 -998095565 735490556 473475731 -865202457 2103754603 382317495 1313779975 -1764787002 -904737405 -1108401937 -606238477 1914282694 -801131186 1397465784 -1208060671 -2097370850 1224016349 404598198 1932793511 797464439 -1743483476 476532531 885079216 1184143688 918677130 825968173 1201357845
REM
CELL 1.54180   50.00000   50.00000   50.00000   90.00000   90.00000   90.00000
LATT -1
SFAC C  
C      1  0.4506710000000  0.5396280000000  0.4958760000000 1.0
C      1  0.5800260000000  0.5296920000000  0.4992210000000 1.0
C      1  0.4785040000000  0.4365160000000  0.4419340000000 1.0
C      1  0.4270580000000  0.5482490000000  0.5400780000000 1.0
C      1  0.4721790000000  0.5244660000000  0.4807900000000 1.0
C      1  0.5547440000000  0.5707120000000  0.5303760000000 1.0
C      1  0.4561190000000  0.5509970000000  0.4175450000000 1.0
C      1  0.4436400000000  0.4738450000000  0.4603750000000 1.0
C      1  0.4581850000000  0.5042880000000  0.5182610000000 1.0
C      1  0.5792940000000  0.5160320000000  0.5441700000000 1.0
C      1  0.5158400000000  0.4968770000000  0.4125570000000 1.0
C      1  0.5258670000000  0.4264720000000  0.4839560000000 1.0
C      1  0.5602100000000  0.5199950000000  0.4788440000000 1.0
C      1  0.5315720000000  0.5900640000000  0.5156860000000 1.0
C      1  0.5290760000000  0.5521030000000  0.4220160000000 1.0
C      1  0.4118280000000  0.4926100000000  0.4453810000000 1.0
C      1  0.4904960000000  0.4899820000000  0.4469940000000 1.0
C      1  0.5679960000000  0.5404620000000  0.5254100000000 1.0
C      1  0.4155730000000  0.4413570000000  0.4927250000000 1.0
C      1  0.4117010000000  0.5031480000000  0.5323630000000 1.0
C      1  0.5289490000000  0.5146470000000  0.4912260000000 1.0
C      1  0.5082600000000  0.5556520000000  0.4842210000000 1.0
C      1  0.4623070000000  0.5283150000000  0.4092440000000 1.0
C      1  0.3962620000000  0.4791290000000  0.5219130000000 1.0
C      1  0.5738960000000  0.4891590000000  0.5380300000000 1.0
C      1  0.4833690000000  0.4639260000000  0.3922960000000 1.0
C      1  0.5282040000000  0.4846440000000  0.4612500000000 1.0
C      1  0.5390560000000  0.5063540000000  0.5219880000000 1.0
C      1  0.5641600000000  0.5839760000000  0.4592270000000 1.0
C      1  0.6021880000000  0.5457230000000  0.4857980000000 1.0
C      1  0.5656780000000  0.4392480000000  0.5518530000000 1.0
C      1  0.4282600000000  0.4322300000000  0.5581140000000 1.0
C      1  0.4841630000000  0.4764650000000  0.5463480000000 1.0
C      1  0.5675260000000  0.4233300000000  0.5326520000000 1.0
C      1  0.4918570000000  0.5381420000000  0.4632020000000 1.0
C      1  0.4857170000000  0.4268220000000  0.4921700000000 1.0
C      1  0.5310110000000  0.5785350000000  0.5535820000000 1.0
C      1  0.4001970000000  0.4568890000000  0.5075040000000 1.0
C      1  0.5078690000000  0.4712360000000  0.5052770000000 1.0
C      1  0.4868090000000  0.5696600000000  0.4537310000000 1.0
C      1  0.4754540000000  0.5513740000000  0.5163310000000 1.0
C      1  0.6094940000000  0.5174950000000  0.4752810000000 1.0
C      1  0.5623250000000  0.5400580000000  0.4560150000000 1.0
C      1  0.4496070000000  0.5211620000000  0.5658860000000 1.0
C      1  0.4583580000000  0.4716690000000  0.4882520000000 1.0
C      1  0.5030190000000  0.5279600000000  0.5591830000000 1.0
C      1  0.5367810000000  0.4212000000000  0.4517160000000 1.0
C      1  0.4690580000000  0.4132970000000  0.5171610000000 1.0
C      1  0.4896730000000  0.4861620000000  0.4072600000000 1.0
C      1  0.5044900000000  0.4964170000000  0.5956920000000 1.0
C      1  0.5535600000000  0.5593420000000  0.4816450000000 1.0
C      1  0.4815990000000  0.5847500000000  0.5374590000000 1.0
C      1  0.4329510000000  0.4956690000000  0.5546670000000 1.0
C      1  0.4439710000000  0.5547890000000  0.5646330000000 1.0
C      1  0.5717450000000  0.4623920000000  0.4627400000000 1.0
C      1  0.4697320000000  0.5832130000000  0.5076240000000 1.0
C      1  0.6034900000000  0.4975110000000  0.4955490000000 1.0
C      1  0.4001100000000  0.5044180000000  0.4677260000000 1.0
C      1  0.5017540000000  0.4659750000000  0.5702670000000 1.0
C      1  0.5409030000000  0.5437480000000  0.5044990000000 1.0
C      1  0.6059020000000  0.5168030000000  0.4463990000000 1.0
C      1  0.5572460000000  0.5481700000000  0.4255000000000 1.0
C      1  0.4439660000000  0.5016090000000  0.4443630000000 1.0
C      1  0.4746660000000  0.4393700000000  0.5579080000000 1.0
C      1  0.4397880000000  0.5314590000000  0.4584340000000 1.0
C      1  0.5715300000000  0.4599580000000  0.4961230000000 1.0
C      1  0.5088610000000  0.5922710000000  0.5378280000000 1.0
C      1  0.5004030000000  0.4322300000000  0.5489690000000 1.0
C      1  0.4467980000000  0.4569470000000  0.5149130000000 1.0
C      1  0.5206840000000  0.4539610000000  0.4667600000000 1.0
C      1  0.4760000000000  0.5129600000000  0.5844930000000 1.0
C      1  0.4875900000000  0.4082510000000  0.4681370000000 1.0
C      1  0.4676880000000  0.5015870000000  0.4243190000000 1.0
C      1  0.5168450000000  0.5720240000000  0.4400600000000 1.0
C      1  0.4045210000000  0.5338440000000  0.5359230000000 1.0
C      1  0.5006240000000  0.4899460000000  0.5263510000000 1.0
C      1  0.5199270000000  0.5183330000000  0.5797690000000 1.0
C      1  0.4546140000000  0.4791520000000  0.5370200000000 1.0
C      1  0.4496570000000  0.4496080000000  0.4374820000000 1.0
C      1  0.5631880000000  0.4304780000000  0.4709460000000 1.0
C      1  0.4776520000000  0.4970480000000  0.4940890000000 1.0
C      1  0.5525750000000  0.4692440000000  0.5557150000000 1.0
C      1  0.4216730000000  0.4771670000000  0.5768380000000 1.0
C      1  0.4568640000000  0.4225300000000  0.4651040000000 1.0
C      1  0.5457000000000  0.4533730000000  0.4436830000000 1.0
C      1  0.5472420000000  0.5071290000000  0.5707040000000 1.0
C      1  0.5058550000000  0.4162830000000  0.4448700000000 1.0
C      1  0.5321050000000  0.4808550000000  0.4289500000000 1.0
C      1  0.4987380000000  0.5202330000000  0.4412780000000 1.0
C      1  0.4816630000000  0.5441680000000  0.5711260000000 1.0
C      1  0.4515850000000  0.4319740000000  0.5362040000000 1.0
C      1  0.4867450000000  0.4573700000000  0.4874270000000 1.0
C      1  0.5552970000000  0.4894500000000  0.4748450000000 1.0
C      1  0.4345560000000  0.4518610000000  0.5786230000000 1.0
C      1  0.4898890000000  0.5842980000000  0.4841140000000 1.0
C      1  0.5344750000000  0.5856710000000  0.4584730000000 1.0
C      1  0.5861720000000  0.4819330000000  0.5126380000000 1.0
C      1  0.4701690000000  0.5689950000000  0.5585280000000 1.0
C      1  0.5397220000000  0.5205030000000  0.5452100000000 1.0
C      1  0.4572480000000  0.5588650000000  0.4476660000000 1.0
C      1  0.4390490000000  0.5612030000000  0.4758460000000 1.0
C      1  0.4632030000000  0.4537660000000  0.5793730000000 1.0
C      1  0.4461790000000  0.4276460000000  0.4968840000000 1.0
C      1  0.5307470000000  0.4802090000000  0.5798540000000 1.0
C      1  0.5405980000000  0.4251060000000  0.5796120000000 1.0
C      1  0.5076270000000  0.5411250000000  0.5121630000000 1.0
C      1  0.5175350000000  0.4085870000000  0.5081310000000 1.0
C      1  0.4569280000000  0.5323610000000  0.5344540000000 1.0
C      1  0.5357010000000  0.5477600000000  0.5476180000000 1.0
C      1  0.5599460000000  0.4307240000000  0.5042060000000 1.0
C      1  0.5469380000000  0.4817820000000  0.5052350000000 1.0
C      1  0.5333960000000  0.4522190000000  0.5045720000000 1.0
C      1  0.5863900000000  0.5666590000000  0.4736760000000 1.0
C      1  0.5225160000000  0.5857580000000  0.4872800000000 1.0
C      1  0.5850110000000  0.5318080000000  0.4342800000000 1.0
C      1  0.4176960000000  0.5217710000000  0.4801680000000 1.0
C      1  0.4294920000000  0.5182670000000  0.5089970000000 1.0
C      1  0.5273760000000  0.4457270000000  0.5607630000000 1.0
C      1  0.4772280000000  0.4792650000000  0.5890230000000 1.0
C      1  0.4296750000000  0.4431200000000  0.4642200000000 1.0
C      1  0.4920260000000  0.4610380000000  0.4557470000000 1.0
C      1  0.4992140000000  0.4143040000000  0.5274170000000 1.0
C      1  0.4424170000000  0.5848470000000  0.4922870000000 1.0
C      1  0.5022040000000  0.5182340000000  0.5318110000000 1.0
C      1  0.5154580000000  0.5269980000000  0.4187230000000 1.0
C      1  0.5046390000000  0.5016260000000  0.4761080000000 1.0
END
