TITL C-2778431-5191-15 -0.00147140853898473 125000 -1130.04156604115 0 0 195 (C1) n - 1
REM
REM in /home/nfs/bkarasulu/CARBON/AIRSS/Generating-Clusters/REBO/Only-C1/SD-CG/HFTN-CG
REM
REM
REM
REM
REM
REM ./C.cell (11c1c37f851c82e70ff6c80c92926a4b)
REM
REM compiler GCC version 9.2.1 20190827 (Red Hat 9.2.1-1)
REM options -cpp -mtune=generic -march=x86-64 -g -O0 -fpre-include=/usr/include/finclude/math-vector-fortran.h
REM seed -817439736 628975665 824277596 2115209506 1481687095 -939674092 1360585431 -197338358 1114196439 -1553858174 781202989 396171987 -2120812073 1938341983 186842153 -1917384583 -1818852303 -706068341 1113011502 1827803792 2023618865 2124786281 -2015436656 1001909277 420159403 -887834186 1282706905 1228050945 967937843 761636554 1809742000 844887651 794110356
REM
CELL 1.54180   50.00000   50.00000   50.00000   90.00000   90.00000   90.00000
LATT -1
SFAC C  
C      1  0.6144780000000  0.5277100000000  0.5349690000000 1.0
C      1  0.5826290000000  0.4270420000000  0.5220750000000 1.0
C      1  0.4508110000000  0.5658570000000  0.4435110000000 1.0
C      1  0.4187640000000  0.4619210000000  0.4708870000000 1.0
C      1  0.5606760000000  0.4715710000000  0.6163180000000 1.0
C      1  0.5252960000000  0.6035250000000  0.5476750000000 1.0
C      1  0.4625400000000  0.4345090000000  0.5870790000000 1.0
C      1  0.5637200000000  0.4735110000000  0.4862790000000 1.0
C      1  0.4624790000000  0.4983010000000  0.4747250000000 1.0
C      1  0.5339180000000  0.4651620000000  0.4898800000000 1.0
C      1  0.5784760000000  0.4491540000000  0.4737570000000 1.0
C      1  0.5715490000000  0.5452560000000  0.5524740000000 1.0
C      1  0.5299840000000  0.5549150000000  0.4353530000000 1.0
C      1  0.5074780000000  0.4492360000000  0.4504000000000 1.0
C      1  0.4237950000000  0.5568790000000  0.5349030000000 1.0
C      1  0.5219880000000  0.4796710000000  0.4434560000000 1.0
C      1  0.4232870000000  0.4846520000000  0.4935580000000 1.0
C      1  0.4124220000000  0.5756060000000  0.5096250000000 1.0
C      1  0.4664170000000  0.4678630000000  0.4511420000000 1.0
C      1  0.5129990000000  0.5094600000000  0.4295690000000 1.0
C      1  0.5262380000000  0.5040020000000  0.5201630000000 1.0
C      1  0.4638350000000  0.5782980000000  0.5662180000000 1.0
C      1  0.5831280000000  0.4904400000000  0.4419990000000 1.0
C      1  0.5026850000000  0.5560210000000  0.4620850000000 1.0
C      1  0.4753940000000  0.5901260000000  0.4806730000000 1.0
C      1  0.4535750000000  0.4771520000000  0.5177960000000 1.0
C      1  0.4968450000000  0.6050850000000  0.6208110000000 1.0
C      1  0.4677220000000  0.4321480000000  0.4121700000000 1.0
C      1  0.5638050000000  0.5404840000000  0.4161710000000 1.0
C      1  0.5336150000000  0.4225500000000  0.4760800000000 1.0
C      1  0.4574470000000  0.4887050000000  0.5569870000000 1.0
C      1  0.4803770000000  0.4976470000000  0.5396830000000 1.0
C      1  0.5029570000000  0.5932920000000  0.5965720000000 1.0
C      1  0.4498630000000  0.4477260000000  0.5006920000000 1.0
C      1  0.4206220000000  0.4737740000000  0.5257010000000 1.0
C      1  0.4972100000000  0.4267800000000  0.5074160000000 1.0
C      1  0.4889060000000  0.5289820000000  0.4655730000000 1.0
C      1  0.4098720000000  0.4381370000000  0.5620150000000 1.0
C      1  0.4804400000000  0.5656900000000  0.4311250000000 1.0
C      1  0.5652430000000  0.5061920000000  0.5580830000000 1.0
C      1  0.4819790000000  0.6122310000000  0.4609500000000 1.0
C      1  0.4942880000000  0.4754550000000  0.5758390000000 1.0
C      1  0.4594750000000  0.4958210000000  0.4234980000000 1.0
C      1  0.4038370000000  0.4984980000000  0.5389720000000 1.0
C      1  0.4517530000000  0.5372500000000  0.5399200000000 1.0
C      1  0.5025840000000  0.5082490000000  0.5580750000000 1.0
C      1  0.4609010000000  0.5542440000000  0.3843260000000 1.0
C      1  0.4763890000000  0.3780320000000  0.5220950000000 1.0
C      1  0.5392660000000  0.5528200000000  0.5601700000000 1.0
C      1  0.4721590000000  0.4972620000000  0.3842680000000 1.0
C      1  0.5298930000000  0.5039720000000  0.4004470000000 1.0
C      1  0.5063390000000  0.6040500000000  0.5261470000000 1.0
C      1  0.4419830000000  0.4902580000000  0.4504390000000 1.0
C      1  0.5672860000000  0.4512790000000  0.5969730000000 1.0
C      1  0.4861590000000  0.4001110000000  0.4355170000000 1.0
C      1  0.5491640000000  0.5870880000000  0.4894970000000 1.0
C      1  0.4350860000000  0.4219600000000  0.5360780000000 1.0
C      1  0.5754140000000  0.5735760000000  0.4829350000000 1.0
C      1  0.4799700000000  0.4568590000000  0.5989980000000 1.0
C      1  0.5457740000000  0.5780490000000  0.4508360000000 1.0
C      1  0.4620540000000  0.4345760000000  0.5462140000000 1.0
C      1  0.4168130000000  0.5160550000000  0.5633350000000 1.0
C      1  0.5071360000000  0.5276140000000  0.5079540000000 1.0
C      1  0.5434890000000  0.4704530000000  0.5576030000000 1.0
C      1  0.4755720000000  0.4442690000000  0.5205360000000 1.0
C      1  0.4133060000000  0.5438040000000  0.5710750000000 1.0
C      1  0.5684120000000  0.4735420000000  0.4212680000000 1.0
C      1  0.5649760000000  0.5012710000000  0.4687850000000 1.0
C      1  0.5135470000000  0.4516400000000  0.6025510000000 1.0
C      1  0.4723090000000  0.5382840000000  0.4915540000000 1.0
C      1  0.4849270000000  0.4763870000000  0.4744110000000 1.0
C      1  0.5361040000000  0.3909400000000  0.4764870000000 1.0
C      1  0.6016080000000  0.5145190000000  0.4836040000000 1.0
C      1  0.5340430000000  0.5087870000000  0.5637660000000 1.0
C      1  0.4840830000000  0.5477390000000  0.3958040000000 1.0
C      1  0.5591560000000  0.4333870000000  0.4560530000000 1.0
C      1  0.5684190000000  0.4559640000000  0.5670250000000 1.0
C      1  0.6030780000000  0.5105600000000  0.5114560000000 1.0
C      1  0.4440850000000  0.5099450000000  0.5680500000000 1.0
C      1  0.6028360000000  0.4660150000000  0.4826240000000 1.0
C      1  0.5314780000000  0.4585610000000  0.4199480000000 1.0
C      1  0.4647610000000  0.5218820000000  0.4426480000000 1.0
C      1  0.4497440000000  0.5355280000000  0.4694850000000 1.0
C      1  0.4329390000000  0.4159430000000  0.4513250000000 1.0
C      1  0.5979200000000  0.5526640000000  0.5332320000000 1.0
C      1  0.5243050000000  0.6009030000000  0.5793870000000 1.0
C      1  0.5141260000000  0.4825970000000  0.4733810000000 1.0
C      1  0.4753530000000  0.6375580000000  0.4541790000000 1.0
C      1  0.5644860000000  0.4005790000000  0.4640730000000 1.0
C      1  0.4865070000000  0.5695630000000  0.5859310000000 1.0
C      1  0.5132290000000  0.4580970000000  0.5534790000000 1.0
C      1  0.3962470000000  0.5601710000000  0.4891870000000 1.0
C      1  0.5874450000000  0.4503960000000  0.5463200000000 1.0
C      1  0.5572040000000  0.4421500000000  0.4279250000000 1.0
C      1  0.4163770000000  0.5389020000000  0.4736700000000 1.0
C      1  0.5199350000000  0.6018490000000  0.5006570000000 1.0
C      1  0.4421700000000  0.4879800000000  0.3965570000000 1.0
C      1  0.3942340000000  0.4963110000000  0.5060510000000 1.0
C      1  0.4058820000000  0.4441790000000  0.4972860000000 1.0
C      1  0.4110300000000  0.4439810000000  0.5287790000000 1.0
C      1  0.5037590000000  0.5275750000000  0.6048410000000 1.0
C      1  0.4371840000000  0.5580880000000  0.5724950000000 1.0
C      1  0.5048770000000  0.4368990000000  0.5749210000000 1.0
C      1  0.4381980000000  0.5295050000000  0.5100650000000 1.0
C      1  0.5534660000000  0.5391730000000  0.4736060000000 1.0
C      1  0.5123580000000  0.4062130000000  0.5615590000000 1.0
C      1  0.5746440000000  0.4827250000000  0.5150920000000 1.0
C      1  0.4114390000000  0.4912400000000  0.4394610000000 1.0
C      1  0.5650300000000  0.5111050000000  0.4992020000000 1.0
C      1  0.4995610000000  0.5873560000000  0.4490690000000 1.0
C      1  0.4972340000000  0.4588200000000  0.4203060000000 1.0
C      1  0.4785860000000  0.4212050000000  0.4611260000000 1.0
C      1  0.5134810000000  0.4195420000000  0.4418110000000 1.0
C      1  0.4630340000000  0.4187660000000  0.4882570000000 1.0
C      1  0.5152270000000  0.4456280000000  0.5251020000000 1.0
C      1  0.5113780000000  0.5587820000000  0.5104690000000 1.0
C      1  0.5085280000000  0.5643030000000  0.4111040000000 1.0
C      1  0.5681130000000  0.5543730000000  0.4470060000000 1.0
C      1  0.4760430000000  0.5231420000000  0.5210330000000 1.0
C      1  0.5417120000000  0.4371920000000  0.5899190000000 1.0
C      1  0.5486080000000  0.5819960000000  0.5713480000000 1.0
C      1  0.4277500000000  0.4694080000000  0.4200950000000 1.0
C      1  0.4208010000000  0.4963010000000  0.3765170000000 1.0
C      1  0.5425580000000  0.4016970000000  0.4385500000000 1.0
C      1  0.4280680000000  0.5404380000000  0.4433640000000 1.0
C      1  0.4311900000000  0.4496050000000  0.4466750000000 1.0
C      1  0.5408310000000  0.4251390000000  0.5624110000000 1.0
C      1  0.5240410000000  0.4840560000000  0.5816120000000 1.0
C      1  0.5924280000000  0.5609960000000  0.5071640000000 1.0
C      1  0.5869150000000  0.5414390000000  0.4797480000000 1.0
C      1  0.5931340000000  0.5056940000000  0.5739880000000 1.0
C      1  0.5376160000000  0.4204460000000  0.4101570000000 1.0
C      1  0.4928770000000  0.5321450000000  0.5734710000000 1.0
C      1  0.5040460000000  0.4312130000000  0.4786240000000 1.0
C      1  0.5723110000000  0.5216950000000  0.4430260000000 1.0
C      1  0.6100030000000  0.5011330000000  0.5502850000000 1.0
C      1  0.4304890000000  0.4258640000000  0.4830320000000 1.0
C      1  0.5483750000000  0.5850780000000  0.5388270000000 1.0
C      1  0.5378800000000  0.5299800000000  0.5373960000000 1.0
C      1  0.4090300000000  0.5276010000000  0.5258820000000 1.0
C      1  0.4484580000000  0.5766850000000  0.5359560000000 1.0
C      1  0.4723090000000  0.4901220000000  0.5973300000000 1.0
C      1  0.5308340000000  0.4791840000000  0.6125230000000 1.0
C      1  0.5180190000000  0.5080550000000  0.6155190000000 1.0
C      1  0.3948780000000  0.5274520000000  0.4961900000000 1.0
C      1  0.6013200000000  0.4772930000000  0.5334550000000 1.0
C      1  0.5853720000000  0.5336710000000  0.5788900000000 1.0
C      1  0.4910500000000  0.6162680000000  0.6437930000000 1.0
C      1  0.5508700000000  0.4888990000000  0.5336530000000 1.0
C      1  0.5139820000000  0.5127760000000  0.4782370000000 1.0
C      1  0.6033600000000  0.4905750000000  0.4683580000000 1.0
C      1  0.5439580000000  0.4339810000000  0.5295070000000 1.0
C      1  0.5756680000000  0.5199110000000  0.5297250000000 1.0
C      1  0.5075900000000  0.5572900000000  0.5622010000000 1.0
C      1  0.3872430000000  0.4813990000000  0.4562580000000 1.0
C      1  0.5251800000000  0.5950910000000  0.4676360000000 1.0
C      1  0.4781710000000  0.4006070000000  0.5097830000000 1.0
C      1  0.4877210000000  0.4866100000000  0.4192980000000 1.0
C      1  0.5478520000000  0.5383320000000  0.5071540000000 1.0
C      1  0.4892330000000  0.5329810000000  0.4258020000000 1.0
C      1  0.5145910000000  0.4403480000000  0.3971500000000 1.0
C      1  0.5531230000000  0.4882000000000  0.4034480000000 1.0
C      1  0.4633910000000  0.4395560000000  0.4413000000000 1.0
C      1  0.4769090000000  0.5456970000000  0.6070570000000 1.0
C      1  0.4964130000000  0.5666420000000  0.5361680000000 1.0
C      1  0.4704560000000  0.5622830000000  0.5150670000000 1.0
C      1  0.5348190000000  0.3894260000000  0.5465380000000 1.0
C      1  0.4976090000000  0.5723520000000  0.4866350000000 1.0
C      1  0.4304990000000  0.5718830000000  0.4188800000000 1.0
C      1  0.4803560000000  0.4171830000000  0.5654950000000 1.0
C      1  0.5414040000000  0.5694180000000  0.5139400000000 1.0
C      1  0.5394380000000  0.5523430000000  0.4034120000000 1.0
C      1  0.4028950000000  0.5032750000000  0.3597250000000 1.0
C      1  0.4147180000000  0.5209940000000  0.4277550000000 1.0
C      1  0.4374960000000  0.5651070000000  0.3933190000000 1.0
C      1  0.4403380000000  0.5610030000000  0.4988090000000 1.0
C      1  0.5611870000000  0.4080650000000  0.5405920000000 1.0
C      1  0.6012450000000  0.4533850000000  0.5103150000000 1.0
C      1  0.5295280000000  0.5280630000000  0.4530110000000 1.0
C      1  0.4658830000000  0.5153470000000  0.6043600000000 1.0
C      1  0.4629480000000  0.5363970000000  0.5705340000000 1.0
C      1  0.4846460000000  0.4312620000000  0.3942170000000 1.0
C      1  0.4526900000000  0.4009270000000  0.4385810000000 1.0
C      1  0.5157630000000  0.4764120000000  0.5128470000000 1.0
C      1  0.4517690000000  0.5752070000000  0.4735630000000 1.0
C      1  0.5500650000000  0.4384780000000  0.4998760000000 1.0
C      1  0.4475170000000  0.5038770000000  0.4995830000000 1.0
C      1  0.4773240000000  0.5938530000000  0.5385430000000 1.0
C      1  0.3876030000000  0.4703200000000  0.4849670000000 1.0
C      1  0.4532390000000  0.4625310000000  0.5604040000000 1.0
C      1  0.5154050000000  0.3953570000000  0.4185170000000 1.0
C      1  0.5004570000000  0.5006270000000  0.3926850000000 1.0
C      1  0.4346220000000  0.4421310000000  0.5760160000000 1.0
C      1  0.5763940000000  0.4200700000000  0.4893640000000 1.0
C      1  0.4868820000000  0.4736110000000  0.5221560000000 1.0
END
