TITL C-2778427-5640-122 4.75476119722365e-05 125000 -340.14465455752 0 0 60 (C1) n - 1
REM
REM in /home/nfs/bkarasulu/CARBON/AIRSS/Generating-Clusters/REBO/Only-C1/SD-CG/HFTN-CG
REM
REM
REM
REM
REM
REM ./C.cell (11c1c37f851c82e70ff6c80c92926a4b)
REM
REM compiler GCC version 9.2.1 20190827 (Red Hat 9.2.1-1)
REM options -cpp -mtune=generic -march=x86-64 -g -O0 -fpre-include=/usr/include/finclude/math-vector-fortran.h
REM seed -2065140440 -831503299 -624725692 1245794345 -1139972442 -315738540 -1076035934 -1866671728 478807614 -1875985401 -950739557 531132377 1205796033 -365592103 1827167214 -968185923 390857296 -1840543777 -466352052 -1823412656 -1580748062 -1922042103 -1665365074 -693484706 1034237024 -1884543532 -727283001 1976378772 -79744666 -837511610 -2060528092 -1127502613 1860594237
REM
CELL 1.54180   50.00000   50.00000   50.00000   90.00000   90.00000   90.00000
LATT -1
SFAC C  
C      1  0.5565080000000  0.4489700000000  0.4656340000000 1.0
C      1  0.4887070000000  0.6469720000000  0.4768180000000 1.0
C      1  0.4768040000000  0.4463570000000  0.5457300000000 1.0
C      1  0.4550020000000  0.4392840000000  0.4681010000000 1.0
C      1  0.4723990000000  0.4190310000000  0.4614160000000 1.0
C      1  0.5308110000000  0.4727700000000  0.5776680000000 1.0
C      1  0.5563580000000  0.5139990000000  0.5721810000000 1.0
C      1  0.4489910000000  0.5082220000000  0.4853160000000 1.0
C      1  0.4542150000000  0.5423830000000  0.5215110000000 1.0
C      1  0.5388790000000  0.5780120000000  0.5164700000000 1.0
C      1  0.4891630000000  0.6226560000000  0.4646980000000 1.0
C      1  0.5264710000000  0.5571440000000  0.5086090000000 1.0
C      1  0.5114180000000  0.5318270000000  0.4990720000000 1.0
C      1  0.4790930000000  0.4964610000000  0.5667140000000 1.0
C      1  0.5087100000000  0.4530230000000  0.4375590000000 1.0
C      1  0.5192330000000  0.5244100000000  0.5955540000000 1.0
C      1  0.4795710000000  0.4385420000000  0.5202360000000 1.0
C      1  0.5040340000000  0.4245520000000  0.4534410000000 1.0
C      1  0.4907850000000  0.3945270000000  0.4534040000000 1.0
C      1  0.5828910000000  0.4764090000000  0.5060650000000 1.0
C      1  0.4857390000000  0.5724010000000  0.4836450000000 1.0
C      1  0.5331470000000  0.4942070000000  0.5329990000000 1.0
C      1  0.4820800000000  0.4635240000000  0.5700450000000 1.0
C      1  0.4557370000000  0.4795200000000  0.5845100000000 1.0
C      1  0.5716640000000  0.5334670000000  0.5819760000000 1.0
C      1  0.5089780000000  0.4579800000000  0.5834980000000 1.0
C      1  0.5580720000000  0.4900220000000  0.5147640000000 1.0
C      1  0.5385430000000  0.4896460000000  0.4888810000000 1.0
C      1  0.5172480000000  0.4648720000000  0.4875300000000 1.0
C      1  0.4871620000000  0.4598280000000  0.5004380000000 1.0
C      1  0.4017790000000  0.4358550000000  0.4589240000000 1.0
C      1  0.5065840000000  0.5133550000000  0.5236280000000 1.0
C      1  0.5256060000000  0.4461580000000  0.4654450000000 1.0
C      1  0.5867260000000  0.5526260000000  0.5916160000000 1.0
C      1  0.4798910000000  0.5002560000000  0.4486520000000 1.0
C      1  0.4699490000000  0.5434090000000  0.5445010000000 1.0
C      1  0.4919670000000  0.6196490000000  0.4367280000000 1.0
C      1  0.5290590000000  0.5160130000000  0.4793090000000 1.0
C      1  0.5404190000000  0.4937250000000  0.5619810000000 1.0
C      1  0.4855470000000  0.5412370000000  0.4834510000000 1.0
C      1  0.5284390000000  0.5200530000000  0.4524240000000 1.0
C      1  0.4893470000000  0.5208540000000  0.5471740000000 1.0
C      1  0.4685340000000  0.5631150000000  0.5637710000000 1.0
C      1  0.4868910000000  0.5984740000000  0.4789040000000 1.0
C      1  0.4915140000000  0.5716180000000  0.4200660000000 1.0
C      1  0.4599630000000  0.5313100000000  0.4966620000000 1.0
C      1  0.4661410000000  0.4630800000000  0.4790220000000 1.0
C      1  0.5107250000000  0.5069750000000  0.4354410000000 1.0
C      1  0.4275540000000  0.4375150000000  0.4633680000000 1.0
C      1  0.4990880000000  0.4779540000000  0.4317560000000 1.0
C      1  0.4725650000000  0.3881450000000  0.5024200000000 1.0
C      1  0.5027710000000  0.5169800000000  0.5774380000000 1.0
C      1  0.5650620000000  0.4701540000000  0.4810700000000 1.0
C      1  0.4937090000000  0.3681800000000  0.4491320000000 1.0
C      1  0.4613550000000  0.4889500000000  0.4690080000000 1.0
C      1  0.4887470000000  0.5488180000000  0.4338900000000 1.0
C      1  0.4852930000000  0.5314510000000  0.4540070000000 1.0
C      1  0.4759710000000  0.4126440000000  0.5110810000000 1.0
C      1  0.4928430000000  0.5985490000000  0.4197220000000 1.0
C      1  0.5075470000000  0.4818820000000  0.5149230000000 1.0
END
