TITL C-2778430-5657-363 -0.140633049893191 125000 -620.071130515968 0 0 109 (C1) n - 1
REM
REM in /home/nfs/bkarasulu/CARBON/AIRSS/Generating-Clusters/REBO/Only-C1/SD-CG/HFTN-CG
REM
REM
REM
REM
REM
REM ./C.cell (11c1c37f851c82e70ff6c80c92926a4b)
REM
REM compiler GCC version 9.2.1 20190827 (Red Hat 9.2.1-1)
REM options -cpp -mtune=generic -march=x86-64 -g -O0 -fpre-include=/usr/include/finclude/math-vector-fortran.h
REM seed 992632113 -52348255 217734016 1248467285 351330318 -285698770 -1263172257 -642659526 1261757451 872489635 -1876658906 1058492558 -1469867184 -58409407 807529479 210253023 61533282 1361854716 1508695753 -679643399 1740581950 589742762 -865354303 -43934985 -629059998 1449838841 1016863173 1216941785 1163905155 -1457687691 -572705729 361607780 1441249351
REM
CELL 1.54180   50.00000   50.00000   50.00000   90.00000   90.00000   90.00000
LATT -1
SFAC C  
C      1  0.4755390000000  0.4377480000000  0.5021810000000 1.0
C      1  0.5296910000000  0.5426700000000  0.4666720000000 1.0
C      1  0.5136430000000  0.4520730000000  0.5342630000000 1.0
C      1  0.5565560000000  0.5510590000000  0.5099000000000 1.0
C      1  0.5510770000000  0.5525810000000  0.5397380000000 1.0
C      1  0.4368150000000  0.4329850000000  0.5093250000000 1.0
C      1  0.4414020000000  0.5083050000000  0.5574250000000 1.0
C      1  0.4593210000000  0.5666360000000  0.5176760000000 1.0
C      1  0.5217250000000  0.4703080000000  0.5768510000000 1.0
C      1  0.5630360000000  0.5301950000000  0.5542830000000 1.0
C      1  0.4353600000000  0.4971820000000  0.4388360000000 1.0
C      1  0.4727300000000  0.5182500000000  0.5796890000000 1.0
C      1  0.4805270000000  0.4134100000000  0.5484210000000 1.0
C      1  0.5927040000000  0.4885650000000  0.5298670000000 1.0
C      1  0.5197690000000  0.4883200000000  0.4702360000000 1.0
C      1  0.4710830000000  0.4842260000000  0.5796300000000 1.0
C      1  0.5767430000000  0.4996580000000  0.4925550000000 1.0
C      1  0.4621490000000  0.5715010000000  0.4845920000000 1.0
C      1  0.5446390000000  0.5723620000000  0.4301630000000 1.0
C      1  0.5338320000000  0.4075170000000  0.5490820000000 1.0
C      1  0.5242860000000  0.5598450000000  0.5486520000000 1.0
C      1  0.5121820000000  0.4244920000000  0.5477420000000 1.0
C      1  0.5382170000000  0.4887530000000  0.4439620000000 1.0
C      1  0.5186690000000  0.5281240000000  0.5252640000000 1.0
C      1  0.4761670000000  0.4784480000000  0.5404910000000 1.0
C      1  0.4334100000000  0.5398170000000  0.5546670000000 1.0
C      1  0.5296910000000  0.4633290000000  0.4144260000000 1.0
C      1  0.4940170000000  0.5064210000000  0.4763230000000 1.0
C      1  0.4813610000000  0.5569430000000  0.5494190000000 1.0
C      1  0.4661900000000  0.4846240000000  0.4388140000000 1.0
C      1  0.4990180000000  0.4924630000000  0.5048780000000 1.0
C      1  0.5445880000000  0.5160210000000  0.5713080000000 1.0
C      1  0.5764480000000  0.4640670000000  0.5181750000000 1.0
C      1  0.4459940000000  0.5215640000000  0.5100120000000 1.0
C      1  0.4652230000000  0.5030680000000  0.4647260000000 1.0
C      1  0.5166010000000  0.4353190000000  0.4043390000000 1.0
C      1  0.4968010000000  0.4612550000000  0.5083260000000 1.0
C      1  0.5171640000000  0.5185470000000  0.5881860000000 1.0
C      1  0.5416410000000  0.5718570000000  0.4911580000000 1.0
C      1  0.4397730000000  0.4639260000000  0.5237080000000 1.0
C      1  0.5360520000000  0.5291280000000  0.4959650000000 1.0
C      1  0.5539160000000  0.4483250000000  0.5351520000000 1.0
C      1  0.5418530000000  0.4686640000000  0.5563230000000 1.0
C      1  0.4440130000000  0.4654990000000  0.4675440000000 1.0
C      1  0.3895660000000  0.5468360000000  0.4581210000000 1.0
C      1  0.5690160000000  0.5383500000000  0.4611810000000 1.0
C      1  0.4914020000000  0.5401840000000  0.5250590000000 1.0
C      1  0.5305290000000  0.4999420000000  0.5127230000000 1.0
C      1  0.5622240000000  0.5107520000000  0.4440690000000 1.0
C      1  0.4373630000000  0.4949360000000  0.4815990000000 1.0
C      1  0.4427460000000  0.5479130000000  0.5261410000000 1.0
C      1  0.5189950000000  0.5062510000000  0.5503930000000 1.0
C      1  0.4987660000000  0.5995120000000  0.4819690000000 1.0
C      1  0.4781440000000  0.5188310000000  0.5104760000000 1.0
C      1  0.4803520000000  0.5893260000000  0.5075860000000 1.0
C      1  0.4781130000000  0.5550640000000  0.4654380000000 1.0
C      1  0.4640400000000  0.4521940000000  0.5516760000000 1.0
C      1  0.5079050000000  0.5670930000000  0.4890930000000 1.0
C      1  0.5001040000000  0.5357100000000  0.4799720000000 1.0
C      1  0.5759520000000  0.5105850000000  0.5383310000000 1.0
C      1  0.5201700000000  0.4925600000000  0.4171610000000 1.0
C      1  0.5407450000000  0.4290790000000  0.5161510000000 1.0
C      1  0.4143420000000  0.4811900000000  0.4308810000000 1.0
C      1  0.5131280000000  0.5383460000000  0.5635320000000 1.0
C      1  0.4026710000000  0.5155670000000  0.5171990000000 1.0
C      1  0.5170600000000  0.5760680000000  0.4302520000000 1.0
C      1  0.5205880000000  0.4134230000000  0.5060090000000 1.0
C      1  0.4971050000000  0.5248660000000  0.4161580000000 1.0
C      1  0.4427000000000  0.4757360000000  0.5621610000000 1.0
C      1  0.5488910000000  0.4575170000000  0.4418720000000 1.0
C      1  0.5042150000000  0.4805160000000  0.5425740000000 1.0
C      1  0.5205230000000  0.4391550000000  0.4369760000000 1.0
C      1  0.4166950000000  0.4829380000000  0.5401570000000 1.0
C      1  0.4210440000000  0.5225910000000  0.4894400000000 1.0
C      1  0.5503320000000  0.4816580000000  0.4836170000000 1.0
C      1  0.5516780000000  0.5399010000000  0.4311070000000 1.0
C      1  0.4244380000000  0.4592940000000  0.4932710000000 1.0
C      1  0.4157900000000  0.5428140000000  0.4666810000000 1.0
C      1  0.5175480000000  0.4592160000000  0.4832010000000 1.0
C      1  0.4136400000000  0.4872850000000  0.5057760000000 1.0
C      1  0.4341870000000  0.5231350000000  0.4494890000000 1.0
C      1  0.5057640000000  0.5605890000000  0.4498450000000 1.0
C      1  0.5532220000000  0.5665190000000  0.4607730000000 1.0
C      1  0.4101010000000  0.5158540000000  0.5478390000000 1.0
C      1  0.4526450000000  0.4951980000000  0.5288650000000 1.0
C      1  0.4528600000000  0.4353220000000  0.4791950000000 1.0
C      1  0.6006570000000  0.5177870000000  0.5041610000000 1.0
C      1  0.5018220000000  0.5779410000000  0.5317240000000 1.0
C      1  0.5270350000000  0.5259590000000  0.4169330000000 1.0
C      1  0.5786530000000  0.4538960000000  0.4887650000000 1.0
C      1  0.4615680000000  0.5335460000000  0.4533540000000 1.0
C      1  0.4913430000000  0.4308870000000  0.5727070000000 1.0
C      1  0.4921340000000  0.4573330000000  0.5806270000000 1.0
C      1  0.5739910000000  0.4878740000000  0.4618320000000 1.0
C      1  0.5528040000000  0.4875210000000  0.5299220000000 1.0
C      1  0.5991920000000  0.4388800000000  0.4687230000000 1.0
C      1  0.5761410000000  0.4565080000000  0.4547110000000 1.0
C      1  0.4323310000000  0.5691820000000  0.4737760000000 1.0
C      1  0.4866980000000  0.4969260000000  0.4201790000000 1.0
C      1  0.4971500000000  0.4352070000000  0.4539670000000 1.0
C      1  0.4663440000000  0.4210680000000  0.4533280000000 1.0
C      1  0.4695560000000  0.4546680000000  0.4484360000000 1.0
C      1  0.5020910000000  0.4290260000000  0.4856050000000 1.0
C      1  0.5467690000000  0.4511450000000  0.4948850000000 1.0
C      1  0.5201460000000  0.5924430000000  0.5076980000000 1.0
C      1  0.4618270000000  0.4291550000000  0.5301520000000 1.0
C      1  0.5754070000000  0.5329480000000  0.4905250000000 1.0
C      1  0.4642940000000  0.5403030000000  0.5653190000000 1.0
C      1  0.5031310000000  0.4939330000000  0.5877170000000 1.0
END
