TITL C-2778433-5640-1200 0.360307305688453 125000 -897.749796739347 0 0 152 (C1) n - 1
REM
REM in /home/nfs/bkarasulu/CARBON/AIRSS/Generating-Clusters/REBO/Only-C1/SD-CG/HFTN-CG
REM
REM
REM
REM
REM
REM ./C.cell (11c1c37f851c82e70ff6c80c92926a4b)
REM
REM compiler GCC version 9.2.1 20190827 (Red Hat 9.2.1-1)
REM options -cpp -mtune=generic -march=x86-64 -g -O0 -fpre-include=/usr/include/finclude/math-vector-fortran.h
REM seed 1241091774 700867063 1824749149 -15680564 -622148512 1783444464 31920258 869456452 -403817495 -2037434938 1952670541 795937322 -1596137494 145605831 142370276 1586498415 504653678 324046022 658713815 1336177088 -1981871933 -1617632470 -1526776599 1375344690 838292380 1501303975 463395715 1987478663 1246319525 863838727 -2081863171 -18479591 -2104411069
REM
CELL 1.54180   50.00000   50.00000   50.00000   90.00000   90.00000   90.00000
LATT -1
SFAC C  
C      1  0.5520790000000  0.5657420000000  0.4384530000000 1.0
C      1  0.4847150000000  0.5905550000000  0.5303440000000 1.0
C      1  0.4875240000000  0.4039040000000  0.4507660000000 1.0
C      1  0.4678900000000  0.4317930000000  0.5295540000000 1.0
C      1  0.4772780000000  0.4997990000000  0.6096800000000 1.0
C      1  0.4645090000000  0.4749600000000  0.4577780000000 1.0
C      1  0.4740970000000  0.5062710000000  0.4609550000000 1.0
C      1  0.5467140000000  0.5729640000000  0.5467440000000 1.0
C      1  0.5490680000000  0.5959700000000  0.4777440000000 1.0
C      1  0.5940250000000  0.4599000000000  0.4757050000000 1.0
C      1  0.4856760000000  0.5462280000000  0.5244750000000 1.0
C      1  0.5040650000000  0.5223380000000  0.5613920000000 1.0
C      1  0.5113930000000  0.6064360000000  0.4857300000000 1.0
C      1  0.5456920000000  0.4055980000000  0.5103700000000 1.0
C      1  0.4168790000000  0.4653570000000  0.5253120000000 1.0
C      1  0.6003080000000  0.4794810000000  0.5242620000000 1.0
C      1  0.4212460000000  0.5672130000000  0.4782180000000 1.0
C      1  0.5296700000000  0.5144600000000  0.4437200000000 1.0
C      1  0.4578630000000  0.6003350000000  0.4890150000000 1.0
C      1  0.5676390000000  0.5563600000000  0.5303880000000 1.0
C      1  0.5092960000000  0.4040390000000  0.5427870000000 1.0
C      1  0.5841410000000  0.4251330000000  0.5349160000000 1.0
C      1  0.4334590000000  0.5806780000000  0.5238560000000 1.0
C      1  0.4633540000000  0.3980540000000  0.4686590000000 1.0
C      1  0.5699680000000  0.5445070000000  0.4923580000000 1.0
C      1  0.5382680000000  0.4377260000000  0.5486890000000 1.0
C      1  0.5236680000000  0.5061200000000  0.5824070000000 1.0
C      1  0.4224550000000  0.5470600000000  0.4584140000000 1.0
C      1  0.5150610000000  0.5866420000000  0.5454700000000 1.0
C      1  0.5470630000000  0.4625130000000  0.4666330000000 1.0
C      1  0.5238390000000  0.4000880000000  0.4849100000000 1.0
C      1  0.5208980000000  0.6024200000000  0.5183360000000 1.0
C      1  0.5303140000000  0.4194990000000  0.4409890000000 1.0
C      1  0.6021170000000  0.5086810000000  0.4628080000000 1.0
C      1  0.4927430000000  0.5035370000000  0.5382480000000 1.0
C      1  0.4965800000000  0.4605280000000  0.5139380000000 1.0
C      1  0.5763470000000  0.4370790000000  0.4746220000000 1.0
C      1  0.5313400000000  0.4468990000000  0.6004830000000 1.0
C      1  0.4241730000000  0.5131970000000  0.4535940000000 1.0
C      1  0.4494280000000  0.5209000000000  0.4717190000000 1.0
C      1  0.4590910000000  0.4600270000000  0.5465420000000 1.0
C      1  0.6017990000000  0.4831210000000  0.4959850000000 1.0
C      1  0.4573850000000  0.3972140000000  0.4958080000000 1.0
C      1  0.5139940000000  0.4274470000000  0.4998980000000 1.0
C      1  0.4680970000000  0.5502330000000  0.5508240000000 1.0
C      1  0.5511150000000  0.4941720000000  0.5934690000000 1.0
C      1  0.5882650000000  0.4544880000000  0.5324970000000 1.0
C      1  0.4321310000000  0.4384160000000  0.4582320000000 1.0
C      1  0.4163590000000  0.4845610000000  0.4588350000000 1.0
C      1  0.5513980000000  0.4339590000000  0.4521620000000 1.0
C      1  0.5415340000000  0.5347770000000  0.5783950000000 1.0
C      1  0.5281130000000  0.5627110000000  0.4603880000000 1.0
C      1  0.5317530000000  0.5085210000000  0.5304150000000 1.0
C      1  0.4924010000000  0.5308800000000  0.3979820000000 1.0
C      1  0.5221820000000  0.5389240000000  0.4073440000000 1.0
C      1  0.5554690000000  0.4836960000000  0.5505750000000 1.0
C      1  0.4925030000000  0.4581090000000  0.4103200000000 1.0
C      1  0.5487440000000  0.4625380000000  0.5008950000000 1.0
C      1  0.5151770000000  0.4016700000000  0.4577220000000 1.0
C      1  0.4972240000000  0.5758280000000  0.4645120000000 1.0
C      1  0.4898700000000  0.5601580000000  0.4938830000000 1.0
C      1  0.5089600000000  0.5387120000000  0.4514220000000 1.0
C      1  0.4176190000000  0.5360860000000  0.5162650000000 1.0
C      1  0.5173400000000  0.4678300000000  0.6113980000000 1.0
C      1  0.4887330000000  0.5170100000000  0.5070770000000 1.0
C      1  0.5364150000000  0.4841890000000  0.4162800000000 1.0
C      1  0.5937640000000  0.5057540000000  0.5356440000000 1.0
C      1  0.4491900000000  0.5044100000000  0.5687070000000 1.0
C      1  0.4394740000000  0.4683640000000  0.5023380000000 1.0
C      1  0.4179170000000  0.5628690000000  0.5068140000000 1.0
C      1  0.5489880000000  0.5644500000000  0.4857850000000 1.0
C      1  0.4014380000000  0.4230200000000  0.5274080000000 1.0
C      1  0.4174150000000  0.4408610000000  0.4834990000000 1.0
C      1  0.4818240000000  0.6030430000000  0.4760790000000 1.0
C      1  0.4641990000000  0.4916290000000  0.5452370000000 1.0
C      1  0.4413040000000  0.4674180000000  0.5815230000000 1.0
C      1  0.5070920000000  0.5748510000000  0.5754740000000 1.0
C      1  0.5092430000000  0.5859950000000  0.4341240000000 1.0
C      1  0.4586430000000  0.4897150000000  0.4149160000000 1.0
C      1  0.5565710000000  0.4156490000000  0.5350420000000 1.0
C      1  0.5227360000000  0.4599980000000  0.4249850000000 1.0
C      1  0.5197920000000  0.5757350000000  0.4972550000000 1.0
C      1  0.5087990000000  0.4572370000000  0.4562640000000 1.0
C      1  0.5573300000000  0.4597340000000  0.5311290000000 1.0
C      1  0.5645990000000  0.4857380000000  0.4564600000000 1.0
C      1  0.5574410000000  0.5224670000000  0.4269300000000 1.0
C      1  0.4649420000000  0.5182210000000  0.5870830000000 1.0
C      1  0.4629510000000  0.5435100000000  0.4918870000000 1.0
C      1  0.4856960000000  0.4442310000000  0.5550440000000 1.0
C      1  0.5823710000000  0.5346690000000  0.4642980000000 1.0
C      1  0.6008410000000  0.5136640000000  0.4928370000000 1.0
C      1  0.5313280000000  0.5193440000000  0.4777600000000 1.0
C      1  0.5321260000000  0.5598910000000  0.5697770000000 1.0
C      1  0.4563940000000  0.4779990000000  0.5978690000000 1.0
C      1  0.4214500000000  0.4268570000000  0.5083450000000 1.0
C      1  0.4196700000000  0.5336640000000  0.5447360000000 1.0
C      1  0.4399000000000  0.5212210000000  0.5034230000000 1.0
C      1  0.5478460000000  0.6112220000000  0.5011530000000 1.0
C      1  0.4510440000000  0.4193570000000  0.4508580000000 1.0
C      1  0.4470070000000  0.4965770000000  0.5177730000000 1.0
C      1  0.5636970000000  0.5089040000000  0.4760890000000 1.0
C      1  0.5273840000000  0.5640050000000  0.4204660000000 1.0
C      1  0.3911380000000  0.4609840000000  0.5202300000000 1.0
C      1  0.5601040000000  0.4929910000000  0.4293730000000 1.0
C      1  0.4605970000000  0.4577720000000  0.4192210000000 1.0
C      1  0.4977850000000  0.5209970000000  0.4783420000000 1.0
C      1  0.4351270000000  0.5919110000000  0.4738130000000 1.0
C      1  0.4884300000000  0.5422920000000  0.4283760000000 1.0
C      1  0.3657760000000  0.4566760000000  0.5152220000000 1.0
C      1  0.5201690000000  0.5049940000000  0.4060380000000 1.0
C      1  0.5133580000000  0.4871370000000  0.5166080000000 1.0
C      1  0.5701210000000  0.5443960000000  0.4385150000000 1.0
C      1  0.4988350000000  0.4210430000000  0.5253320000000 1.0
C      1  0.5077980000000  0.4298760000000  0.4210960000000 1.0
C      1  0.4748900000000  0.4859660000000  0.5072480000000 1.0
C      1  0.4987750000000  0.4251740000000  0.5750230000000 1.0
C      1  0.4866960000000  0.5768810000000  0.5931180000000 1.0
C      1  0.4589320000000  0.5922520000000  0.5168790000000 1.0
C      1  0.5270340000000  0.6024580000000  0.4567310000000 1.0
C      1  0.5245990000000  0.4860030000000  0.5549120000000 1.0
C      1  0.4895350000000  0.4781070000000  0.4374550000000 1.0
C      1  0.4808500000000  0.5367320000000  0.5729400000000 1.0
C      1  0.4758960000000  0.5853410000000  0.4321010000000 1.0
C      1  0.5678300000000  0.5265510000000  0.5714310000000 1.0
C      1  0.4398860000000  0.5524770000000  0.5534790000000 1.0
C      1  0.4749320000000  0.4286210000000  0.4302530000000 1.0
C      1  0.4971590000000  0.4476660000000  0.4824010000000 1.0
C      1  0.5257960000000  0.4311850000000  0.5776230000000 1.0
C      1  0.5471580000000  0.4315320000000  0.4915030000000 1.0
C      1  0.4685270000000  0.4624710000000  0.4856000000000 1.0
C      1  0.5312710000000  0.4890440000000  0.4915120000000 1.0
C      1  0.3826430000000  0.4194150000000  0.5453130000000 1.0
C      1  0.4422060000000  0.5432290000000  0.4348450000000 1.0
C      1  0.5058080000000  0.4914280000000  0.6038490000000 1.0
C      1  0.5118740000000  0.4586490000000  0.5443910000000 1.0
C      1  0.5146860000000  0.5367590000000  0.5345810000000 1.0
C      1  0.5738420000000  0.5040090000000  0.5554980000000 1.0
C      1  0.4871250000000  0.4981790000000  0.4004160000000 1.0
C      1  0.4368450000000  0.4658730000000  0.4482020000000 1.0
C      1  0.5562060000000  0.5169770000000  0.5083550000000 1.0
C      1  0.4651630000000  0.5598010000000  0.4313650000000 1.0
C      1  0.6042370000000  0.4812750000000  0.4561260000000 1.0
C      1  0.4446760000000  0.5116410000000  0.4264960000000 1.0
C      1  0.4727070000000  0.5081420000000  0.6360400000000 1.0
C      1  0.4479160000000  0.4169920000000  0.5134560000000 1.0
C      1  0.4879050000000  0.5107100000000  0.4321240000000 1.0
C      1  0.4286600000000  0.4746160000000  0.5520080000000 1.0
C      1  0.4221140000000  0.5077700000000  0.5565260000000 1.0
C      1  0.5906120000000  0.5344610000000  0.5178040000000 1.0
C      1  0.5247220000000  0.4857660000000  0.4579810000000 1.0
C      1  0.5407570000000  0.5450500000000  0.5193890000000 1.0
C      1  0.4113760000000  0.4712190000000  0.4842800000000 1.0
END
