TITL C-2778433-5640-635 0.00665248585942652 125000 -128.750879229388 0 0 24 (C1) n - 1
REM
REM in /home/nfs/bkarasulu/CARBON/AIRSS/Generating-Clusters/REBO/Only-C1/SD-CG/HFTN-CG
REM
REM
REM
REM
REM
REM ./C.cell (11c1c37f851c82e70ff6c80c92926a4b)
REM
REM compiler GCC version 9.2.1 20190827 (Red Hat 9.2.1-1)
REM options -cpp -mtune=generic -march=x86-64 -g -O0 -fpre-include=/usr/include/finclude/math-vector-fortran.h
REM seed 1968505768 -1418428539 865695605 1621390067 709406884 -1532221803 -1625461850 852347478 -1245261796 -1028960581 749730698 -245731517 -1183253665 -1325781601 -152496798 -828794705 -447958069 1518452842 1089571961 1111450596 -1696384892 1291921388 1811408297 -763946504 -2123668960 -692072460 -795809780 -211225139 1392516484 -783894008 -1255158342 -879181621 -1719429616
REM
CELL 1.54180   50.00000   50.00000   50.00000   90.00000   90.00000   90.00000
LATT -1
SFAC C  
C      1  0.5788920000000  0.4975540000000  0.6136300000000 1.0
C      1  0.5530140000000  0.5016250000000  0.5677440000000 1.0
C      1  0.5660570000000  0.4995730000000  0.5908710000000 1.0
C      1  0.4372080000000  0.5660280000000  0.4491730000000 1.0
C      1  0.4754070000000  0.5019900000000  0.4526540000000 1.0
C      1  0.4434260000000  0.4695480000000  0.4671870000000 1.0
C      1  0.4837470000000  0.5410780000000  0.4510470000000 1.0
C      1  0.5359720000000  0.5237810000000  0.5005050000000 1.0
C      1  0.4726550000000  0.4516730000000  0.5442530000000 1.0
C      1  0.5399700000000  0.5036770000000  0.5446160000000 1.0
C      1  0.5083730000000  0.5278750000000  0.4520390000000 1.0
C      1  0.4820860000000  0.4690790000000  0.5250660000000 1.0
C      1  0.5583390000000  0.5386170000000  0.5052690000000 1.0
C      1  0.5262770000000  0.5058310000000  0.5203360000000 1.0
C      1  0.4602910000000  0.5536530000000  0.4501020000000 1.0
C      1  0.5192010000000  0.5167190000000  0.4288000000000 1.0
C      1  0.4663610000000  0.4848730000000  0.4718610000000 1.0
C      1  0.4857810000000  0.4493310000000  0.5680530000000 1.0
C      1  0.5293500000000  0.5062620000000  0.4070180000000 1.0
C      1  0.4502560000000  0.4369020000000  0.5393160000000 1.0
C      1  0.4795520000000  0.4824370000000  0.4959340000000 1.0
C      1  0.5221720000000  0.5258280000000  0.4762710000000 1.0
C      1  0.5036710000000  0.4908760000000  0.5154450000000 1.0
C      1  0.4219420000000  0.4551920000000  0.4628090000000 1.0
END
