TITL C-2778422-5617-1418 -0.000298204576982552 125000 -320.65518734176 0 0 58 (C1) n - 1
REM
REM in /home/nfs/bkarasulu/CARBON/AIRSS/Generating-Clusters/REBO/Only-C1/SD-CG/HFTN-CG
REM
REM
REM
REM
REM
REM ./C.cell (11c1c37f851c82e70ff6c80c92926a4b)
REM
REM compiler GCC version 9.2.1 20190827 (Red Hat 9.2.1-1)
REM options -cpp -mtune=generic -march=x86-64 -g -O0 -fpre-include=/usr/include/finclude/math-vector-fortran.h
REM seed -308462611 1524492695 23893266 -2048753030 -1863127770 1463990358 -699149779 -1445551974 394123446 -1105725398 -1366032195 1678415180 -1695037478 772464007 -989283385 1553072913 1284436047 -1604048636 551842116 1063376036 -2138140094 -1441176086 131446651 1197896695 710896090 -1043425926 1984592269 433472432 -849559668 1122154925 -709699837 1182873935 1915990576
REM
CELL 1.54180   50.00000   50.00000   50.00000   90.00000   90.00000   90.00000
LATT -1
SFAC C  
C      1  0.4503160000000  0.4545610000000  0.5025940000000 1.0
C      1  0.5736910000000  0.4708420000000  0.5120090000000 1.0
C      1  0.5042720000000  0.5132330000000  0.4360540000000 1.0
C      1  0.5068090000000  0.4905630000000  0.4726300000000 1.0
C      1  0.4499220000000  0.5518710000000  0.5376370000000 1.0
C      1  0.5094700000000  0.4314990000000  0.4990150000000 1.0
C      1  0.5466540000000  0.4630640000000  0.4932470000000 1.0
C      1  0.5225300000000  0.5682150000000  0.4889180000000 1.0
C      1  0.4598230000000  0.4648410000000  0.4713570000000 1.0
C      1  0.4925650000000  0.5122610000000  0.5524230000000 1.0
C      1  0.4760650000000  0.5342490000000  0.4773590000000 1.0
C      1  0.4901220000000  0.4645730000000  0.5502010000000 1.0
C      1  0.4594970000000  0.5045260000000  0.5043030000000 1.0
C      1  0.4730830000000  0.5222220000000  0.4462210000000 1.0
C      1  0.4211300000000  0.4715000000000  0.4978990000000 1.0
C      1  0.5766420000000  0.4468010000000  0.4916410000000 1.0
C      1  0.4272560000000  0.5257400000000  0.4941440000000 1.0
C      1  0.4364420000000  0.5180580000000  0.5210840000000 1.0
C      1  0.4838370000000  0.4737060000000  0.4557700000000 1.0
C      1  0.4503350000000  0.4953990000000  0.5647830000000 1.0
C      1  0.5095930000000  0.4862880000000  0.4267850000000 1.0
C      1  0.5188570000000  0.4607720000000  0.5406090000000 1.0
C      1  0.4687110000000  0.4387740000000  0.5485460000000 1.0
C      1  0.5109430000000  0.5870520000000  0.5216500000000 1.0
C      1  0.4927370000000  0.5307760000000  0.5260960000000 1.0
C      1  0.4644970000000  0.4334560000000  0.4810490000000 1.0
C      1  0.4854000000000  0.4901170000000  0.5199190000000 1.0
C      1  0.4712030000000  0.5608100000000  0.4929840000000 1.0
C      1  0.5438630000000  0.5416670000000  0.5277090000000 1.0
C      1  0.4426660000000  0.4884120000000  0.4828030000000 1.0
C      1  0.5220380000000  0.5410620000000  0.4750690000000 1.0
C      1  0.4476940000000  0.5191090000000  0.4690110000000 1.0
C      1  0.5207090000000  0.4652230000000  0.4433910000000 1.0
C      1  0.5748350000000  0.5108070000000  0.5125000000000 1.0
C      1  0.4345180000000  0.5099850000000  0.5476430000000 1.0
C      1  0.5610440000000  0.5108180000000  0.4894410000000 1.0
C      1  0.5265390000000  0.5232050000000  0.4497000000000 1.0
C      1  0.5007340000000  0.4454020000000  0.4535620000000 1.0
C      1  0.4680000000000  0.4614010000000  0.5247640000000 1.0
C      1  0.4700240000000  0.5473120000000  0.5208600000000 1.0
C      1  0.5181280000000  0.5336830000000  0.5085270000000 1.0
C      1  0.5477110000000  0.5038770000000  0.4524830000000 1.0
C      1  0.5376370000000  0.4771040000000  0.4678570000000 1.0
C      1  0.5371950000000  0.5688900000000  0.5171420000000 1.0
C      1  0.5404660000000  0.4522550000000  0.5655870000000 1.0
C      1  0.5244230000000  0.4507440000000  0.5112890000000 1.0
C      1  0.5743690000000  0.5127870000000  0.4625620000000 1.0
C      1  0.5437030000000  0.5120330000000  0.5375470000000 1.0
C      1  0.4927610000000  0.4288570000000  0.4760290000000 1.0
C      1  0.4474130000000  0.5738300000000  0.4851920000000 1.0
C      1  0.4708560000000  0.4919200000000  0.4339480000000 1.0
C      1  0.4949110000000  0.5799040000000  0.4949570000000 1.0
C      1  0.5299330000000  0.5109460000000  0.4875510000000 1.0
C      1  0.5426040000000  0.4815150000000  0.5526210000000 1.0
C      1  0.5149230000000  0.5017390000000  0.5321760000000 1.0
C      1  0.4781570000000  0.4907370000000  0.5625980000000 1.0
C      1  0.5693370000000  0.4896500000000  0.5361170000000 1.0
C      1  0.4904060000000  0.5093550000000  0.4924370000000 1.0
END
