TITL C-2778424-3986-1106 -0.000761734561135867 125000 -748.580653024477 0 0 132 (C1) n - 1
REM
REM in /home/nfs/bkarasulu/CARBON/AIRSS/Generating-Clusters/REBO/Only-C1/SD-CG/HFTN-CG
REM
REM
REM
REM
REM
REM ./C.cell (11c1c37f851c82e70ff6c80c92926a4b)
REM
REM compiler GCC version 9.2.1 20190827 (Red Hat 9.2.1-1)
REM options -cpp -mtune=generic -march=x86-64 -g -O0 -fpre-include=/usr/include/finclude/math-vector-fortran.h
REM seed -1909449033 -1040606887 171788947 1346893792 -1855088424 -813786274 1131929419 -1505404853 1639740726 -1689382684 2147280 156563369 1303918352 -356233883 -738883523 -247749143 1876444530 -2075705394 1959392418 -857805551 -2124165917 -1526810898 -1845645754 -803994566 300808607 1701118122 -1685457141 832481557 -607975856 639780027 -956177833 -1250433819 852962631
REM
CELL 1.54180   50.00000   50.00000   50.00000   90.00000   90.00000   90.00000
LATT -1
SFAC C  
C      1  0.4997460000000  0.4998970000000  0.5372500000000 1.0
C      1  0.4994040000000  0.4312930000000  0.5667680000000 1.0
C      1  0.4733360000000  0.4231920000000  0.5494320000000 1.0
C      1  0.5147660000000  0.4629630000000  0.5366080000000 1.0
C      1  0.4180310000000  0.5232910000000  0.4673330000000 1.0
C      1  0.4310530000000  0.4383790000000  0.5276070000000 1.0
C      1  0.3957960000000  0.5068770000000  0.4962370000000 1.0
C      1  0.5571040000000  0.5483440000000  0.4830720000000 1.0
C      1  0.5272750000000  0.4584350000000  0.5051140000000 1.0
C      1  0.5485560000000  0.4891960000000  0.4682460000000 1.0
C      1  0.5042100000000  0.4989330000000  0.4761020000000 1.0
C      1  0.5640890000000  0.4591890000000  0.4665150000000 1.0
C      1  0.5139600000000  0.5271990000000  0.5439090000000 1.0
C      1  0.5044880000000  0.5596890000000  0.4216290000000 1.0
C      1  0.4611000000000  0.5035820000000  0.5860580000000 1.0
C      1  0.4573460000000  0.5506570000000  0.4448200000000 1.0
C      1  0.4016170000000  0.4860910000000  0.4713820000000 1.0
C      1  0.4593390000000  0.4383440000000  0.4659120000000 1.0
C      1  0.4811690000000  0.5644570000000  0.5258810000000 1.0
C      1  0.5275400000000  0.4274360000000  0.5503010000000 1.0
C      1  0.4751450000000  0.5320860000000  0.4879370000000 1.0
C      1  0.4851290000000  0.5714220000000  0.4470640000000 1.0
C      1  0.4834870000000  0.4509550000000  0.5296860000000 1.0
C      1  0.5927000000000  0.5109670000000  0.4715060000000 1.0
C      1  0.4576900000000  0.5786810000000  0.4637450000000 1.0
C      1  0.5371970000000  0.4053820000000  0.5050060000000 1.0
C      1  0.5321820000000  0.5632710000000  0.4412740000000 1.0
C      1  0.4428070000000  0.5175390000000  0.5185980000000 1.0
C      1  0.5084160000000  0.4933380000000  0.5980210000000 1.0
C      1  0.5354190000000  0.5241230000000  0.4825600000000 1.0
C      1  0.5667500000000  0.5178290000000  0.4250140000000 1.0
C      1  0.5194880000000  0.5923990000000  0.4867520000000 1.0
C      1  0.4756330000000  0.5773490000000  0.5543800000000 1.0
C      1  0.5761210000000  0.4977120000000  0.4493350000000 1.0
C      1  0.5296150000000  0.4738300000000  0.5949540000000 1.0
C      1  0.5738930000000  0.4375520000000  0.5204210000000 1.0
C      1  0.5057880000000  0.5681770000000  0.5038730000000 1.0
C      1  0.5352770000000  0.4419330000000  0.4597480000000 1.0
C      1  0.4317650000000  0.4482830000000  0.4634930000000 1.0
C      1  0.5203200000000  0.5013840000000  0.4269740000000 1.0
C      1  0.4074500000000  0.5975560000000  0.5105630000000 1.0
C      1  0.4458830000000  0.4850760000000  0.4279730000000 1.0
C      1  0.4570190000000  0.4650140000000  0.5134260000000 1.0
C      1  0.4223800000000  0.4988330000000  0.5523920000000 1.0
C      1  0.5797930000000  0.5083810000000  0.5030160000000 1.0
C      1  0.5622430000000  0.4170560000000  0.4997840000000 1.0
C      1  0.4387530000000  0.4141720000000  0.5142190000000 1.0
C      1  0.4717870000000  0.5518930000000  0.4155480000000 1.0
C      1  0.5003100000000  0.4793190000000  0.4184270000000 1.0
C      1  0.5652990000000  0.5036090000000  0.5627980000000 1.0
C      1  0.5159300000000  0.4606360000000  0.5689970000000 1.0
C      1  0.4874140000000  0.4207470000000  0.4747620000000 1.0
C      1  0.4678160000000  0.5197720000000  0.5493750000000 1.0
C      1  0.5075500000000  0.5526160000000  0.4605770000000 1.0
C      1  0.5430480000000  0.5752050000000  0.4692380000000 1.0
C      1  0.5316790000000  0.4966360000000  0.5623760000000 1.0
C      1  0.4457610000000  0.5091610000000  0.4099600000000 1.0
C      1  0.5103820000000  0.4241270000000  0.4491600000000 1.0
C      1  0.4228900000000  0.4746000000000  0.4481810000000 1.0
C      1  0.5133880000000  0.4895580000000  0.5074900000000 1.0
C      1  0.4705850000000  0.5221820000000  0.4064590000000 1.0
C      1  0.5628110000000  0.4267250000000  0.4728840000000 1.0
C      1  0.5437150000000  0.5214600000000  0.5331360000000 1.0
C      1  0.5132910000000  0.4347790000000  0.4922290000000 1.0
C      1  0.5402220000000  0.4870880000000  0.5297520000000 1.0
C      1  0.5498290000000  0.5399340000000  0.4332270000000 1.0
C      1  0.5579700000000  0.5852750000000  0.4981720000000 1.0
C      1  0.5165450000000  0.5238460000000  0.5761180000000 1.0
C      1  0.4330270000000  0.5059620000000  0.5810570000000 1.0
C      1  0.4612940000000  0.5442020000000  0.5157390000000 1.0
C      1  0.4921780000000  0.4237050000000  0.5143150000000 1.0
C      1  0.5834190000000  0.5396460000000  0.4752230000000 1.0
C      1  0.5564280000000  0.4572800000000  0.4987980000000 1.0
C      1  0.5537440000000  0.4729580000000  0.5724770000000 1.0
C      1  0.5474260000000  0.5328710000000  0.5650180000000 1.0
C      1  0.4784730000000  0.5637240000000  0.4856760000000 1.0
C      1  0.4681920000000  0.4079230000000  0.4983490000000 1.0
C      1  0.6063200000000  0.4891090000000  0.4936520000000 1.0
C      1  0.4971110000000  0.5210870000000  0.4557580000000 1.0
C      1  0.5203350000000  0.5730600000000  0.5663080000000 1.0
C      1  0.5507490000000  0.5009450000000  0.4996070000000 1.0
C      1  0.4638940000000  0.4008060000000  0.5308840000000 1.0
C      1  0.4857190000000  0.5969440000000  0.4855020000000 1.0
C      1  0.4837570000000  0.4602720000000  0.5753830000000 1.0
C      1  0.5212240000000  0.4037520000000  0.4794470000000 1.0
C      1  0.4587750000000  0.4672530000000  0.5586580000000 1.0
C      1  0.4766010000000  0.4568830000000  0.4880000000000 1.0
C      1  0.4098600000000  0.4933530000000  0.5244290000000 1.0
C      1  0.5005720000000  0.5258200000000  0.4222200000000 1.0
C      1  0.5208440000000  0.4713710000000  0.4650060000000 1.0
C      1  0.5781180000000  0.5738730000000  0.5134720000000 1.0
C      1  0.5505480000000  0.5451070000000  0.5130040000000 1.0
C      1  0.5148790000000  0.4573160000000  0.4080450000000 1.0
C      1  0.5929170000000  0.4870940000000  0.5254240000000 1.0
C      1  0.4490840000000  0.4435120000000  0.5485540000000 1.0
C      1  0.4146680000000  0.5297990000000  0.4415780000000 1.0
C      1  0.4841870000000  0.5330640000000  0.5727580000000 1.0
C      1  0.4233450000000  0.5257590000000  0.4159090000000 1.0
C      1  0.4465980000000  0.4827190000000  0.4854310000000 1.0
C      1  0.5079220000000  0.5572160000000  0.5420880000000 1.0
C      1  0.4803000000000  0.4363840000000  0.4391870000000 1.0
C      1  0.5456280000000  0.4589670000000  0.4178170000000 1.0
C      1  0.5515860000000  0.4874430000000  0.4274610000000 1.0
C      1  0.4921620000000  0.4602470000000  0.4605020000000 1.0
C      1  0.4784040000000  0.5630180000000  0.5748910000000 1.0
C      1  0.5718370000000  0.5518610000000  0.5386230000000 1.0
C      1  0.4293440000000  0.5060810000000  0.4920150000000 1.0
C      1  0.4305420000000  0.5548610000000  0.5138310000000 1.0
C      1  0.4646690000000  0.5234000000000  0.4595480000000 1.0
C      1  0.4868650000000  0.5143160000000  0.6010400000000 1.0
C      1  0.4133000000000  0.4607710000000  0.4840540000000 1.0
C      1  0.5364210000000  0.5158340000000  0.4510150000000 1.0
C      1  0.5831680000000  0.5243900000000  0.5494590000000 1.0
C      1  0.4228720000000  0.4655540000000  0.5126390000000 1.0
C      1  0.5901320000000  0.4613780000000  0.5033930000000 1.0
C      1  0.5345980000000  0.5968290000000  0.5153900000000 1.0
C      1  0.5497880000000  0.4455180000000  0.5543470000000 1.0
C      1  0.4297360000000  0.5823990000000  0.5066370000000 1.0
C      1  0.4563810000000  0.4942890000000  0.4576350000000 1.0
C      1  0.4765980000000  0.4759690000000  0.4374840000000 1.0
C      1  0.4526050000000  0.5931780000000  0.4925630000000 1.0
C      1  0.5369130000000  0.5694380000000  0.5303970000000 1.0
C      1  0.4774500000000  0.4909990000000  0.4914420000000 1.0
C      1  0.4521770000000  0.4927090000000  0.5487580000000 1.0
C      1  0.4885520000000  0.4919840000000  0.5684760000000 1.0
C      1  0.5085830000000  0.5378770000000  0.4900710000000 1.0
C      1  0.5504650000000  0.5648360000000  0.5615770000000 1.0
C      1  0.4102980000000  0.5279860000000  0.5190430000000 1.0
C      1  0.5210840000000  0.4147860000000  0.5259540000000 1.0
C      1  0.5676260000000  0.4676780000000  0.5355950000000 1.0
C      1  0.5272130000000  0.4316350000000  0.4223470000000 1.0
C      1  0.4740050000000  0.5060890000000  0.5182820000000 1.0
END
