TITL C-2778433-5640-617 0.000297686960477989 125000 -317.542484836274 0 0 56 (C1) n - 1
REM
REM in /home/nfs/bkarasulu/CARBON/AIRSS/Generating-Clusters/REBO/Only-C1/SD-CG/HFTN-CG
REM
REM
REM
REM
REM
REM ./C.cell (11c1c37f851c82e70ff6c80c92926a4b)
REM
REM compiler GCC version 9.2.1 20190827 (Red Hat 9.2.1-1)
REM options -cpp -mtune=generic -march=x86-64 -g -O0 -fpre-include=/usr/include/finclude/math-vector-fortran.h
REM seed -46336006 1474365580 -987012482 1216203959 -1646764177 879830102 -1274965706 2082298019 242247013 -761481551 1601992608 1465760749 1983190746 781994262 701837013 323965345 -2023654355 -1537510379 663148835 -1291432618 407442995 -763520383 -2031276810 277261065 -1646944014 -1966223795 1121123313 -36527558 -553048928 -1249302587 -1990533163 -698444465 1460193856
REM
CELL 1.54180   50.00000   50.00000   50.00000   90.00000   90.00000   90.00000
LATT -1
SFAC C  
C      1  0.5327270000000  0.5498650000000  0.4487250000000 1.0
C      1  0.4999110000000  0.4920290000000  0.5112650000000 1.0
C      1  0.5670440000000  0.5226950000000  0.4811190000000 1.0
C      1  0.5009650000000  0.5646310000000  0.4644940000000 1.0
C      1  0.5270940000000  0.4797690000000  0.4962030000000 1.0
C      1  0.4641500000000  0.5287680000000  0.5517660000000 1.0
C      1  0.5082830000000  0.5353750000000  0.5622780000000 1.0
C      1  0.4867150000000  0.5434780000000  0.5454210000000 1.0
C      1  0.4387980000000  0.5340590000000  0.4500270000000 1.0
C      1  0.5599460000000  0.5503330000000  0.4852120000000 1.0
C      1  0.4597190000000  0.4879810000000  0.5891140000000 1.0
C      1  0.5583770000000  0.4508230000000  0.5167180000000 1.0
C      1  0.5162910000000  0.5028040000000  0.4764840000000 1.0
C      1  0.5128140000000  0.4426440000000  0.4607220000000 1.0
C      1  0.5288600000000  0.5219130000000  0.4501520000000 1.0
C      1  0.4954480000000  0.5214260000000  0.4946300000000 1.0
C      1  0.4676730000000  0.4613650000000  0.4588260000000 1.0
C      1  0.3860300000000  0.5338760000000  0.4527230000000 1.0
C      1  0.5537510000000  0.5069730000000  0.4612740000000 1.0
C      1  0.5467890000000  0.5534870000000  0.5106640000000 1.0
C      1  0.5284940000000  0.4459380000000  0.5233570000000 1.0
C      1  0.5365180000000  0.5378100000000  0.5557580000000 1.0
C      1  0.4476520000000  0.4320910000000  0.5234710000000 1.0
C      1  0.4813900000000  0.5256050000000  0.4261650000000 1.0
C      1  0.5557270000000  0.5287620000000  0.5290790000000 1.0
C      1  0.5653610000000  0.4563480000000  0.4844280000000 1.0
C      1  0.5546870000000  0.4799430000000  0.4623750000000 1.0
C      1  0.4570150000000  0.4918410000000  0.5383650000000 1.0
C      1  0.4677700000000  0.5498780000000  0.4985840000000 1.0
C      1  0.5673200000000  0.5099210000000  0.5067470000000 1.0
C      1  0.4987270000000  0.4465120000000  0.5473240000000 1.0
C      1  0.4271950000000  0.5281940000000  0.5190320000000 1.0
C      1  0.4724180000000  0.4771140000000  0.5167830000000 1.0
C      1  0.5234990000000  0.4914690000000  0.5582920000000 1.0
C      1  0.4424560000000  0.5464530000000  0.5059900000000 1.0
C      1  0.4122020000000  0.5339670000000  0.4513860000000 1.0
C      1  0.4830310000000  0.5437570000000  0.4718220000000 1.0
C      1  0.5436170000000  0.4496420000000  0.4594660000000 1.0
C      1  0.4995590000000  0.4284640000000  0.5183930000000 1.0
C      1  0.4586220000000  0.4671110000000  0.4896790000000 1.0
C      1  0.5145870000000  0.4740070000000  0.5361870000000 1.0
C      1  0.5212090000000  0.5622170000000  0.5136240000000 1.0
C      1  0.5464240000000  0.5078700000000  0.5538420000000 1.0
C      1  0.4707660000000  0.4447270000000  0.5203970000000 1.0
C      1  0.4660830000000  0.4372140000000  0.4797960000000 1.0
C      1  0.4940980000000  0.5474950000000  0.5166090000000 1.0
C      1  0.4664220000000  0.5341550000000  0.4486150000000 1.0
C      1  0.5577530000000  0.4824220000000  0.5053400000000 1.0
C      1  0.5055400000000  0.5114620000000  0.4289900000000 1.0
C      1  0.4947480000000  0.4278980000000  0.4856470000000 1.0
C      1  0.4345140000000  0.5052990000000  0.5316360000000 1.0
C      1  0.5203130000000  0.4495790000000  0.4918570000000 1.0
C      1  0.4709100000000  0.4993770000000  0.5664320000000 1.0
C      1  0.5054460000000  0.4897840000000  0.4490630000000 1.0
C      1  0.5020530000000  0.5071710000000  0.5687130000000 1.0
C      1  0.4944890000000  0.4642110000000  0.4489380000000 1.0
END
