TITL C-2778425-5191-677 0.000403651540911301 125000 -533.396788706363 0 0 92 (C1) n - 1
REM
REM in /home/nfs/bkarasulu/CARBON/AIRSS/Generating-Clusters/REBO/Only-C1/SD-CG/HFTN-CG
REM
REM
REM
REM
REM
REM ./C.cell (11c1c37f851c82e70ff6c80c92926a4b)
REM
REM compiler GCC version 9.2.1 20190827 (Red Hat 9.2.1-1)
REM options -cpp -mtune=generic -march=x86-64 -g -O0 -fpre-include=/usr/include/finclude/math-vector-fortran.h
REM seed 505891730 -1469051449 -228402405 1119027260 -1671038393 119394807 23185292 -861810052 -289236949 -123103632 -1781425611 1518754502 2024776987 -56636096 2111023483 1072847966 256656929 661997211 -783094147 -142009773 2076375610 332480678 1456635642 -1740735399 1478944204 2098735933 -663770723 -891383583 1220571872 -892165299 554885552 -1803308781 372716844
REM
CELL 1.54180   50.00000   50.00000   50.00000   90.00000   90.00000   90.00000
LATT -1
SFAC C  
C      1  0.5077080000000  0.5879650000000  0.5232420000000 1.0
C      1  0.5410130000000  0.4782290000000  0.5371440000000 1.0
C      1  0.5466580000000  0.5564010000000  0.4975640000000 1.0
C      1  0.5752990000000  0.4629000000000  0.4695110000000 1.0
C      1  0.4697390000000  0.5457160000000  0.5259830000000 1.0
C      1  0.4515100000000  0.5706130000000  0.5197670000000 1.0
C      1  0.5399050000000  0.5331370000000  0.5538060000000 1.0
C      1  0.4366800000000  0.5988170000000  0.5200980000000 1.0
C      1  0.4680710000000  0.4905370000000  0.4208400000000 1.0
C      1  0.4977690000000  0.4654850000000  0.5121280000000 1.0
C      1  0.5119400000000  0.4206270000000  0.4965070000000 1.0
C      1  0.5642070000000  0.4387830000000  0.5582180000000 1.0
C      1  0.5292720000000  0.4737620000000  0.5676740000000 1.0
C      1  0.5288970000000  0.5269380000000  0.5799100000000 1.0
C      1  0.4628040000000  0.4807810000000  0.4508840000000 1.0
C      1  0.4367880000000  0.4340100000000  0.5126690000000 1.0
C      1  0.4938420000000  0.5083900000000  0.5468760000000 1.0
C      1  0.4874410000000  0.5526560000000  0.5735930000000 1.0
C      1  0.4966820000000  0.5799690000000  0.4605590000000 1.0
C      1  0.5461810000000  0.4331440000000  0.5368950000000 1.0
C      1  0.5023950000000  0.5175330000000  0.5090660000000 1.0
C      1  0.4494270000000  0.5882410000000  0.4903930000000 1.0
C      1  0.5723220000000  0.4700660000000  0.4982330000000 1.0
C      1  0.5689090000000  0.5178890000000  0.4488920000000 1.0
C      1  0.4480660000000  0.5666890000000  0.4477770000000 1.0
C      1  0.4761400000000  0.4402120000000  0.4464890000000 1.0
C      1  0.4327730000000  0.4808760000000  0.4967070000000 1.0
C      1  0.4361880000000  0.4745770000000  0.4638640000000 1.0
C      1  0.5280590000000  0.4662100000000  0.4417330000000 1.0
C      1  0.5213740000000  0.5368310000000  0.4317550000000 1.0
C      1  0.4892520000000  0.5638640000000  0.5086230000000 1.0
C      1  0.5189300000000  0.4576440000000  0.4668340000000 1.0
C      1  0.5750660000000  0.5162700000000  0.4799390000000 1.0
C      1  0.5056430000000  0.4523870000000  0.5603720000000 1.0
C      1  0.5358110000000  0.4923470000000  0.4855770000000 1.0
C      1  0.4385780000000  0.4449820000000  0.4805340000000 1.0
C      1  0.4685480000000  0.4261450000000  0.5228100000000 1.0
C      1  0.5038060000000  0.5194690000000  0.5887430000000 1.0
C      1  0.4233330000000  0.4819850000000  0.5242950000000 1.0
C      1  0.5539510000000  0.4955150000000  0.4334900000000 1.0
C      1  0.4865600000000  0.5009860000000  0.4833790000000 1.0
C      1  0.5215980000000  0.5394430000000  0.4714610000000 1.0
C      1  0.4648650000000  0.4336450000000  0.4732670000000 1.0
C      1  0.4892530000000  0.5329960000000  0.4428110000000 1.0
C      1  0.4259800000000  0.4518480000000  0.5375270000000 1.0
C      1  0.5149900000000  0.5617700000000  0.4531270000000 1.0
C      1  0.5135000000000  0.5858750000000  0.5501960000000 1.0
C      1  0.5761430000000  0.5082410000000  0.5297210000000 1.0
C      1  0.4519160000000  0.5262390000000  0.4792560000000 1.0
C      1  0.5306180000000  0.4401020000000  0.4866600000000 1.0
C      1  0.4359260000000  0.4854350000000  0.5560630000000 1.0
C      1  0.4733980000000  0.5172900000000  0.4189410000000 1.0
C      1  0.5516110000000  0.5438610000000  0.4457120000000 1.0
C      1  0.4382990000000  0.5855150000000  0.4616670000000 1.0
C      1  0.4256610000000  0.5050440000000  0.4749230000000 1.0
C      1  0.4590420000000  0.4591350000000  0.5171100000000 1.0
C      1  0.5133640000000  0.5346070000000  0.5360990000000 1.0
C      1  0.4758900000000  0.5716550000000  0.4829470000000 1.0
C      1  0.4735680000000  0.5335010000000  0.5541660000000 1.0
C      1  0.5012850000000  0.4172380000000  0.5257040000000 1.0
C      1  0.5550050000000  0.4628220000000  0.4286240000000 1.0
C      1  0.4286170000000  0.5128160000000  0.5377970000000 1.0
C      1  0.4851670000000  0.4379470000000  0.4960470000000 1.0
C      1  0.4659520000000  0.4753940000000  0.4903610000000 1.0
C      1  0.4627590000000  0.5200680000000  0.5106660000000 1.0
C      1  0.5691110000000  0.4871950000000  0.5477340000000 1.0
C      1  0.5283380000000  0.5078050000000  0.4219100000000 1.0
C      1  0.4884810000000  0.4648580000000  0.4668810000000 1.0
C      1  0.5608680000000  0.5448300000000  0.4766780000000 1.0
C      1  0.5770130000000  0.4987530000000  0.5025040000000 1.0
C      1  0.5276020000000  0.4732910000000  0.5086970000000 1.0
C      1  0.5612450000000  0.4651900000000  0.5685870000000 1.0
C      1  0.5230450000000  0.5167480000000  0.4866740000000 1.0
C      1  0.5107630000000  0.5594450000000  0.5596840000000 1.0
C      1  0.4807920000000  0.4436880000000  0.4190610000000 1.0
C      1  0.5541590000000  0.4849510000000  0.4658600000000 1.0
C      1  0.4901890000000  0.5018870000000  0.4519890000000 1.0
C      1  0.4815570000000  0.4598550000000  0.5420190000000 1.0
C      1  0.5504180000000  0.4496130000000  0.5108460000000 1.0
C      1  0.5219740000000  0.5586090000000  0.5078100000000 1.0
C      1  0.4302300000000  0.5196710000000  0.5054310000000 1.0
C      1  0.4817310000000  0.4940120000000  0.5215210000000 1.0
C      1  0.4679310000000  0.5458830000000  0.4623350000000 1.0
C      1  0.4525330000000  0.4584880000000  0.5564670000000 1.0
C      1  0.4989900000000  0.4852420000000  0.5686760000000 1.0
C      1  0.4507990000000  0.5135170000000  0.5638880000000 1.0
C      1  0.4869170000000  0.4700110000000  0.4100760000000 1.0
C      1  0.5753780000000  0.4498870000000  0.4440510000000 1.0
C      1  0.5185080000000  0.4291310000000  0.5446290000000 1.0
C      1  0.4777880000000  0.5065800000000  0.5832390000000 1.0
C      1  0.5644370000000  0.5325640000000  0.5393930000000 1.0
C      1  0.5072620000000  0.4862330000000  0.4291340000000 1.0
END
