TITL C-2778428-5639-501 0.00262224103513663 125000 -403.114290044357 0 0 71 (C1) n - 1
REM
REM in /home/nfs/bkarasulu/CARBON/AIRSS/Generating-Clusters/REBO/Only-C1/SD-CG/HFTN-CG
REM
REM
REM
REM
REM
REM ./C.cell (11c1c37f851c82e70ff6c80c92926a4b)
REM
REM compiler GCC version 9.2.1 20190827 (Red Hat 9.2.1-1)
REM options -cpp -mtune=generic -march=x86-64 -g -O0 -fpre-include=/usr/include/finclude/math-vector-fortran.h
REM seed 1372856198 -1864174187 458970969 655503843 -2038732373 -1212994445 -1387531443 -1669373980 -747017572 706425307 -1889319423 1173263179 986980297 -1904470477 825086489 1895142827 -1628644501 -374276220 1849691224 2092671251 -2048660118 41973756 -1571467933 1687410626 -802406120 311445014 64664835 -855551791 2106822847 -1109029480 -1819753870 613600209 -183088397
REM
CELL 1.54180   50.00000   50.00000   50.00000   90.00000   90.00000   90.00000
LATT -1
SFAC C  
C      1  0.4481880000000  0.4896230000000  0.5656160000000 1.0
C      1  0.4960590000000  0.5711030000000  0.5138230000000 1.0
C      1  0.4726790000000  0.5049670000000  0.5775460000000 1.0
C      1  0.4813230000000  0.4374970000000  0.5083220000000 1.0
C      1  0.5283420000000  0.5019720000000  0.4419710000000 1.0
C      1  0.4822070000000  0.5152470000000  0.4356520000000 1.0
C      1  0.4558560000000  0.4654240000000  0.4264790000000 1.0
C      1  0.4790300000000  0.4897320000000  0.4955210000000 1.0
C      1  0.5199280000000  0.4275380000000  0.4286890000000 1.0
C      1  0.4542500000000  0.5149620000000  0.4259910000000 1.0
C      1  0.4937150000000  0.5461430000000  0.4359290000000 1.0
C      1  0.5018240000000  0.5497030000000  0.4951660000000 1.0
C      1  0.4608670000000  0.5140000000000  0.4906960000000 1.0
C      1  0.5572490000000  0.4850850000000  0.5427760000000 1.0
C      1  0.4307770000000  0.5142870000000  0.4495500000000 1.0
C      1  0.4484990000000  0.5775180000000  0.4997100000000 1.0
C      1  0.4427260000000  0.5494930000000  0.4930650000000 1.0
C      1  0.4818820000000  0.4577880000000  0.4256670000000 1.0
C      1  0.5236480000000  0.4735870000000  0.4513870000000 1.0
C      1  0.4930640000000  0.4663650000000  0.4647060000000 1.0
C      1  0.5041830000000  0.5701040000000  0.5408660000000 1.0
C      1  0.5817390000000  0.4791640000000  0.5035790000000 1.0
C      1  0.4193410000000  0.5003950000000  0.5261530000000 1.0
C      1  0.4392080000000  0.5198410000000  0.5162810000000 1.0
C      1  0.4882540000000  0.4424160000000  0.4777100000000 1.0
C      1  0.4817460000000  0.4870470000000  0.5256140000000 1.0
C      1  0.5303590000000  0.5486640000000  0.4826340000000 1.0
C      1  0.4910560000000  0.5255150000000  0.5598230000000 1.0
C      1  0.5801640000000  0.4293300000000  0.5152190000000 1.0
C      1  0.4740020000000  0.4729980000000  0.5540900000000 1.0
C      1  0.4640570000000  0.5402230000000  0.5205610000000 1.0
C      1  0.4239170000000  0.4911680000000  0.5521610000000 1.0
C      1  0.5093390000000  0.4536420000000  0.4305800000000 1.0
C      1  0.5001640000000  0.4594250000000  0.6002580000000 1.0
C      1  0.5080970000000  0.4836280000000  0.5452550000000 1.0
C      1  0.5891660000000  0.4537030000000  0.5079180000000 1.0
C      1  0.4997240000000  0.5546920000000  0.5628510000000 1.0
C      1  0.5204590000000  0.5503210000000  0.4441020000000 1.0
C      1  0.5098680000000  0.4954540000000  0.4862210000000 1.0
C      1  0.5454220000000  0.5153570000000  0.5167370000000 1.0
C      1  0.4635840000000  0.5625880000000  0.5378790000000 1.0
C      1  0.5324990000000  0.4309520000000  0.5125700000000 1.0
C      1  0.5385670000000  0.5164580000000  0.5764330000000 1.0
C      1  0.5551350000000  0.5392450000000  0.5344840000000 1.0
C      1  0.4931350000000  0.4780790000000  0.5818200000000 1.0
C      1  0.5527520000000  0.5321770000000  0.5635290000000 1.0
C      1  0.5047610000000  0.4151450000000  0.4731210000000 1.0
C      1  0.5329530000000  0.5254790000000  0.4573770000000 1.0
C      1  0.5544050000000  0.3895900000000  0.5261260000000 1.0
C      1  0.5118260000000  0.5033880000000  0.5709940000000 1.0
C      1  0.5167760000000  0.4090260000000  0.4487250000000 1.0
C      1  0.4142040000000  0.4952020000000  0.4972090000000 1.0
C      1  0.4874820000000  0.5201510000000  0.5294220000000 1.0
C      1  0.5557550000000  0.4157310000000  0.5187950000000 1.0
C      1  0.5513630000000  0.5521230000000  0.5029780000000 1.0
C      1  0.4393610000000  0.4876400000000  0.4299250000000 1.0
C      1  0.5334540000000  0.4795380000000  0.5297300000000 1.0
C      1  0.5344280000000  0.4593560000000  0.5077700000000 1.0
C      1  0.5072960000000  0.4195800000000  0.5041850000000 1.0
C      1  0.5305460000000  0.5743070000000  0.4598330000000 1.0
C      1  0.5157460000000  0.5082250000000  0.5147210000000 1.0
C      1  0.4854120000000  0.4994330000000  0.4626910000000 1.0
C      1  0.4731300000000  0.5867610000000  0.5074950000000 1.0
C      1  0.4793600000000  0.5374140000000  0.4825990000000 1.0
C      1  0.5282580000000  0.4703660000000  0.4831490000000 1.0
C      1  0.4319760000000  0.5059820000000  0.4794700000000 1.0
C      1  0.5097830000000  0.5076050000000  0.4217860000000 1.0
C      1  0.4713750000000  0.5482610000000  0.4553270000000 1.0
C      1  0.5742480000000  0.5642240000000  0.5214410000000 1.0
C      1  0.5644560000000  0.4994340000000  0.5061480000000 1.0
C      1  0.4435990000000  0.5414180000000  0.4653960000000 1.0
END
