TITL C-2778431-5191-97 0.00301654426416609 125000 -319.618616277793 0 0 56 (C1) n - 1
REM
REM in /home/nfs/bkarasulu/CARBON/AIRSS/Generating-Clusters/REBO/Only-C1/SD-CG/HFTN-CG
REM
REM
REM
REM
REM
REM ./C.cell (11c1c37f851c82e70ff6c80c92926a4b)
REM
REM compiler GCC version 9.2.1 20190827 (Red Hat 9.2.1-1)
REM options -cpp -mtune=generic -march=x86-64 -g -O0 -fpre-include=/usr/include/finclude/math-vector-fortran.h
REM seed 70888794 1543964058 -1344521411 -864343642 296036726 -53305663 -1390198159 -1130836040 611907722 -14078683 -761010546 -517994578 -1829742078 659480826 -1181413817 2143903752 -1185689469 895207543 868317622 -376900205 818404002 1738935823 887099034 601067920 2080878138 -1715980618 760859625 -1129371477 1901750366 921379650 172252996 194202878 -1580926743
REM
CELL 1.54180   50.00000   50.00000   50.00000   90.00000   90.00000   90.00000
LATT -1
SFAC C  
C      1  0.5045680000000  0.5458340000000  0.4809600000000 1.0
C      1  0.4384940000000  0.4816050000000  0.4646780000000 1.0
C      1  0.5598830000000  0.5364320000000  0.4607940000000 1.0
C      1  0.5052040000000  0.4784920000000  0.4442120000000 1.0
C      1  0.4565690000000  0.4693090000000  0.5174950000000 1.0
C      1  0.4733390000000  0.4908390000000  0.5205730000000 1.0
C      1  0.4900030000000  0.4521450000000  0.5430420000000 1.0
C      1  0.4822320000000  0.4987060000000  0.4490820000000 1.0
C      1  0.4555490000000  0.5551220000000  0.4294580000000 1.0
C      1  0.4791870000000  0.5184170000000  0.5544230000000 1.0
C      1  0.4738670000000  0.4893160000000  0.4807050000000 1.0
C      1  0.5344310000000  0.4507640000000  0.5476720000000 1.0
C      1  0.5298670000000  0.4404720000000  0.4670710000000 1.0
C      1  0.5224170000000  0.5261930000000  0.4514010000000 1.0
C      1  0.4830500000000  0.4353070000000  0.4964590000000 1.0
C      1  0.4940950000000  0.5261320000000  0.4440200000000 1.0
C      1  0.4353990000000  0.5021700000000  0.5256690000000 1.0
C      1  0.5272180000000  0.4976840000000  0.5375940000000 1.0
C      1  0.5314510000000  0.4280650000000  0.4939540000000 1.0
C      1  0.5333150000000  0.4697530000000  0.4710170000000 1.0
C      1  0.5008320000000  0.4944100000000  0.5674520000000 1.0
C      1  0.4799810000000  0.5574500000000  0.4732590000000 1.0
C      1  0.5340960000000  0.5515670000000  0.4712620000000 1.0
C      1  0.5176380000000  0.4765530000000  0.4933700000000 1.0
C      1  0.5174330000000  0.5355640000000  0.5271150000000 1.0
C      1  0.4908420000000  0.4686470000000  0.4925490000000 1.0
C      1  0.4761920000000  0.4429070000000  0.4660860000000 1.0
C      1  0.4507360000000  0.4961640000000  0.4439400000000 1.0
C      1  0.4498830000000  0.4548680000000  0.4646100000000 1.0
C      1  0.5106360000000  0.5265550000000  0.5651470000000 1.0
C      1  0.4706830000000  0.4447990000000  0.5230610000000 1.0
C      1  0.4669390000000  0.5401030000000  0.5308170000000 1.0
C      1  0.5435600000000  0.4442630000000  0.5152850000000 1.0
C      1  0.5404650000000  0.5248220000000  0.5484870000000 1.0
C      1  0.4759040000000  0.5171130000000  0.5093800000000 1.0
C      1  0.4438620000000  0.5000580000000  0.4927860000000 1.0
C      1  0.5345930000000  0.4944340000000  0.4507030000000 1.0
C      1  0.5106000000000  0.5737580000000  0.5211810000000 1.0
C      1  0.4483130000000  0.5083850000000  0.5462600000000 1.0
C      1  0.5481900000000  0.4759640000000  0.5384660000000 1.0
C      1  0.5593530000000  0.4739960000000  0.5103860000000 1.0
C      1  0.4473870000000  0.5325810000000  0.5029230000000 1.0
C      1  0.4635730000000  0.5601710000000  0.4964530000000 1.0
C      1  0.5064550000000  0.4159950000000  0.5004010000000 1.0
C      1  0.5108290000000  0.4614850000000  0.5658670000000 1.0
C      1  0.5346800000000  0.5555110000000  0.5050360000000 1.0
C      1  0.5566790000000  0.5039770000000  0.4970290000000 1.0
C      1  0.4799820000000  0.5687610000000  0.5209630000000 1.0
C      1  0.5582890000000  0.5092660000000  0.4670430000000 1.0
C      1  0.4754220000000  0.5483250000000  0.4463770000000 1.0
C      1  0.5250270000000  0.5021330000000  0.5066740000000 1.0
C      1  0.5033480000000  0.5244550000000  0.5014660000000 1.0
C      1  0.5543890000000  0.5306450000000  0.5177480000000 1.0
C      1  0.5038310000000  0.5561800000000  0.5495650000000 1.0
C      1  0.4969980000000  0.4840260000000  0.5366850000000 1.0
C      1  0.5022440000000  0.4513470000000  0.4538880000000 1.0
END
