TITL C-2778429-3646-343 4.24299796327761e-05 125000 -126.991412180195 0 0 23 (C1) n - 1
REM
REM in /home/nfs/bkarasulu/CARBON/AIRSS/Generating-Clusters/REBO/Only-C1/SD-CG/HFTN-CG
REM
REM
REM
REM
REM
REM ./C.cell (11c1c37f851c82e70ff6c80c92926a4b)
REM
REM compiler GCC version 9.2.1 20190827 (Red Hat 9.2.1-1)
REM options -cpp -mtune=generic -march=x86-64 -g -O0 -fpre-include=/usr/include/finclude/math-vector-fortran.h
REM seed 1607776029 517773716 1053818368 -1566869335 -1370561343 -245069210 1286345032 -1636456558 -1568576414 -363415222 -1557540791 689091113 1212654823 1224543385 543284248 2104539619 -971604026 563958372 -1393104945 460520705 682141904 -1018265052 -1589734330 -1148474294 724299877 -1943510776 1857309650 -2117910878 -60947453 -1501143116 740810691 1293218512 2008614488
REM
CELL 1.54180   50.00000   50.00000   50.00000   90.00000   90.00000   90.00000
LATT -1
SFAC C  
C      1  0.4923180000000  0.5026350000000  0.4582190000000 1.0
C      1  0.5033020000000  0.5185700000000  0.4828040000000 1.0
C      1  0.4658840000000  0.4943140000000  0.5053090000000 1.0
C      1  0.5173220000000  0.4664730000000  0.5335050000000 1.0
C      1  0.5428370000000  0.5173640000000  0.5204200000000 1.0
C      1  0.5410040000000  0.4841140000000  0.4746470000000 1.0
C      1  0.4901210000000  0.4361090000000  0.4794940000000 1.0
C      1  0.4596220000000  0.6065060000000  0.5602650000000 1.0
C      1  0.4697570000000  0.5629630000000  0.5321030000000 1.0
C      1  0.5277130000000  0.4901460000000  0.5248000000000 1.0
C      1  0.5009230000000  0.4459980000000  0.5261450000000 1.0
C      1  0.4646490000000  0.5849090000000  0.5462970000000 1.0
C      1  0.5169940000000  0.4410980000000  0.4616630000000 1.0
C      1  0.4801790000000  0.5181900000000  0.5031440000000 1.0
C      1  0.5381770000000  0.4591370000000  0.4648830000000 1.0
C      1  0.4637610000000  0.4673610000000  0.5053580000000 1.0
C      1  0.4818010000000  0.4454600000000  0.5051060000000 1.0
C      1  0.4847640000000  0.4795150000000  0.4469240000000 1.0
C      1  0.4748660000000  0.5410170000000  0.5179080000000 1.0
C      1  0.4883210000000  0.4521050000000  0.4512380000000 1.0
C      1  0.5274210000000  0.5035270000000  0.4941540000000 1.0
C      1  0.5579800000000  0.5373320000000  0.5300680000000 1.0
C      1  0.5102840000000  0.5451550000000  0.4755470000000 1.0
END
