TITL C-2778435-5768-898 -0.00112276831114495 125000 -652.417454137798 0 0 113 (C1) n - 1
REM
REM in /home/nfs/bkarasulu/CARBON/AIRSS/Generating-Clusters/REBO/Only-C1/SD-CG/HFTN-CG
REM
REM
REM
REM
REM
REM ./C.cell (11c1c37f851c82e70ff6c80c92926a4b)
REM
REM compiler GCC version 9.2.1 20190827 (Red Hat 9.2.1-1)
REM options -cpp -mtune=generic -march=x86-64 -g -O0 -fpre-include=/usr/include/finclude/math-vector-fortran.h
REM seed -2029489623 791175118 1723903882 2072905893 -2014763023 1864717317 253559084 624277446 -1015952120 -1962878978 -1789136684 -207895342 1802240957 146757907 -673745960 -1901713252 -1722852914 -1475983180 944756764 -1761393424 -1855967895 2024203020 -1686135391 -598627054 -1517852630 173460777 -1582825733 1956313083 509065367 1782627537 1483793427 -1391347637 -969778899
REM
CELL 1.54180   50.00000   50.00000   50.00000   90.00000   90.00000   90.00000
LATT -1
SFAC C  
C      1  0.4110670000000  0.4882990000000  0.4867670000000 1.0
C      1  0.5426800000000  0.4520910000000  0.4258040000000 1.0
C      1  0.4558700000000  0.5274430000000  0.5392260000000 1.0
C      1  0.5072300000000  0.4388410000000  0.4982350000000 1.0
C      1  0.4661020000000  0.4589780000000  0.4443080000000 1.0
C      1  0.4295430000000  0.5267610000000  0.4511920000000 1.0
C      1  0.5450670000000  0.4804280000000  0.4159620000000 1.0
C      1  0.4608970000000  0.5476810000000  0.5663070000000 1.0
C      1  0.4751790000000  0.5652150000000  0.5217450000000 1.0
C      1  0.5069060000000  0.5333000000000  0.4133230000000 1.0
C      1  0.4762580000000  0.5986220000000  0.4982080000000 1.0
C      1  0.5401440000000  0.5297700000000  0.5459640000000 1.0
C      1  0.4214800000000  0.4785440000000  0.4601820000000 1.0
C      1  0.5256410000000  0.4992200000000  0.5248770000000 1.0
C      1  0.4292850000000  0.5718220000000  0.5122670000000 1.0
C      1  0.5178440000000  0.5447980000000  0.5251210000000 1.0
C      1  0.4270220000000  0.4979120000000  0.4407150000000 1.0
C      1  0.4536320000000  0.4834260000000  0.5710140000000 1.0
C      1  0.4701960000000  0.4769060000000  0.5243700000000 1.0
C      1  0.5040520000000  0.4736460000000  0.5706790000000 1.0
C      1  0.4512120000000  0.5084020000000  0.4236910000000 1.0
C      1  0.4913740000000  0.5726500000000  0.4580470000000 1.0
C      1  0.4987480000000  0.5945760000000  0.5084450000000 1.0
C      1  0.5738010000000  0.5727480000000  0.5110410000000 1.0
C      1  0.5331480000000  0.5789360000000  0.5395580000000 1.0
C      1  0.5417700000000  0.5732090000000  0.4553160000000 1.0
C      1  0.5316530000000  0.5355180000000  0.5788260000000 1.0
C      1  0.5366330000000  0.4202390000000  0.4628590000000 1.0
C      1  0.4280700000000  0.5322830000000  0.4788730000000 1.0
C      1  0.4258180000000  0.5247490000000  0.5293350000000 1.0
C      1  0.4410890000000  0.4528580000000  0.4666890000000 1.0
C      1  0.5478930000000  0.4168500000000  0.5417550000000 1.0
C      1  0.4673950000000  0.4192750000000  0.5304030000000 1.0
C      1  0.4549170000000  0.4836280000000  0.4880590000000 1.0
C      1  0.4590040000000  0.5377730000000  0.4385730000000 1.0
C      1  0.5761130000000  0.5475890000000  0.5519790000000 1.0
C      1  0.5866000000000  0.5512740000000  0.5253430000000 1.0
C      1  0.5619060000000  0.4642160000000  0.4836250000000 1.0
C      1  0.5100550000000  0.4517960000000  0.4678920000000 1.0
C      1  0.5366260000000  0.4499290000000  0.4974120000000 1.0
C      1  0.5492980000000  0.5611800000000  0.5542340000000 1.0
C      1  0.4611580000000  0.4859720000000  0.4576790000000 1.0
C      1  0.5677430000000  0.4698750000000  0.5360320000000 1.0
C      1  0.5113120000000  0.4177020000000  0.4475170000000 1.0
C      1  0.4577230000000  0.5139170000000  0.5705010000000 1.0
C      1  0.5006410000000  0.5697770000000  0.5397240000000 1.0
C      1  0.4807310000000  0.5078010000000  0.4533700000000 1.0
C      1  0.5576300000000  0.4921660000000  0.3659510000000 1.0
C      1  0.4882810000000  0.5281640000000  0.5281660000000 1.0
C      1  0.5147280000000  0.5543980000000  0.5870590000000 1.0
C      1  0.5052730000000  0.5082040000000  0.5505950000000 1.0
C      1  0.5942240000000  0.5270270000000  0.5126620000000 1.0
C      1  0.4621500000000  0.4505850000000  0.4929730000000 1.0
C      1  0.5586850000000  0.4573120000000  0.5600470000000 1.0
C      1  0.4095050000000  0.4515230000000  0.5238700000000 1.0
C      1  0.5597930000000  0.5250950000000  0.4490560000000 1.0
C      1  0.5780790000000  0.5241170000000  0.5685760000000 1.0
C      1  0.4141760000000  0.5535970000000  0.5260690000000 1.0
C      1  0.5397810000000  0.5013200000000  0.4366690000000 1.0
C      1  0.5174720000000  0.5642650000000  0.4728390000000 1.0
C      1  0.5083480000000  0.4482670000000  0.5402500000000 1.0
C      1  0.4707830000000  0.5372150000000  0.5029400000000 1.0
C      1  0.5386790000000  0.4150550000000  0.4935350000000 1.0
C      1  0.4379900000000  0.4600990000000  0.5574190000000 1.0
C      1  0.4732450000000  0.4184960000000  0.4967560000000 1.0
C      1  0.4609180000000  0.4376860000000  0.5514170000000 1.0
C      1  0.4415050000000  0.4648080000000  0.5239080000000 1.0
C      1  0.5091370000000  0.4776270000000  0.4888260000000 1.0
C      1  0.4882260000000  0.4248750000000  0.4667760000000 1.0
C      1  0.4106090000000  0.5076450000000  0.5050830000000 1.0
C      1  0.4834350000000  0.5579440000000  0.4355540000000 1.0
C      1  0.5521290000000  0.5543750000000  0.4385760000000 1.0
C      1  0.5514040000000  0.4863490000000  0.3907350000000 1.0
C      1  0.5197780000000  0.4194780000000  0.5436100000000 1.0
C      1  0.5473640000000  0.5827320000000  0.5129190000000 1.0
C      1  0.5204150000000  0.4895500000000  0.4601570000000 1.0
C      1  0.5667620000000  0.4942780000000  0.4870650000000 1.0
C      1  0.4095820000000  0.4998880000000  0.5440320000000 1.0
C      1  0.5217850000000  0.4691690000000  0.5194200000000 1.0
C      1  0.5561710000000  0.5018530000000  0.5348180000000 1.0
C      1  0.4887140000000  0.5278930000000  0.5724650000000 1.0
C      1  0.4908970000000  0.5617040000000  0.5674410000000 1.0
C      1  0.4236530000000  0.4599700000000  0.4952780000000 1.0
C      1  0.5219820000000  0.5138830000000  0.4993360000000 1.0
C      1  0.4963650000000  0.4090330000000  0.5280840000000 1.0
C      1  0.5724010000000  0.4516710000000  0.5137390000000 1.0
C      1  0.4942750000000  0.5152900000000  0.4789780000000 1.0
C      1  0.4836080000000  0.4936090000000  0.5003780000000 1.0
C      1  0.5026430000000  0.4861510000000  0.4331150000000 1.0
C      1  0.5361270000000  0.4645840000000  0.5724970000000 1.0
C      1  0.5058560000000  0.4063760000000  0.4975470000000 1.0
C      1  0.5189370000000  0.5711430000000  0.5031820000000 1.0
C      1  0.5540590000000  0.5140980000000  0.5798930000000 1.0
C      1  0.4479830000000  0.5161980000000  0.4941420000000 1.0
C      1  0.4794880000000  0.4859410000000  0.5519950000000 1.0
C      1  0.5342570000000  0.5318840000000  0.4231140000000 1.0
C      1  0.4852870000000  0.4480180000000  0.5625990000000 1.0
C      1  0.4912630000000  0.4588250000000  0.4306610000000 1.0
C      1  0.4528450000000  0.5807310000000  0.5252510000000 1.0
C      1  0.4099870000000  0.4728490000000  0.5469820000000 1.0
C      1  0.5472630000000  0.5144500000000  0.4762320000000 1.0
C      1  0.5776400000000  0.5041170000000  0.5117840000000 1.0
C      1  0.5199650000000  0.5346490000000  0.4738550000000 1.0
C      1  0.5122060000000  0.4396770000000  0.4279820000000 1.0
C      1  0.4641720000000  0.5467190000000  0.4709560000000 1.0
C      1  0.4656280000000  0.5803270000000  0.4762230000000 1.0
C      1  0.4368660000000  0.5637050000000  0.4843030000000 1.0
C      1  0.5602660000000  0.4245360000000  0.5168970000000 1.0
C      1  0.5285580000000  0.4964010000000  0.5728240000000 1.0
C      1  0.5428030000000  0.4516860000000  0.4581780000000 1.0
C      1  0.5610200000000  0.4344720000000  0.4136920000000 1.0
C      1  0.4900890000000  0.5146000000000  0.4233580000000 1.0
C      1  0.4863290000000  0.4512190000000  0.5156630000000 1.0
END
