TITL C-2778430-5657-37 -0.00736745617233871 125000 -1078.63745524501 0 0 188 (C1) n - 1
REM
REM in /home/nfs/bkarasulu/CARBON/AIRSS/Generating-Clusters/REBO/Only-C1/SD-CG/HFTN-CG
REM
REM
REM
REM
REM
REM ./C.cell (11c1c37f851c82e70ff6c80c92926a4b)
REM
REM compiler GCC version 9.2.1 20190827 (Red Hat 9.2.1-1)
REM options -cpp -mtune=generic -march=x86-64 -g -O0 -fpre-include=/usr/include/finclude/math-vector-fortran.h
REM seed 1177019780 -532021133 2027147193 1907568404 -1707275873 687358560 -2105854394 1607905871 1359225864 -820182429 -1032643346 1829466586 -1718972143 -1471957872 -654489302 -661708513 1858817612 -2044707295 -1446832082 -1251004422 -1975643205 1193782282 1825193008 538975798 -293369026 260931200 -1548302592 -1477221346 181035795 1368327663 -2020025242 1859949862 864409799
REM
CELL 1.54180   50.00000   50.00000   50.00000   90.00000   90.00000   90.00000
LATT -1
SFAC C  
C      1  0.4026450000000  0.4535890000000  0.4694770000000 1.0
C      1  0.4072260000000  0.5609490000000  0.5074610000000 1.0
C      1  0.5169390000000  0.4570190000000  0.4074370000000 1.0
C      1  0.5204360000000  0.5982240000000  0.5178730000000 1.0
C      1  0.4227010000000  0.5541290000000  0.4792090000000 1.0
C      1  0.4560210000000  0.5582210000000  0.5419820000000 1.0
C      1  0.4814120000000  0.4447490000000  0.5120020000000 1.0
C      1  0.5544430000000  0.4907300000000  0.4096750000000 1.0
C      1  0.5669090000000  0.4663520000000  0.4234390000000 1.0
C      1  0.4702350000000  0.4667320000000  0.3792990000000 1.0
C      1  0.4940870000000  0.4600170000000  0.4291920000000 1.0
C      1  0.5570530000000  0.5654080000000  0.4308510000000 1.0
C      1  0.5280630000000  0.4079700000000  0.4970020000000 1.0
C      1  0.6004280000000  0.5197060000000  0.4695400000000 1.0
C      1  0.5796400000000  0.4556530000000  0.4783400000000 1.0
C      1  0.5111970000000  0.5085910000000  0.5251440000000 1.0
C      1  0.5607340000000  0.4236770000000  0.4587650000000 1.0
C      1  0.5127730000000  0.6329970000000  0.4847260000000 1.0
C      1  0.5142690000000  0.5294620000000  0.5620360000000 1.0
C      1  0.5051910000000  0.5102710000000  0.4183110000000 1.0
C      1  0.5665210000000  0.4739980000000  0.5735560000000 1.0
C      1  0.4946520000000  0.4013860000000  0.4964430000000 1.0
C      1  0.4335360000000  0.4177410000000  0.4656050000000 1.0
C      1  0.5538200000000  0.4046460000000  0.5531050000000 1.0
C      1  0.4945320000000  0.5679270000000  0.5441110000000 1.0
C      1  0.4508900000000  0.5179490000000  0.5998380000000 1.0
C      1  0.5411860000000  0.5399620000000  0.4459690000000 1.0
C      1  0.5635970000000  0.5051890000000  0.5336190000000 1.0
C      1  0.5214140000000  0.3918560000000  0.4685240000000 1.0
C      1  0.5384230000000  0.4808560000000  0.5344510000000 1.0
C      1  0.5208260000000  0.4434120000000  0.5509090000000 1.0
C      1  0.3945130000000  0.4805930000000  0.4496350000000 1.0
C      1  0.4954510000000  0.5169100000000  0.4978550000000 1.0
C      1  0.5930320000000  0.4668330000000  0.4317410000000 1.0
C      1  0.4322830000000  0.5749670000000  0.4595230000000 1.0
C      1  0.5559220000000  0.4617970000000  0.4970890000000 1.0
C      1  0.5961930000000  0.5020860000000  0.4976970000000 1.0
C      1  0.4691960000000  0.4911140000000  0.6100230000000 1.0
C      1  0.4280560000000  0.4886060000000  0.4088760000000 1.0
C      1  0.4321890000000  0.5006610000000  0.5805150000000 1.0
C      1  0.4624290000000  0.4992850000000  0.4840810000000 1.0
C      1  0.5725180000000  0.5504000000000  0.5458040000000 1.0
C      1  0.4799620000000  0.5212490000000  0.6171430000000 1.0
C      1  0.4398550000000  0.4708110000000  0.5737340000000 1.0
C      1  0.4174800000000  0.5119620000000  0.4293820000000 1.0
C      1  0.5735140000000  0.4506590000000  0.5497440000000 1.0
C      1  0.4981890000000  0.5498780000000  0.5058530000000 1.0
C      1  0.6016000000000  0.5354280000000  0.4996730000000 1.0
C      1  0.4105160000000  0.4628990000000  0.5108550000000 1.0
C      1  0.5971800000000  0.5778110000000  0.4733890000000 1.0
C      1  0.5875870000000  0.5289710000000  0.5679590000000 1.0
C      1  0.4918430000000  0.4593150000000  0.5404220000000 1.0
C      1  0.4916660000000  0.4381950000000  0.5914080000000 1.0
C      1  0.5591700000000  0.4674540000000  0.6030410000000 1.0
C      1  0.4398590000000  0.4786570000000  0.4732600000000 1.0
C      1  0.5104330000000  0.5895700000000  0.5737130000000 1.0
C      1  0.5591950000000  0.5567040000000  0.4941400000000 1.0
C      1  0.4781690000000  0.5135610000000  0.4224100000000 1.0
C      1  0.5569340000000  0.3813530000000  0.5630550000000 1.0
C      1  0.4350640000000  0.4571500000000  0.5325150000000 1.0
C      1  0.4270470000000  0.5717660000000  0.5404070000000 1.0
C      1  0.5290190000000  0.4788610000000  0.4248560000000 1.0
C      1  0.5317420000000  0.4119260000000  0.4487650000000 1.0
C      1  0.5160700000000  0.5242200000000  0.3938260000000 1.0
C      1  0.4493780000000  0.3955130000000  0.4582270000000 1.0
C      1  0.5157170000000  0.5497700000000  0.5964090000000 1.0
C      1  0.4118450000000  0.4267770000000  0.4820040000000 1.0
C      1  0.4803230000000  0.4589600000000  0.6113530000000 1.0
C      1  0.4476660000000  0.4385800000000  0.5652210000000 1.0
C      1  0.5369180000000  0.4956720000000  0.5060310000000 1.0
C      1  0.4547670000000  0.4981120000000  0.5476130000000 1.0
C      1  0.5217540000000  0.5010540000000  0.6017730000000 1.0
C      1  0.5798070000000  0.5222090000000  0.4428520000000 1.0
C      1  0.5817380000000  0.4926960000000  0.4600580000000 1.0
C      1  0.4718960000000  0.5623700000000  0.5118750000000 1.0
C      1  0.5412280000000  0.5556350000000  0.5487730000000 1.0
C      1  0.5274550000000  0.4732580000000  0.4556010000000 1.0
C      1  0.4469100000000  0.4722630000000  0.3987240000000 1.0
C      1  0.5228470000000  0.4273590000000  0.4212720000000 1.0
C      1  0.5234360000000  0.5706590000000  0.4248860000000 1.0
C      1  0.5500340000000  0.4329620000000  0.5410080000000 1.0
C      1  0.4115270000000  0.5460790000000  0.5462430000000 1.0
C      1  0.5400830000000  0.4873160000000  0.5639220000000 1.0
C      1  0.4295380000000  0.5937850000000  0.5233900000000 1.0
C      1  0.5159410000000  0.4638750000000  0.5171970000000 1.0
C      1  0.5157670000000  0.5560880000000  0.4788010000000 1.0
C      1  0.4840870000000  0.4132930000000  0.5465700000000 1.0
C      1  0.4827450000000  0.5886360000000  0.5761670000000 1.0
C      1  0.5313450000000  0.5111890000000  0.4710640000000 1.0
C      1  0.4654200000000  0.4483830000000  0.4143530000000 1.0
C      1  0.3876140000000  0.5153170000000  0.4906120000000 1.0
C      1  0.5974770000000  0.4513150000000  0.5249450000000 1.0
C      1  0.4623380000000  0.5321690000000  0.4038280000000 1.0
C      1  0.4811410000000  0.5458050000000  0.5936100000000 1.0
C      1  0.5481900000000  0.4455210000000  0.4358350000000 1.0
C      1  0.5380110000000  0.5181120000000  0.5695010000000 1.0
C      1  0.4002290000000  0.4757400000000  0.5368310000000 1.0
C      1  0.5182730000000  0.4422210000000  0.5818450000000 1.0
C      1  0.5384190000000  0.5277220000000  0.5294870000000 1.0
C      1  0.4859130000000  0.4288460000000  0.4423310000000 1.0
C      1  0.5079800000000  0.5383480000000  0.4533730000000 1.0
C      1  0.4889910000000  0.5514470000000  0.4304650000000 1.0
C      1  0.5634690000000  0.5347030000000  0.4697800000000 1.0
C      1  0.4180450000000  0.5001690000000  0.4985390000000 1.0
C      1  0.5541480000000  0.6139740000000  0.4435640000000 1.0
C      1  0.5221870000000  0.5867180000000  0.4705140000000 1.0
C      1  0.4616810000000  0.4069100000000  0.5298990000000 1.0
C      1  0.5209660000000  0.5665770000000  0.5248640000000 1.0
C      1  0.4227290000000  0.5248640000000  0.4752630000000 1.0
C      1  0.5102690000000  0.5248880000000  0.6112860000000 1.0
C      1  0.5668250000000  0.4185100000000  0.4850090000000 1.0
C      1  0.4520150000000  0.5279250000000  0.5098240000000 1.0
C      1  0.4158220000000  0.4233190000000  0.5095400000000 1.0
C      1  0.5145100000000  0.4386520000000  0.4940530000000 1.0
C      1  0.4622630000000  0.5719100000000  0.5700640000000 1.0
C      1  0.4704620000000  0.4636850000000  0.5604020000000 1.0
C      1  0.4833280000000  0.4772260000000  0.5837550000000 1.0
C      1  0.4565940000000  0.4678060000000  0.4391010000000 1.0
C      1  0.4270270000000  0.5689570000000  0.4333560000000 1.0
C      1  0.4261130000000  0.5212110000000  0.5309800000000 1.0
C      1  0.5584130000000  0.5329640000000  0.5789090000000 1.0
C      1  0.4689800000000  0.4080540000000  0.5025400000000 1.0
C      1  0.4819760000000  0.4531360000000  0.4660960000000 1.0
C      1  0.4402040000000  0.5581260000000  0.5053010000000 1.0
C      1  0.4348210000000  0.4573750000000  0.4928300000000 1.0
C      1  0.4768500000000  0.4003730000000  0.4523490000000 1.0
C      1  0.5011420000000  0.6112950000000  0.5346790000000 1.0
C      1  0.4968590000000  0.3824500000000  0.4613610000000 1.0
C      1  0.6039490000000  0.5665110000000  0.4980900000000 1.0
C      1  0.5529970000000  0.4843400000000  0.4713090000000 1.0
C      1  0.4739250000000  0.5634220000000  0.4654480000000 1.0
C      1  0.5683340000000  0.5724250000000  0.4665360000000 1.0
C      1  0.5884890000000  0.5262820000000  0.5283430000000 1.0
C      1  0.4625550000000  0.5164750000000  0.4485540000000 1.0
C      1  0.5268990000000  0.5659190000000  0.5760660000000 1.0
C      1  0.5394520000000  0.4829580000000  0.6139110000000 1.0
C      1  0.5067370000000  0.4259880000000  0.5253940000000 1.0
C      1  0.4647640000000  0.5329330000000  0.4783270000000 1.0
C      1  0.5296350000000  0.5089820000000  0.4378570000000 1.0
C      1  0.4337080000000  0.5394200000000  0.4198980000000 1.0
C      1  0.5646960000000  0.5120150000000  0.4948290000000 1.0
C      1  0.3926300000000  0.4830550000000  0.4833100000000 1.0
C      1  0.4912620000000  0.4265880000000  0.4083510000000 1.0
C      1  0.5256770000000  0.4422600000000  0.4629510000000 1.0
C      1  0.4750230000000  0.4943720000000  0.5137120000000 1.0
C      1  0.4248810000000  0.5328310000000  0.5735320000000 1.0
C      1  0.6064770000000  0.4543010000000  0.4937560000000 1.0
C      1  0.4924400000000  0.5430830000000  0.3995700000000 1.0
C      1  0.4241840000000  0.4673140000000  0.4460820000000 1.0
C      1  0.5698610000000  0.5360000000000  0.4185490000000 1.0
C      1  0.4517240000000  0.4421300000000  0.4601610000000 1.0
C      1  0.5792020000000  0.5633560000000  0.5172100000000 1.0
C      1  0.4580570000000  0.5935110000000  0.5096160000000 1.0
C      1  0.4849720000000  0.4837410000000  0.4503040000000 1.0
C      1  0.4358270000000  0.5045280000000  0.4547640000000 1.0
C      1  0.4888160000000  0.5022580000000  0.5484990000000 1.0
C      1  0.4555560000000  0.5865620000000  0.4776310000000 1.0
C      1  0.4861550000000  0.4749410000000  0.4891160000000 1.0
C      1  0.5083110000000  0.4919140000000  0.5744330000000 1.0
C      1  0.4670920000000  0.5272840000000  0.5397400000000 1.0
C      1  0.3967730000000  0.5326030000000  0.5180360000000 1.0
C      1  0.4595000000000  0.5470550000000  0.4407240000000 1.0
C      1  0.4788510000000  0.5927350000000  0.5365980000000 1.0
C      1  0.5004440000000  0.5771840000000  0.4487520000000 1.0
C      1  0.5489820000000  0.5926740000000  0.4587260000000 1.0
C      1  0.5167600000000  0.4777060000000  0.4863550000000 1.0
C      1  0.4578220000000  0.4361060000000  0.4929330000000 1.0
C      1  0.5746260000000  0.4763470000000  0.5192650000000 1.0
C      1  0.4482130000000  0.5499520000000  0.5889470000000 1.0
C      1  0.6046450000000  0.4675710000000  0.4620310000000 1.0
C      1  0.4420370000000  0.4871000000000  0.5178590000000 1.0
C      1  0.5919330000000  0.4955500000000  0.5733900000000 1.0
C      1  0.3968920000000  0.5128330000000  0.4572190000000 1.0
C      1  0.5186410000000  0.6068810000000  0.4916820000000 1.0
C      1  0.5498690000000  0.4309470000000  0.5102560000000 1.0
C      1  0.5425350000000  0.5516820000000  0.4038880000000 1.0
C      1  0.5489500000000  0.5187100000000  0.3983620000000 1.0
C      1  0.5337310000000  0.5342710000000  0.4963150000000 1.0
C      1  0.4206960000000  0.4965810000000  0.5499610000000 1.0
C      1  0.4758950000000  0.4256230000000  0.5712960000000 1.0
C      1  0.4139220000000  0.4583540000000  0.5595860000000 1.0
C      1  0.4924800000000  0.4519340000000  0.3853610000000 1.0
C      1  0.6094640000000  0.5111250000000  0.5488460000000 1.0
C      1  0.5995130000000  0.4726280000000  0.5513940000000 1.0
C      1  0.4979600000000  0.5080020000000  0.4650430000000 1.0
C      1  0.6060750000000  0.4900640000000  0.5234600000000 1.0
C      1  0.4368770000000  0.4242900000000  0.5362680000000 1.0
C      1  0.4935100000000  0.5479430000000  0.5634090000000 1.0
END
