TITL C-2778423-5760-448 -0.0016786955161033 125000 -288.493516438948 0 0 49 (C1) n - 1
REM
REM in /home/nfs/bkarasulu/CARBON/AIRSS/Generating-Clusters/REBO/Only-C1/SD-CG/HFTN-CG
REM
REM
REM
REM
REM
REM ./C.cell (11c1c37f851c82e70ff6c80c92926a4b)
REM
REM compiler GCC version 9.2.1 20190827 (Red Hat 9.2.1-1)
REM options -cpp -mtune=generic -march=x86-64 -g -O0 -fpre-include=/usr/include/finclude/math-vector-fortran.h
REM seed -514903625 1021899204 2139176283 1405258465 314650324 -914645036 -1336517679 -1729749906 -994519318 -62789568 -1665823638 1836983343 -1116192062 1966054399 479944350 157047550 -325074559 -1070080736 1855961408 -1736491531 -1743960531 -1850269328 -818522127 -936337787 -696614206 -827945403 2074739718 1640228608 832023875 529827931 -1911260210 -1722107574 1107507176
REM
CELL 1.54180   50.00000   50.00000   50.00000   90.00000   90.00000   90.00000
LATT -1
SFAC C  
C      1  0.5371540000000  0.4825120000000  0.4743780000000 1.0
C      1  0.5539110000000  0.5020990000000  0.5257590000000 1.0
C      1  0.4684340000000  0.5803600000000  0.5644390000000 1.0
C      1  0.5392650000000  0.4347050000000  0.4866540000000 1.0
C      1  0.5174860000000  0.4506770000000  0.4432600000000 1.0
C      1  0.4456180000000  0.4686450000000  0.4615510000000 1.0
C      1  0.5167220000000  0.4733170000000  0.4996890000000 1.0
C      1  0.4586080000000  0.5051930000000  0.4705300000000 1.0
C      1  0.4727420000000  0.5596250000000  0.5483000000000 1.0
C      1  0.5504610000000  0.5305580000000  0.4664310000000 1.0
C      1  0.4940630000000  0.4907060000000  0.5642890000000 1.0
C      1  0.4980480000000  0.5639310000000  0.4979930000000 1.0
C      1  0.4567950000000  0.5307430000000  0.5120730000000 1.0
C      1  0.4813520000000  0.5341570000000  0.4367350000000 1.0
C      1  0.4683670000000  0.4749630000000  0.4438260000000 1.0
C      1  0.4678350000000  0.4791040000000  0.5178380000000 1.0
C      1  0.5477540000000  0.5473200000000  0.4927320000000 1.0
C      1  0.4900730000000  0.4551590000000  0.4495700000000 1.0
C      1  0.5370860000000  0.5076230000000  0.5486520000000 1.0
C      1  0.5276580000000  0.4602660000000  0.5409770000000 1.0
C      1  0.4740490000000  0.5044300000000  0.4403150000000 1.0
C      1  0.5601750000000  0.5027920000000  0.4771900000000 1.0
C      1  0.4901950000000  0.4997360000000  0.4768050000000 1.0
C      1  0.4600470000000  0.5322240000000  0.5413950000000 1.0
C      1  0.5208930000000  0.4842340000000  0.5572790000000 1.0
C      1  0.4689730000000  0.5356840000000  0.4646150000000 1.0
C      1  0.5260390000000  0.5254150000000  0.4513740000000 1.0
C      1  0.5383230000000  0.4427810000000  0.5138340000000 1.0
C      1  0.5145540000000  0.5010310000000  0.4624280000000 1.0
C      1  0.4460800000000  0.5074630000000  0.4995160000000 1.0
C      1  0.4464490000000  0.4752060000000  0.4950120000000 1.0
C      1  0.4974070000000  0.5206100000000  0.5251590000000 1.0
C      1  0.5021800000000  0.4454580000000  0.4970400000000 1.0
C      1  0.4716390000000  0.5476020000000  0.4909290000000 1.0
C      1  0.5278260000000  0.5617180000000  0.5074530000000 1.0
C      1  0.5295570000000  0.5560110000000  0.5357990000000 1.0
C      1  0.4683000000000  0.5103350000000  0.5572790000000 1.0
C      1  0.4912950000000  0.5509580000000  0.5254490000000 1.0
C      1  0.5593520000000  0.5191530000000  0.5035720000000 1.0
C      1  0.5089220000000  0.5404300000000  0.4346900000000 1.0
C      1  0.5202370000000  0.5299760000000  0.5432030000000 1.0
C      1  0.4927440000000  0.4352500000000  0.5219130000000 1.0
C      1  0.5361670000000  0.4530780000000  0.4647370000000 1.0
C      1  0.4745330000000  0.4506910000000  0.5343950000000 1.0
C      1  0.4835730000000  0.4423230000000  0.4753410000000 1.0
C      1  0.4552870000000  0.4459350000000  0.4814010000000 1.0
C      1  0.4929610000000  0.4949400000000  0.5083080000000 1.0
C      1  0.4668510000000  0.4779780000000  0.5507460000000 1.0
C      1  0.5459600000000  0.4748960000000  0.5171440000000 1.0
END
