TITL C-2778437-8639-1043 0.00108072988382057 125000 -371.040894046031 0 0 64 (C1) n - 1
REM
REM in /home/nfs/bkarasulu/CARBON/AIRSS/Generating-Clusters/REBO/Only-C1/SD-CG/HFTN-CG
REM
REM
REM
REM
REM
REM ./C.cell (11c1c37f851c82e70ff6c80c92926a4b)
REM
REM compiler GCC version 9.2.1 20190827 (Red Hat 9.2.1-1)
REM options -cpp -mtune=generic -march=x86-64 -g -O0 -fpre-include=/usr/include/finclude/math-vector-fortran.h
REM seed -1259729729 1426563280 -1387274753 -334014711 -429465136 -379988608 1523905140 -1445096438 9108411 616515124 779880197 -718572568 -1248379580 -833279629 -1629065485 802689292 648518396 -205671184 1577122761 1547047319 -519463078 64075178 2144890967 451481105 -129730553 1087626057 -1467991901 1880530027 -267675157 -803411999 940731149 1339170629 187619331
REM
CELL 1.54180   50.00000   50.00000   50.00000   90.00000   90.00000   90.00000
LATT -1
SFAC C  
C      1  0.4471730000000  0.4632370000000  0.5403200000000 1.0
C      1  0.4949570000000  0.4443890000000  0.4428070000000 1.0
C      1  0.4900200000000  0.5056410000000  0.5215810000000 1.0
C      1  0.4857620000000  0.5349250000000  0.5113740000000 1.0
C      1  0.4616390000000  0.5047550000000  0.4563180000000 1.0
C      1  0.5324680000000  0.5257550000000  0.4603090000000 1.0
C      1  0.4374760000000  0.4563050000000  0.4860610000000 1.0
C      1  0.5562440000000  0.5612430000000  0.5228760000000 1.0
C      1  0.4359420000000  0.5332650000000  0.5068260000000 1.0
C      1  0.5474790000000  0.5247860000000  0.4849330000000 1.0
C      1  0.4371180000000  0.4679480000000  0.5115190000000 1.0
C      1  0.5158240000000  0.5232970000000  0.5347930000000 1.0
C      1  0.5585280000000  0.4984100000000  0.4864030000000 1.0
C      1  0.5019750000000  0.4046030000000  0.5141370000000 1.0
C      1  0.5449860000000  0.4484120000000  0.4965520000000 1.0
C      1  0.5291060000000  0.5356080000000  0.5086350000000 1.0
C      1  0.4322660000000  0.4791960000000  0.4635340000000 1.0
C      1  0.5689160000000  0.5048920000000  0.5587390000000 1.0
C      1  0.5456440000000  0.5050760000000  0.5730920000000 1.0
C      1  0.4892920000000  0.4271630000000  0.5301640000000 1.0
C      1  0.5344100000000  0.4652910000000  0.5408250000000 1.0
C      1  0.5213280000000  0.5138670000000  0.5665060000000 1.0
C      1  0.4550400000000  0.4922090000000  0.4854660000000 1.0
C      1  0.4954550000000  0.5349470000000  0.5671660000000 1.0
C      1  0.4399750000000  0.4930580000000  0.5418520000000 1.0
C      1  0.4783910000000  0.4881940000000  0.4395530000000 1.0
C      1  0.4371780000000  0.5025500000000  0.5105450000000 1.0
C      1  0.4741500000000  0.5666230000000  0.5139250000000 1.0
C      1  0.5067450000000  0.5122410000000  0.4650000000000 1.0
C      1  0.4502010000000  0.5539660000000  0.4959090000000 1.0
C      1  0.5294970000000  0.4855750000000  0.4439180000000 1.0
C      1  0.5040330000000  0.5380990000000  0.4853980000000 1.0
C      1  0.5486740000000  0.4834480000000  0.4636450000000 1.0
C      1  0.4631360000000  0.5312990000000  0.5642780000000 1.0
C      1  0.5112570000000  0.5226760000000  0.3840420000000 1.0
C      1  0.5210570000000  0.4725150000000  0.5015790000000 1.0
C      1  0.5409260000000  0.5674900000000  0.5478520000000 1.0
C      1  0.4475530000000  0.4531190000000  0.4537010000000 1.0
C      1  0.4538690000000  0.5549340000000  0.4673600000000 1.0
C      1  0.4512040000000  0.5305760000000  0.4531490000000 1.0
C      1  0.5125550000000  0.4525320000000  0.4623790000000 1.0
C      1  0.5051710000000  0.4831680000000  0.4754920000000 1.0
C      1  0.4750500000000  0.5715580000000  0.4582300000000 1.0
C      1  0.5732350000000  0.5105980000000  0.5312220000000 1.0
C      1  0.5025170000000  0.4544020000000  0.5460160000000 1.0
C      1  0.5158570000000  0.4017720000000  0.4933950000000 1.0
C      1  0.4996900000000  0.5672320000000  0.4710030000000 1.0
C      1  0.4817470000000  0.4830220000000  0.4988860000000 1.0
C      1  0.5720130000000  0.5377990000000  0.5226530000000 1.0
C      1  0.4451990000000  0.5122310000000  0.5611180000000 1.0
C      1  0.5084480000000  0.4818940000000  0.5286420000000 1.0
C      1  0.5552590000000  0.4649060000000  0.5208710000000 1.0
C      1  0.5020560000000  0.5754040000000  0.4996830000000 1.0
C      1  0.5271790000000  0.5683350000000  0.5103300000000 1.0
C      1  0.4717240000000  0.4599200000000  0.4398320000000 1.0
C      1  0.5118630000000  0.4408390000000  0.5004200000000 1.0
C      1  0.5206990000000  0.5512400000000  0.5539380000000 1.0
C      1  0.5664770000000  0.4898990000000  0.5125940000000 1.0
C      1  0.5295780000000  0.4263680000000  0.4759390000000 1.0
C      1  0.4693610000000  0.4486200000000  0.5471920000000 1.0
C      1  0.5058690000000  0.4937860000000  0.4296120000000 1.0
C      1  0.4787690000000  0.5494400000000  0.5413170000000 1.0
C      1  0.4841390000000  0.4547360000000  0.5105280000000 1.0
C      1  0.5086530000000  0.5087140000000  0.4060660000000 1.0
END
