TITL C-2778433-5640-550 0.00419245683389282 125000 -1161.08399725638 0 0 198 (C1) n - 1
REM
REM in /home/nfs/bkarasulu/CARBON/AIRSS/Generating-Clusters/REBO/Only-C1/SD-CG/HFTN-CG
REM
REM
REM
REM
REM
REM ./C.cell (11c1c37f851c82e70ff6c80c92926a4b)
REM
REM compiler GCC version 9.2.1 20190827 (Red Hat 9.2.1-1)
REM options -cpp -mtune=generic -march=x86-64 -g -O0 -fpre-include=/usr/include/finclude/math-vector-fortran.h
REM seed 168791993 705862773 -555338446 -247728946 -1337796235 1734537480 -975716641 901447835 -795782337 -1159440672 -1146798149 -778854817 -1164079106 2093198279 1757263402 1611093619 -438710336 -1553762675 -1407557833 -1101238832 -1797561674 222086978 -1384498805 697917133 117712001 1917622981 -710340436 1392209311 -298243698 -1723515859 -468661398 -1916987251 548812846
REM
CELL 1.54180   50.00000   50.00000   50.00000   90.00000   90.00000   90.00000
LATT -1
SFAC C  
C      1  0.5205450000000  0.4113660000000  0.5649560000000 1.0
C      1  0.5044540000000  0.4771910000000  0.5806740000000 1.0
C      1  0.5656050000000  0.4333050000000  0.4525860000000 1.0
C      1  0.4944370000000  0.4239640000000  0.4182480000000 1.0
C      1  0.5045470000000  0.4971200000000  0.5564260000000 1.0
C      1  0.4716590000000  0.5181420000000  0.5221600000000 1.0
C      1  0.4742430000000  0.5312150000000  0.4932130000000 1.0
C      1  0.4733880000000  0.6069440000000  0.4641240000000 1.0
C      1  0.4196340000000  0.4346230000000  0.5436370000000 1.0
C      1  0.4795920000000  0.5179800000000  0.3907490000000 1.0
C      1  0.5907410000000  0.4472660000000  0.4506120000000 1.0
C      1  0.3867630000000  0.5186150000000  0.4996970000000 1.0
C      1  0.5144540000000  0.4249590000000  0.5902700000000 1.0
C      1  0.4384170000000  0.5664790000000  0.5692580000000 1.0
C      1  0.4774810000000  0.4316520000000  0.5645010000000 1.0
C      1  0.4982910000000  0.4079950000000  0.4546680000000 1.0
C      1  0.5529710000000  0.5539360000000  0.5381790000000 1.0
C      1  0.4933460000000  0.5312070000000  0.4476080000000 1.0
C      1  0.5008770000000  0.4852120000000  0.4792520000000 1.0
C      1  0.5474270000000  0.4628830000000  0.5974360000000 1.0
C      1  0.5351560000000  0.5814480000000  0.5156190000000 1.0
C      1  0.5006600000000  0.6517360000000  0.5028410000000 1.0
C      1  0.5231830000000  0.5214590000000  0.4966960000000 1.0
C      1  0.3850470000000  0.5201780000000  0.4419110000000 1.0
C      1  0.5373560000000  0.4465840000000  0.4965400000000 1.0
C      1  0.5522360000000  0.5149350000000  0.4170200000000 1.0
C      1  0.4586710000000  0.4040840000000  0.5568860000000 1.0
C      1  0.4086210000000  0.5315540000000  0.5190800000000 1.0
C      1  0.5232700000000  0.4886190000000  0.5291850000000 1.0
C      1  0.4259130000000  0.4747600000000  0.5731210000000 1.0
C      1  0.5046750000000  0.5214100000000  0.4067620000000 1.0
C      1  0.5505030000000  0.5364770000000  0.5915620000000 1.0
C      1  0.5729760000000  0.4234320000000  0.5025790000000 1.0
C      1  0.5201030000000  0.4212900000000  0.5318470000000 1.0
C      1  0.5601480000000  0.5267300000000  0.4597930000000 1.0
C      1  0.5640410000000  0.5575160000000  0.4452890000000 1.0
C      1  0.5254020000000  0.4123750000000  0.4457960000000 1.0
C      1  0.5997450000000  0.4916130000000  0.4679290000000 1.0
C      1  0.5441320000000  0.4844390000000  0.4039380000000 1.0
C      1  0.4443180000000  0.4111210000000  0.4872030000000 1.0
C      1  0.4989050000000  0.6188410000000  0.4672350000000 1.0
C      1  0.5030770000000  0.5984080000000  0.5371010000000 1.0
C      1  0.4793960000000  0.5028340000000  0.6111910000000 1.0
C      1  0.4045950000000  0.5364990000000  0.5498990000000 1.0
C      1  0.4666190000000  0.5397550000000  0.6035180000000 1.0
C      1  0.4087040000000  0.4463230000000  0.4912530000000 1.0
C      1  0.5605220000000  0.5985700000000  0.4898830000000 1.0
C      1  0.4621870000000  0.5493310000000  0.5266780000000 1.0
C      1  0.5432300000000  0.4529880000000  0.4417160000000 1.0
C      1  0.5952620000000  0.5703520000000  0.5192320000000 1.0
C      1  0.4927000000000  0.4567140000000  0.4624070000000 1.0
C      1  0.5372180000000  0.4373860000000  0.6023520000000 1.0
C      1  0.5582560000000  0.4987170000000  0.4536930000000 1.0
C      1  0.5167550000000  0.5727250000000  0.5497240000000 1.0
C      1  0.5477760000000  0.4129590000000  0.4634570000000 1.0
C      1  0.5227550000000  0.5082820000000  0.4333090000000 1.0
C      1  0.5511970000000  0.4079180000000  0.4918800000000 1.0
C      1  0.4277310000000  0.5368260000000  0.4117290000000 1.0
C      1  0.5214870000000  0.6027810000000  0.4503660000000 1.0
C      1  0.4859420000000  0.5801590000000  0.5808770000000 1.0
C      1  0.5205870000000  0.5247390000000  0.4632360000000 1.0
C      1  0.5894980000000  0.4669970000000  0.4283240000000 1.0
C      1  0.5700830000000  0.4540960000000  0.4916620000000 1.0
C      1  0.4258040000000  0.5104870000000  0.4982740000000 1.0
C      1  0.4635210000000  0.5643540000000  0.5894510000000 1.0
C      1  0.5633130000000  0.5205240000000  0.4912180000000 1.0
C      1  0.4672550000000  0.4262400000000  0.5247280000000 1.0
C      1  0.4451210000000  0.5349360000000  0.4862210000000 1.0
C      1  0.4291850000000  0.5580150000000  0.5248680000000 1.0
C      1  0.5040240000000  0.4473090000000  0.4918780000000 1.0
C      1  0.4412180000000  0.4796790000000  0.5438700000000 1.0
C      1  0.6080120000000  0.5450040000000  0.5001970000000 1.0
C      1  0.4432220000000  0.4496820000000  0.4100830000000 1.0
C      1  0.4226650000000  0.4229030000000  0.5115830000000 1.0
C      1  0.5994110000000  0.5469610000000  0.4674810000000 1.0
C      1  0.4799000000000  0.4345110000000  0.4464820000000 1.0
C      1  0.4488850000000  0.5136800000000  0.6089160000000 1.0
C      1  0.5331990000000  0.5880010000000  0.4771440000000 1.0
C      1  0.4837620000000  0.5122990000000  0.4723800000000 1.0
C      1  0.5376720000000  0.4471210000000  0.5620890000000 1.0
C      1  0.4637280000000  0.4856860000000  0.5669610000000 1.0
C      1  0.3855080000000  0.4900080000000  0.5041800000000 1.0
C      1  0.5546000000000  0.5881340000000  0.5396700000000 1.0
C      1  0.5879300000000  0.4490870000000  0.5384540000000 1.0
C      1  0.4477780000000  0.5208500000000  0.5539520000000 1.0
C      1  0.4489020000000  0.4541980000000  0.5253160000000 1.0
C      1  0.5059130000000  0.4509350000000  0.5611730000000 1.0
C      1  0.5168900000000  0.5540180000000  0.5212880000000 1.0
C      1  0.4906040000000  0.3827070000000  0.5460510000000 1.0
C      1  0.4482240000000  0.4453210000000  0.4859660000000 1.0
C      1  0.5291930000000  0.5384430000000  0.4082140000000 1.0
C      1  0.4890810000000  0.4893500000000  0.3891290000000 1.0
C      1  0.4578340000000  0.6024610000000  0.4873040000000 1.0
C      1  0.4171360000000  0.5715830000000  0.4666800000000 1.0
C      1  0.4880320000000  0.3776910000000  0.4978490000000 1.0
C      1  0.4055510000000  0.5005000000000  0.4401950000000 1.0
C      1  0.5908930000000  0.5414810000000  0.4394280000000 1.0
C      1  0.4762800000000  0.5150210000000  0.5629030000000 1.0
C      1  0.4926050000000  0.4072990000000  0.5367040000000 1.0
C      1  0.4872930000000  0.4015810000000  0.4805370000000 1.0
C      1  0.5408390000000  0.5100610000000  0.6003460000000 1.0
C      1  0.5492750000000  0.5013510000000  0.5472520000000 1.0
C      1  0.5715060000000  0.5388570000000  0.5153090000000 1.0
C      1  0.4651820000000  0.4662500000000  0.3943990000000 1.0
C      1  0.5143530000000  0.3762820000000  0.5090310000000 1.0
C      1  0.4515400000000  0.5183680000000  0.3958330000000 1.0
C      1  0.5740060000000  0.5905650000000  0.5136080000000 1.0
C      1  0.5353960000000  0.5730910000000  0.4406950000000 1.0
C      1  0.5790660000000  0.5644400000000  0.4814430000000 1.0
C      1  0.6033020000000  0.5084240000000  0.5428720000000 1.0
C      1  0.4399130000000  0.5969410000000  0.5150970000000 1.0
C      1  0.4798380000000  0.4711650000000  0.6005210000000 1.0
C      1  0.4198730000000  0.4623860000000  0.5149020000000 1.0
C      1  0.5441830000000  0.4968980000000  0.5029580000000 1.0
C      1  0.3975720000000  0.4731390000000  0.4828020000000 1.0
C      1  0.4414370000000  0.5050660000000  0.5258700000000 1.0
C      1  0.4622880000000  0.4885430000000  0.4696620000000 1.0
C      1  0.4577690000000  0.4710450000000  0.4902750000000 1.0
C      1  0.5151870000000  0.6065420000000  0.5118080000000 1.0
C      1  0.5855100000000  0.5557920000000  0.5486310000000 1.0
C      1  0.5237550000000  0.4547990000000  0.5255980000000 1.0
C      1  0.5056660000000  0.5274000000000  0.5687980000000 1.0
C      1  0.5689630000000  0.4396090000000  0.5730960000000 1.0
C      1  0.4603100000000  0.5731720000000  0.5048830000000 1.0
C      1  0.4507390000000  0.4077850000000  0.4536480000000 1.0
C      1  0.5221700000000  0.5645920000000  0.4155040000000 1.0
C      1  0.5264650000000  0.4349390000000  0.4203250000000 1.0
C      1  0.5821190000000  0.4950060000000  0.5538730000000 1.0
C      1  0.5897200000000  0.4187030000000  0.5265190000000 1.0
C      1  0.5358550000000  0.5265310000000  0.5283360000000 1.0
C      1  0.5561790000000  0.4375380000000  0.5359930000000 1.0
C      1  0.3962780000000  0.5461370000000  0.4825390000000 1.0
C      1  0.5447290000000  0.5784260000000  0.5686150000000 1.0
C      1  0.5953090000000  0.5148770000000  0.4906640000000 1.0
C      1  0.4877640000000  0.4396150000000  0.5944260000000 1.0
C      1  0.5950850000000  0.4637910000000  0.4750770000000 1.0
C      1  0.5593160000000  0.4779810000000  0.4304580000000 1.0
C      1  0.4793900000000  0.4676310000000  0.5472840000000 1.0
C      1  0.3967760000000  0.4777270000000  0.5295880000000 1.0
C      1  0.4581720000000  0.5770290000000  0.5445410000000 1.0
C      1  0.4955570000000  0.5285940000000  0.6074130000000 1.0
C      1  0.6001850000000  0.5326100000000  0.5300990000000 1.0
C      1  0.4258870000000  0.5860380000000  0.5438370000000 1.0
C      1  0.5154500000000  0.5712180000000  0.5833010000000 1.0
C      1  0.4163490000000  0.4939110000000  0.4699150000000 1.0
C      1  0.4439070000000  0.4318380000000  0.5580820000000 1.0
C      1  0.5510580000000  0.5587270000000  0.4973150000000 1.0
C      1  0.6005780000000  0.4687320000000  0.5190440000000 1.0
C      1  0.5311260000000  0.3997430000000  0.5108570000000 1.0
C      1  0.4550590000000  0.4254060000000  0.4242900000000 1.0
C      1  0.4356060000000  0.5192680000000  0.4608010000000 1.0
C      1  0.4423790000000  0.4893010000000  0.4008430000000 1.0
C      1  0.5826520000000  0.5169890000000  0.4278210000000 1.0
C      1  0.4466400000000  0.5278220000000  0.4363640000000 1.0
C      1  0.4722500000000  0.5858910000000  0.4404960000000 1.0
C      1  0.6040770000000  0.4896800000000  0.5075520000000 1.0
C      1  0.5698610000000  0.5869820000000  0.4614220000000 1.0
C      1  0.4447850000000  0.4018960000000  0.5260120000000 1.0
C      1  0.5880250000000  0.4647910000000  0.5660160000000 1.0
C      1  0.5019890000000  0.5791270000000  0.4667630000000 1.0
C      1  0.4474260000000  0.5687060000000  0.4524580000000 1.0
C      1  0.4281360000000  0.5385940000000  0.5635190000000 1.0
C      1  0.4075470000000  0.4600530000000  0.5526880000000 1.0
C      1  0.4393300000000  0.4384310000000  0.4585660000000 1.0
C      1  0.4214320000000  0.5035690000000  0.4171580000000 1.0
C      1  0.5252990000000  0.4667960000000  0.4642730000000 1.0
C      1  0.5042150000000  0.4834700000000  0.4191470000000 1.0
C      1  0.4743670000000  0.4926760000000  0.4259080000000 1.0
C      1  0.5063890000000  0.6265900000000  0.4939740000000 1.0
C      1  0.4953730000000  0.4537720000000  0.4041200000000 1.0
C      1  0.4812270000000  0.5916060000000  0.5553080000000 1.0
C      1  0.4812820000000  0.4245220000000  0.4944250000000 1.0
C      1  0.4734050000000  0.3991520000000  0.4292470000000 1.0
C      1  0.5190500000000  0.5425280000000  0.5921770000000 1.0
C      1  0.4588740000000  0.3845250000000  0.5027430000000 1.0
C      1  0.5586290000000  0.4796470000000  0.5721440000000 1.0
C      1  0.4394790000000  0.4590640000000  0.4386210000000 1.0
C      1  0.4569950000000  0.4802000000000  0.4439920000000 1.0
C      1  0.4929330000000  0.5769240000000  0.4146680000000 1.0
C      1  0.4699770000000  0.4788370000000  0.5164790000000 1.0
C      1  0.4722650000000  0.5670920000000  0.4757260000000 1.0
C      1  0.3932750000000  0.5444230000000  0.4515800000000 1.0
C      1  0.5808970000000  0.4140030000000  0.5563590000000 1.0
C      1  0.4935830000000  0.5595410000000  0.4429170000000 1.0
C      1  0.5495320000000  0.4097690000000  0.5555330000000 1.0
C      1  0.4484580000000  0.4835170000000  0.5954040000000 1.0
C      1  0.5329250000000  0.5543130000000  0.4695780000000 1.0
C      1  0.4252970000000  0.5573750000000  0.4938230000000 1.0
C      1  0.4949670000000  0.5544610000000  0.4987840000000 1.0
C      1  0.4924910000000  0.4487550000000  0.5238950000000 1.0
C      1  0.4197860000000  0.5572470000000  0.4358820000000 1.0
C      1  0.5285420000000  0.4852080000000  0.5976980000000 1.0
C      1  0.5514480000000  0.4791440000000  0.4791980000000 1.0
C      1  0.5953300000000  0.4944170000000  0.4393480000000 1.0
C      1  0.4722600000000  0.5198150000000  0.4299940000000 1.0
C      1  0.5280520000000  0.4601660000000  0.3974310000000 1.0
C      1  0.4986520000000  0.5023390000000  0.5087140000000 1.0
C      1  0.5650060000000  0.5556260000000  0.5758040000000 1.0
END
