TITL C-2778431-5191-29 -0.000883221360248276 125000 -585.035519109387 0 0 103 (C1) n - 1
REM
REM in /home/nfs/bkarasulu/CARBON/AIRSS/Generating-Clusters/REBO/Only-C1/SD-CG/HFTN-CG
REM
REM
REM
REM
REM
REM ./C.cell (11c1c37f851c82e70ff6c80c92926a4b)
REM
REM compiler GCC version 9.2.1 20190827 (Red Hat 9.2.1-1)
REM options -cpp -mtune=generic -march=x86-64 -g -O0 -fpre-include=/usr/include/finclude/math-vector-fortran.h
REM seed 2002198407 1121425550 -627400082 -1757663638 1228941185 367370466 2045678622 2039982991 -1649907375 672636763 1644017617 -1617018399 -1678300427 226735889 43479222 -1004977423 -1647534030 545025689 1181330128 2133539536 1948754947 1115627565 1439136116 -589608484 -1227350560 1887485592 1561161042 1520237608 -1320970825 -563204815 1717312344 -1217591505 1553043064
REM
CELL 1.54180   50.00000   50.00000   50.00000   90.00000   90.00000   90.00000
LATT -1
SFAC C  
C      1  0.4653360000000  0.4480290000000  0.5240790000000 1.0
C      1  0.5531950000000  0.4172530000000  0.5075940000000 1.0
C      1  0.5627310000000  0.4645730000000  0.5169530000000 1.0
C      1  0.5373500000000  0.5065610000000  0.5427210000000 1.0
C      1  0.4754850000000  0.4708860000000  0.4697990000000 1.0
C      1  0.4566130000000  0.5353660000000  0.4821670000000 1.0
C      1  0.4860620000000  0.4218820000000  0.5460990000000 1.0
C      1  0.4638310000000  0.4792620000000  0.4279050000000 1.0
C      1  0.4634610000000  0.5602940000000  0.4391290000000 1.0
C      1  0.4670910000000  0.5774330000000  0.4655430000000 1.0
C      1  0.5131460000000  0.5608670000000  0.4398850000000 1.0
C      1  0.4941580000000  0.5858300000000  0.4794060000000 1.0
C      1  0.5702480000000  0.5047650000000  0.4331100000000 1.0
C      1  0.4445600000000  0.5424820000000  0.4531530000000 1.0
C      1  0.5007190000000  0.5334960000000  0.5446960000000 1.0
C      1  0.4870190000000  0.5180170000000  0.5176430000000 1.0
C      1  0.4827110000000  0.4501780000000  0.4476620000000 1.0
C      1  0.4369080000000  0.4181640000000  0.4610820000000 1.0
C      1  0.4627270000000  0.5349980000000  0.5546510000000 1.0
C      1  0.4627310000000  0.4223890000000  0.4677900000000 1.0
C      1  0.5066680000000  0.5024540000000  0.5901270000000 1.0
C      1  0.4911570000000  0.4126920000000  0.4632720000000 1.0
C      1  0.4525770000000  0.4211550000000  0.5160330000000 1.0
C      1  0.5512510000000  0.5572700000000  0.5374030000000 1.0
C      1  0.5338150000000  0.4779060000000  0.4765160000000 1.0
C      1  0.4587490000000  0.4999370000000  0.4643440000000 1.0
C      1  0.5894880000000  0.5000220000000  0.4549210000000 1.0
C      1  0.4868650000000  0.4823090000000  0.5865290000000 1.0
C      1  0.5300640000000  0.4106760000000  0.4925500000000 1.0
C      1  0.5450770000000  0.4185750000000  0.5371100000000 1.0
C      1  0.4787920000000  0.5226040000000  0.4481540000000 1.0
C      1  0.4446220000000  0.5204890000000  0.5062110000000 1.0
C      1  0.4822440000000  0.5069330000000  0.5554620000000 1.0
C      1  0.5078770000000  0.5155320000000  0.6140950000000 1.0
C      1  0.5154830000000  0.4395960000000  0.4863530000000 1.0
C      1  0.4133470000000  0.4852410000000  0.4778440000000 1.0
C      1  0.5230910000000  0.5109760000000  0.5690030000000 1.0
C      1  0.5084870000000  0.5088420000000  0.4708640000000 1.0
C      1  0.4427580000000  0.4658210000000  0.4386230000000 1.0
C      1  0.5177750000000  0.4347880000000  0.5269580000000 1.0
C      1  0.5837810000000  0.4898670000000  0.5252680000000 1.0
C      1  0.4851640000000  0.5480410000000  0.4703850000000 1.0
C      1  0.5180460000000  0.4219740000000  0.5578500000000 1.0
C      1  0.5517660000000  0.5619410000000  0.4531000000000 1.0
C      1  0.4251920000000  0.5582430000000  0.4916060000000 1.0
C      1  0.4966190000000  0.4588150000000  0.5261350000000 1.0
C      1  0.5577940000000  0.5821100000000  0.5586810000000 1.0
C      1  0.4215770000000  0.5337920000000  0.4406630000000 1.0
C      1  0.4289210000000  0.4541180000000  0.4911350000000 1.0
C      1  0.4257330000000  0.4607930000000  0.4600910000000 1.0
C      1  0.5390710000000  0.5587310000000  0.4846220000000 1.0
C      1  0.5217090000000  0.4710320000000  0.5704940000000 1.0
C      1  0.4919220000000  0.4208560000000  0.5124630000000 1.0
C      1  0.5014230000000  0.4022490000000  0.4877620000000 1.0
C      1  0.5022830000000  0.4832100000000  0.5491750000000 1.0
C      1  0.5382620000000  0.5104670000000  0.4233080000000 1.0
C      1  0.4679450000000  0.4718980000000  0.5683370000000 1.0
C      1  0.5739300000000  0.5450930000000  0.4692060000000 1.0
C      1  0.5280650000000  0.5422780000000  0.5578670000000 1.0
C      1  0.5554380000000  0.5225200000000  0.4569470000000 1.0
C      1  0.4887440000000  0.5894470000000  0.5075880000000 1.0
C      1  0.4718070000000  0.4477690000000  0.5554800000000 1.0
C      1  0.4370720000000  0.5783070000000  0.4748420000000 1.0
C      1  0.5817740000000  0.5054700000000  0.4811980000000 1.0
C      1  0.4637670000000  0.5695280000000  0.5155830000000 1.0
C      1  0.4159600000000  0.4788390000000  0.5108930000000 1.0
C      1  0.5526360000000  0.4520920000000  0.4700830000000 1.0
C      1  0.4513870000000  0.4934060000000  0.5505860000000 1.0
C      1  0.5180780000000  0.4853500000000  0.4307030000000 1.0
C      1  0.4261230000000  0.5027990000000  0.5296070000000 1.0
C      1  0.5955460000000  0.5123760000000  0.5179270000000 1.0
C      1  0.5062710000000  0.4792150000000  0.4617820000000 1.0
C      1  0.4890200000000  0.5493550000000  0.4307610000000 1.0
C      1  0.4859800000000  0.5498890000000  0.5110920000000 1.0
C      1  0.4380150000000  0.5338820000000  0.5368120000000 1.0
C      1  0.5382970000000  0.5444140000000  0.4283920000000 1.0
C      1  0.4929280000000  0.5843650000000  0.5382170000000 1.0
C      1  0.5639250000000  0.4417830000000  0.4952090000000 1.0
C      1  0.4826110000000  0.5601130000000  0.5495850000000 1.0
C      1  0.5158050000000  0.5732920000000  0.4658420000000 1.0
C      1  0.4379620000000  0.5583120000000  0.5169980000000 1.0
C      1  0.5477220000000  0.5255460000000  0.5273410000000 1.0
C      1  0.4855160000000  0.4952500000000  0.4318740000000 1.0
C      1  0.5177430000000  0.4450490000000  0.5787960000000 1.0
C      1  0.4637940000000  0.4965620000000  0.5189560000000 1.0
C      1  0.5135070000000  0.4872610000000  0.5173380000000 1.0
C      1  0.4814760000000  0.4424780000000  0.4879050000000 1.0
C      1  0.5332970000000  0.4572060000000  0.4425540000000 1.0
C      1  0.4488690000000  0.4697490000000  0.5133090000000 1.0
C      1  0.4168510000000  0.5331220000000  0.4803600000000 1.0
C      1  0.5229160000000  0.5237650000000  0.4511060000000 1.0
C      1  0.5586760000000  0.5495200000000  0.5058550000000 1.0
C      1  0.5316650000000  0.4633130000000  0.5045980000000 1.0
C      1  0.5487570000000  0.4787130000000  0.5689490000000 1.0
C      1  0.5220230000000  0.5116360000000  0.5000870000000 1.0
C      1  0.5656210000000  0.4772680000000  0.5474740000000 1.0
C      1  0.5113980000000  0.5428770000000  0.4913930000000 1.0
C      1  0.4814220000000  0.5119570000000  0.4865510000000 1.0
C      1  0.5390420000000  0.5682880000000  0.5737120000000 1.0
C      1  0.5488220000000  0.5040770000000  0.4828670000000 1.0
C      1  0.5112430000000  0.4373770000000  0.4527670000000 1.0
C      1  0.5866190000000  0.5352050000000  0.4970530000000 1.0
C      1  0.4284010000000  0.5092080000000  0.4714390000000 1.0
END
