TITL C-2778435-5768-288 0.00297677591057645 125000 -853.619701222631 0 0 148 (C1) n - 1
REM
REM in /home/nfs/bkarasulu/CARBON/AIRSS/Generating-Clusters/REBO/Only-C1/SD-CG/HFTN-CG
REM
REM
REM
REM
REM
REM ./C.cell (11c1c37f851c82e70ff6c80c92926a4b)
REM
REM compiler GCC version 9.2.1 20190827 (Red Hat 9.2.1-1)
REM options -cpp -mtune=generic -march=x86-64 -g -O0 -fpre-include=/usr/include/finclude/math-vector-fortran.h
REM seed 1574506735 -50745157 -1862141026 -1206099411 122083565 -123593771 -1201577666 472815206 -1019373712 -2017443309 1407678769 -251125048 -1727730079 1239851391 1947415838 -2016846559 -593611935 1767071200 -1964891317 -878541451 1023053759 -603923729 -925526591 1365052838 294993879 -2078967215 797890702 1118496168 -1649387766 -274002911 1959341381 1065612819 -1726278106
REM
CELL 1.54180   50.00000   50.00000   50.00000   90.00000   90.00000   90.00000
LATT -1
SFAC C  
C      1  0.5205650000000  0.4255540000000  0.5366290000000 1.0
C      1  0.4458520000000  0.4995070000000  0.4058450000000 1.0
C      1  0.4410570000000  0.5239500000000  0.4695610000000 1.0
C      1  0.4772730000000  0.5539510000000  0.5220350000000 1.0
C      1  0.4707330000000  0.5205910000000  0.5912620000000 1.0
C      1  0.4706770000000  0.4940530000000  0.5479460000000 1.0
C      1  0.4596400000000  0.4425730000000  0.4544360000000 1.0
C      1  0.5642760000000  0.4787070000000  0.5746680000000 1.0
C      1  0.5129250000000  0.4581010000000  0.4037200000000 1.0
C      1  0.5127950000000  0.4942290000000  0.4814170000000 1.0
C      1  0.5355000000000  0.4536860000000  0.4883680000000 1.0
C      1  0.5291330000000  0.4589820000000  0.4405960000000 1.0
C      1  0.4861390000000  0.5828400000000  0.5067830000000 1.0
C      1  0.4596620000000  0.5663110000000  0.4820820000000 1.0
C      1  0.5887560000000  0.4853390000000  0.5859060000000 1.0
C      1  0.4321270000000  0.5749830000000  0.5469570000000 1.0
C      1  0.5134720000000  0.5134400000000  0.5098830000000 1.0
C      1  0.4252280000000  0.4230410000000  0.4851310000000 1.0
C      1  0.5023420000000  0.4123670000000  0.5130420000000 1.0
C      1  0.4969280000000  0.4722060000000  0.5029630000000 1.0
C      1  0.6013450000000  0.5204170000000  0.4668700000000 1.0
C      1  0.4843780000000  0.5291890000000  0.5084560000000 1.0
C      1  0.5437420000000  0.4539430000000  0.5657620000000 1.0
C      1  0.4669480000000  0.4452800000000  0.4056520000000 1.0
C      1  0.4853800000000  0.4343570000000  0.4983330000000 1.0
C      1  0.5200220000000  0.5323710000000  0.4334120000000 1.0
C      1  0.5387730000000  0.5025130000000  0.4521530000000 1.0
C      1  0.5317210000000  0.5948050000000  0.5485420000000 1.0
C      1  0.4580190000000  0.4458140000000  0.4874160000000 1.0
C      1  0.5250400000000  0.5939910000000  0.4639630000000 1.0
C      1  0.5648830000000  0.4779940000000  0.5421740000000 1.0
C      1  0.4924660000000  0.4445090000000  0.4176010000000 1.0
C      1  0.5066060000000  0.5469820000000  0.5480440000000 1.0
C      1  0.5520940000000  0.4184170000000  0.4994850000000 1.0
C      1  0.4910270000000  0.4501830000000  0.4486780000000 1.0
C      1  0.4752460000000  0.5467590000000  0.5540640000000 1.0
C      1  0.4667810000000  0.5472490000000  0.4126720000000 1.0
C      1  0.4305160000000  0.5838710000000  0.5170880000000 1.0
C      1  0.5064750000000  0.4791060000000  0.4508810000000 1.0
C      1  0.5132840000000  0.5670100000000  0.4997990000000 1.0
C      1  0.5734770000000  0.5560600000000  0.5674740000000 1.0
C      1  0.4529100000000  0.4063090000000  0.4855320000000 1.0
C      1  0.5632680000000  0.5952110000000  0.5411530000000 1.0
C      1  0.5420650000000  0.6047310000000  0.5190360000000 1.0
C      1  0.4587180000000  0.5820940000000  0.4520480000000 1.0
C      1  0.5854190000000  0.4587560000000  0.4999680000000 1.0
C      1  0.4159310000000  0.4482520000000  0.4784040000000 1.0
C      1  0.5756040000000  0.4729010000000  0.4503030000000 1.0
C      1  0.5679820000000  0.4385240000000  0.5473720000000 1.0
C      1  0.5186230000000  0.5554380000000  0.4712570000000 1.0
C      1  0.5900110000000  0.4602180000000  0.5328490000000 1.0
C      1  0.4456470000000  0.4628550000000  0.5105530000000 1.0
C      1  0.5637850000000  0.5652610000000  0.4900330000000 1.0
C      1  0.5672000000000  0.4344810000000  0.5152250000000 1.0
C      1  0.5443180000000  0.4814710000000  0.4784190000000 1.0
C      1  0.4696940000000  0.5062380000000  0.4991290000000 1.0
C      1  0.5188930000000  0.5242260000000  0.4664200000000 1.0
C      1  0.4444740000000  0.4461080000000  0.5567470000000 1.0
C      1  0.4395850000000  0.4950680000000  0.4755230000000 1.0
C      1  0.4142290000000  0.4898940000000  0.4450630000000 1.0
C      1  0.5750190000000  0.4525980000000  0.4699890000000 1.0
C      1  0.4798050000000  0.5729520000000  0.4307370000000 1.0
C      1  0.4037380000000  0.5106810000000  0.4681110000000 1.0
C      1  0.5420050000000  0.4705640000000  0.5174660000000 1.0
C      1  0.4757970000000  0.4375170000000  0.5504810000000 1.0
C      1  0.6107610000000  0.5159160000000  0.4926190000000 1.0
C      1  0.5764560000000  0.5436290000000  0.4668420000000 1.0
C      1  0.4765970000000  0.5947860000000  0.4782370000000 1.0
C      1  0.4420710000000  0.5243420000000  0.4178330000000 1.0
C      1  0.4487220000000  0.4719180000000  0.4050610000000 1.0
C      1  0.4609250000000  0.4822860000000  0.4568140000000 1.0
C      1  0.4941330000000  0.4437970000000  0.5730020000000 1.0
C      1  0.4422750000000  0.4460980000000  0.4272460000000 1.0
C      1  0.5140270000000  0.4659610000000  0.5629910000000 1.0
C      1  0.5193350000000  0.5739190000000  0.5619850000000 1.0
C      1  0.4130920000000  0.5110160000000  0.5008120000000 1.0
C      1  0.4706710000000  0.5517920000000  0.3851090000000 1.0
C      1  0.5508740000000  0.5396250000000  0.5747490000000 1.0
C      1  0.4892680000000  0.4418990000000  0.6011960000000 1.0
C      1  0.5519170000000  0.4299800000000  0.4711810000000 1.0
C      1  0.5008120000000  0.5392010000000  0.5919500000000 1.0
C      1  0.5015290000000  0.4948990000000  0.5599550000000 1.0
C      1  0.4965900000000  0.5513050000000  0.4478020000000 1.0
C      1  0.4202100000000  0.4849630000000  0.5164350000000 1.0
C      1  0.5000750000000  0.5071160000000  0.5879440000000 1.0
C      1  0.4644020000000  0.5407370000000  0.4519540000000 1.0
C      1  0.5476880000000  0.5309980000000  0.5236530000000 1.0
C      1  0.4798200000000  0.5204880000000  0.4292860000000 1.0
C      1  0.5383160000000  0.5876990000000  0.4948400000000 1.0
C      1  0.5890650000000  0.5008950000000  0.5140710000000 1.0
C      1  0.4272960000000  0.4434270000000  0.5288690000000 1.0
C      1  0.4189370000000  0.4755500000000  0.4839650000000 1.0
C      1  0.4456060000000  0.5057410000000  0.5768140000000 1.0
C      1  0.4264770000000  0.5558200000000  0.5663020000000 1.0
C      1  0.5742140000000  0.4883750000000  0.4876380000000 1.0
C      1  0.5585130000000  0.5197420000000  0.4027680000000 1.0
C      1  0.4370800000000  0.4139630000000  0.5148360000000 1.0
C      1  0.4261510000000  0.5246340000000  0.5581970000000 1.0
C      1  0.5049090000000  0.4500350000000  0.4782370000000 1.0
C      1  0.4960920000000  0.4988240000000  0.4286930000000 1.0
C      1  0.5275850000000  0.4304840000000  0.4517230000000 1.0
C      1  0.5419700000000  0.3923170000000  0.5412760000000 1.0
C      1  0.5348900000000  0.5042820000000  0.4209010000000 1.0
C      1  0.5582990000000  0.4762810000000  0.4046240000000 1.0
C      1  0.4410130000000  0.4729870000000  0.5675710000000 1.0
C      1  0.4973150000000  0.5918850000000  0.4535620000000 1.0
C      1  0.4894870000000  0.4486620000000  0.5266840000000 1.0
C      1  0.5469960000000  0.5696270000000  0.4606770000000 1.0
C      1  0.4687410000000  0.4820480000000  0.5193120000000 1.0
C      1  0.5447040000000  0.4180320000000  0.5578860000000 1.0
C      1  0.5172290000000  0.5145820000000  0.5437120000000 1.0
C      1  0.4697350000000  0.4822750000000  0.5804300000000 1.0
C      1  0.4150280000000  0.5542840000000  0.4684450000000 1.0
C      1  0.4517540000000  0.4157130000000  0.5430000000000 1.0
C      1  0.4350390000000  0.5328430000000  0.5148050000000 1.0
C      1  0.5541130000000  0.4702110000000  0.4308580000000 1.0
C      1  0.5682000000000  0.5531740000000  0.5182580000000 1.0
C      1  0.4100780000000  0.5419070000000  0.4918330000000 1.0
C      1  0.5467470000000  0.5196120000000  0.5549030000000 1.0
C      1  0.4547600000000  0.5232870000000  0.5409910000000 1.0
C      1  0.4198820000000  0.4923100000000  0.5493370000000 1.0
C      1  0.5202140000000  0.4567250000000  0.5335210000000 1.0
C      1  0.5324770000000  0.4001790000000  0.5125750000000 1.0
C      1  0.5749960000000  0.5688640000000  0.5415570000000 1.0
C      1  0.4411170000000  0.5607090000000  0.5893280000000 1.0
C      1  0.4881060000000  0.4714420000000  0.6012630000000 1.0
C      1  0.5194350000000  0.5452910000000  0.5187180000000 1.0
C      1  0.5396600000000  0.4796160000000  0.5960990000000 1.0
C      1  0.4793910000000  0.4972360000000  0.4738350000000 1.0
C      1  0.4991980000000  0.4126420000000  0.4596380000000 1.0
C      1  0.4702240000000  0.5525000000000  0.5853390000000 1.0
C      1  0.5146810000000  0.4857280000000  0.4071610000000 1.0
C      1  0.4226850000000  0.5224990000000  0.4418520000000 1.0
C      1  0.5145980000000  0.4852530000000  0.6039670000000 1.0
C      1  0.4354630000000  0.5590320000000  0.4515280000000 1.0
C      1  0.4358860000000  0.4725430000000  0.4428420000000 1.0
C      1  0.4615030000000  0.5824000000000  0.5304600000000 1.0
C      1  0.5624720000000  0.5150030000000  0.4704230000000 1.0
C      1  0.6207600000000  0.5104770000000  0.5219960000000 1.0
C      1  0.5928370000000  0.4961160000000  0.4526080000000 1.0
C      1  0.4091200000000  0.4614480000000  0.5464180000000 1.0
C      1  0.4430270000000  0.5607150000000  0.5025770000000 1.0
C      1  0.5566370000000  0.5013290000000  0.5208770000000 1.0
C      1  0.5640890000000  0.5560330000000  0.4386910000000 1.0
C      1  0.5258880000000  0.5528570000000  0.5824820000000 1.0
C      1  0.5185220000000  0.4009870000000  0.4375320000000 1.0
C      1  0.5485160000000  0.5415940000000  0.4203610000000 1.0
C      1  0.4720020000000  0.4150220000000  0.4661080000000 1.0
END
