TITL C-2778423-5760-1027 0.0376595267176011 125000 -1043.65945057846 0 0 177 (C1) n - 1
REM
REM in /home/nfs/bkarasulu/CARBON/AIRSS/Generating-Clusters/REBO/Only-C1/SD-CG/HFTN-CG
REM
REM
REM
REM
REM
REM ./C.cell (11c1c37f851c82e70ff6c80c92926a4b)
REM
REM compiler GCC version 9.2.1 20190827 (Red Hat 9.2.1-1)
REM options -cpp -mtune=generic -march=x86-64 -g -O0 -fpre-include=/usr/include/finclude/math-vector-fortran.h
REM seed -1563281954 1116882079 139871928 1748910494 -629839231 -1204745969 612852557 -187881921 473687027 638731622 -161788058 1360614698 1499866929 1128956335 629441037 277141881 -230265734 162613950 140961411 1889673178 1050264217 1855740064 1740535180 -111352873 -19489479 -1596461275 1189926532 -951914 189299803 1638028457 -345645008 -1559306315 -731138042
REM
CELL 1.54180   50.00000   50.00000   50.00000   90.00000   90.00000   90.00000
LATT -1
SFAC C  
C      1  0.5050370000000  0.5104080000000  0.4720340000000 1.0
C      1  0.5380050000000  0.4031210000000  0.4788350000000 1.0
C      1  0.5967140000000  0.4666690000000  0.4631550000000 1.0
C      1  0.4508950000000  0.5095330000000  0.4269650000000 1.0
C      1  0.4278530000000  0.5260260000000  0.5715350000000 1.0
C      1  0.4868950000000  0.5219790000000  0.4006610000000 1.0
C      1  0.4337030000000  0.5502950000000  0.4420320000000 1.0
C      1  0.4371920000000  0.5062170000000  0.5105380000000 1.0
C      1  0.4545230000000  0.6125740000000  0.4738610000000 1.0
C      1  0.5432180000000  0.5565670000000  0.5232580000000 1.0
C      1  0.5915910000000  0.4352110000000  0.4879150000000 1.0
C      1  0.5386240000000  0.5700220000000  0.4475450000000 1.0
C      1  0.4825770000000  0.5172770000000  0.6110400000000 1.0
C      1  0.4945450000000  0.4728660000000  0.6042480000000 1.0
C      1  0.5413620000000  0.5348510000000  0.4287330000000 1.0
C      1  0.4805170000000  0.5939430000000  0.4869110000000 1.0
C      1  0.4610630000000  0.4382620000000  0.5884620000000 1.0
C      1  0.5067760000000  0.4034880000000  0.5705220000000 1.0
C      1  0.3942380000000  0.5444410000000  0.5034180000000 1.0
C      1  0.5317900000000  0.6012630000000  0.4715650000000 1.0
C      1  0.4758990000000  0.5281870000000  0.4714640000000 1.0
C      1  0.4803090000000  0.4733510000000  0.4030300000000 1.0
C      1  0.4740140000000  0.5400180000000  0.5735360000000 1.0
C      1  0.5796380000000  0.4257520000000  0.4644840000000 1.0
C      1  0.5302310000000  0.4214810000000  0.5671070000000 1.0
C      1  0.5661310000000  0.5420830000000  0.4399580000000 1.0
C      1  0.4048040000000  0.4644010000000  0.4536070000000 1.0
C      1  0.5179770000000  0.5582000000000  0.4903070000000 1.0
C      1  0.4327590000000  0.4332910000000  0.5353660000000 1.0
C      1  0.4549320000000  0.4735160000000  0.4542440000000 1.0
C      1  0.6143470000000  0.4805530000000  0.4801340000000 1.0
C      1  0.4797020000000  0.4395920000000  0.4009790000000 1.0
C      1  0.5001690000000  0.4493450000000  0.4751970000000 1.0
C      1  0.5591620000000  0.5742090000000  0.5409790000000 1.0
C      1  0.4595600000000  0.4507850000000  0.5284910000000 1.0
C      1  0.4920990000000  0.6066050000000  0.5374390000000 1.0
C      1  0.4792900000000  0.4513760000000  0.4937180000000 1.0
C      1  0.5001710000000  0.4833600000000  0.4368230000000 1.0
C      1  0.5166160000000  0.3853040000000  0.4907750000000 1.0
C      1  0.4411780000000  0.4895620000000  0.5366170000000 1.0
C      1  0.4773730000000  0.5603260000000  0.4803660000000 1.0
C      1  0.5476610000000  0.4802380000000  0.5091960000000 1.0
C      1  0.5505090000000  0.4392450000000  0.5476870000000 1.0
C      1  0.6128750000000  0.5301450000000  0.4681470000000 1.0
C      1  0.5390480000000  0.6161590000000  0.5446420000000 1.0
C      1  0.4370820000000  0.5002350000000  0.5686590000000 1.0
C      1  0.4652740000000  0.5932730000000  0.5400360000000 1.0
C      1  0.4456420000000  0.4719310000000  0.4930840000000 1.0
C      1  0.4926870000000  0.5469120000000  0.5995240000000 1.0
C      1  0.4715070000000  0.3947730000000  0.4831410000000 1.0
C      1  0.3842160000000  0.5425520000000  0.4335100000000 1.0
C      1  0.4534930000000  0.4828010000000  0.4156310000000 1.0
C      1  0.5596460000000  0.5936130000000  0.4765320000000 1.0
C      1  0.6017100000000  0.5096900000000  0.4875620000000 1.0
C      1  0.4180040000000  0.5355110000000  0.5447620000000 1.0
C      1  0.4253220000000  0.4889760000000  0.4607700000000 1.0
C      1  0.4944940000000  0.5433130000000  0.5033960000000 1.0
C      1  0.5876140000000  0.5218260000000  0.5149460000000 1.0
C      1  0.5296350000000  0.4351070000000  0.4741030000000 1.0
C      1  0.4840850000000  0.4324290000000  0.5168760000000 1.0
C      1  0.4896870000000  0.4070010000000  0.5469780000000 1.0
C      1  0.5630360000000  0.5344370000000  0.5726760000000 1.0
C      1  0.4715390000000  0.5279720000000  0.4390780000000 1.0
C      1  0.4996250000000  0.4964620000000  0.3952830000000 1.0
C      1  0.5088370000000  0.4357310000000  0.5363050000000 1.0
C      1  0.4169030000000  0.5041410000000  0.4859030000000 1.0
C      1  0.4444460000000  0.5427860000000  0.5844040000000 1.0
C      1  0.5001050000000  0.6057410000000  0.5109880000000 1.0
C      1  0.4722030000000  0.4913630000000  0.6048480000000 1.0
C      1  0.5533770000000  0.4623500000000  0.4335150000000 1.0
C      1  0.4034380000000  0.5319740000000  0.4781250000000 1.0
C      1  0.4825000000000  0.5857840000000  0.4458830000000 1.0
C      1  0.3956790000000  0.4704650000000  0.4838330000000 1.0
C      1  0.4741880000000  0.4809140000000  0.5100460000000 1.0
C      1  0.5186230000000  0.4677450000000  0.5426850000000 1.0
C      1  0.5577620000000  0.4302730000000  0.4443710000000 1.0
C      1  0.4034550000000  0.4861580000000  0.5486860000000 1.0
C      1  0.5159140000000  0.5154060000000  0.6071390000000 1.0
C      1  0.4919380000000  0.4505590000000  0.5841280000000 1.0
C      1  0.4654130000000  0.4470530000000  0.4375690000000 1.0
C      1  0.4763100000000  0.4567160000000  0.5567630000000 1.0
C      1  0.5696880000000  0.4642270000000  0.4616560000000 1.0
C      1  0.5542070000000  0.4854340000000  0.4100070000000 1.0
C      1  0.4836230000000  0.5114820000000  0.5627530000000 1.0
C      1  0.4512930000000  0.4428740000000  0.4792540000000 1.0
C      1  0.4253630000000  0.5113720000000  0.4398050000000 1.0
C      1  0.3988890000000  0.5114820000000  0.5385210000000 1.0
C      1  0.6124490000000  0.4998700000000  0.5247930000000 1.0
C      1  0.6127290000000  0.5288570000000  0.4399170000000 1.0
C      1  0.5811430000000  0.4509170000000  0.5423730000000 1.0
C      1  0.5010930000000  0.4542140000000  0.4210290000000 1.0
C      1  0.5143830000000  0.4962570000000  0.5245260000000 1.0
C      1  0.3851830000000  0.4968350000000  0.4937670000000 1.0
C      1  0.5228450000000  0.4922120000000  0.4937130000000 1.0
C      1  0.5410860000000  0.4668930000000  0.5904950000000 1.0
C      1  0.5376690000000  0.5276600000000  0.4010620000000 1.0
C      1  0.6153330000000  0.4765470000000  0.5102030000000 1.0
C      1  0.5145360000000  0.5484030000000  0.5375830000000 1.0
C      1  0.4371680000000  0.5739090000000  0.5428420000000 1.0
C      1  0.4562580000000  0.5895190000000  0.4555610000000 1.0
C      1  0.4180100000000  0.4333680000000  0.5080760000000 1.0
C      1  0.5238100000000  0.5436670000000  0.5941210000000 1.0
C      1  0.5789510000000  0.4864240000000  0.4974530000000 1.0
C      1  0.4564990000000  0.5022470000000  0.4818320000000 1.0
C      1  0.4456160000000  0.5622040000000  0.4674590000000 1.0
C      1  0.4273930000000  0.4621050000000  0.5519280000000 1.0
C      1  0.4310660000000  0.4624950000000  0.4314720000000 1.0
C      1  0.5031060000000  0.6005050000000  0.4616830000000 1.0
C      1  0.4877560000000  0.5755280000000  0.5848840000000 1.0
C      1  0.5914730000000  0.4558850000000  0.5129150000000 1.0
C      1  0.4435070000000  0.5584270000000  0.5012390000000 1.0
C      1  0.5204830000000  0.4737030000000  0.4698610000000 1.0
C      1  0.5647150000000  0.5619930000000  0.4661960000000 1.0
C      1  0.5565600000000  0.4196620000000  0.4988690000000 1.0
C      1  0.4638180000000  0.5712870000000  0.5641870000000 1.0
C      1  0.4800780000000  0.4905350000000  0.4599480000000 1.0
C      1  0.4494070000000  0.4099220000000  0.4705330000000 1.0
C      1  0.4263460000000  0.4391530000000  0.4563320000000 1.0
C      1  0.5190090000000  0.5888090000000  0.4963770000000 1.0
C      1  0.4630670000000  0.4254000000000  0.5500120000000 1.0
C      1  0.6352910000000  0.5275110000000  0.4248720000000 1.0
C      1  0.5283620000000  0.4077950000000  0.5371380000000 1.0
C      1  0.4200860000000  0.4186220000000  0.4830130000000 1.0
C      1  0.4730270000000  0.4869240000000  0.5437600000000 1.0
C      1  0.5206870000000  0.4505950000000  0.5716690000000 1.0
C      1  0.4589780000000  0.5832010000000  0.5107350000000 1.0
C      1  0.5549880000000  0.4505490000000  0.4838490000000 1.0
C      1  0.4622130000000  0.5361440000000  0.3993940000000 1.0
C      1  0.4067960000000  0.5358290000000  0.4481820000000 1.0
C      1  0.5018670000000  0.5301410000000  0.4265610000000 1.0
C      1  0.4961550000000  0.3869120000000  0.4701060000000 1.0
C      1  0.5290660000000  0.4984240000000  0.3989740000000 1.0
C      1  0.5731280000000  0.4874780000000  0.5290200000000 1.0
C      1  0.5056550000000  0.4031930000000  0.4467870000000 1.0
C      1  0.5313480000000  0.5358100000000  0.5632510000000 1.0
C      1  0.5228090000000  0.5165830000000  0.4459620000000 1.0
C      1  0.5321080000000  0.4857560000000  0.4430400000000 1.0
C      1  0.5590380000000  0.6008020000000  0.5306690000000 1.0
C      1  0.5865090000000  0.5257520000000  0.4289980000000 1.0
C      1  0.4446480000000  0.5477890000000  0.4171700000000 1.0
C      1  0.4866420000000  0.5116690000000  0.5118190000000 1.0
C      1  0.4505450000000  0.5443210000000  0.5379810000000 1.0
C      1  0.5540840000000  0.4064470000000  0.5250770000000 1.0
C      1  0.4780550000000  0.4032300000000  0.5095980000000 1.0
C      1  0.5174730000000  0.4486630000000  0.4458930000000 1.0
C      1  0.5773490000000  0.4926510000000  0.5541020000000 1.0
C      1  0.5222460000000  0.4831750000000  0.6061420000000 1.0
C      1  0.5495420000000  0.4475310000000  0.5173870000000 1.0
C      1  0.5323320000000  0.5197070000000  0.5332320000000 1.0
C      1  0.5056270000000  0.3910540000000  0.5210260000000 1.0
C      1  0.5493660000000  0.5489800000000  0.4909180000000 1.0
C      1  0.5144920000000  0.5622530000000  0.4592180000000 1.0
C      1  0.4833260000000  0.5480860000000  0.5346440000000 1.0
C      1  0.5584450000000  0.5648080000000  0.5680890000000 1.0
C      1  0.4170020000000  0.4612340000000  0.5005650000000 1.0
C      1  0.5765950000000  0.5036340000000  0.4133960000000 1.0
C      1  0.4422090000000  0.4570420000000  0.5804950000000 1.0
C      1  0.5633900000000  0.4591870000000  0.5704430000000 1.0
C      1  0.4173300000000  0.5576520000000  0.5201370000000 1.0
C      1  0.6090330000000  0.5265750000000  0.5410290000000 1.0
C      1  0.5137340000000  0.6072820000000  0.5557270000000 1.0
C      1  0.4577850000000  0.5297460000000  0.5103780000000 1.0
C      1  0.4900480000000  0.5567120000000  0.4406070000000 1.0
C      1  0.5124680000000  0.5882570000000  0.5772820000000 1.0
C      1  0.5562330000000  0.5048890000000  0.5678180000000 1.0
C      1  0.5676800000000  0.6021940000000  0.5030130000000 1.0
C      1  0.5346270000000  0.5710320000000  0.5828520000000 1.0
C      1  0.4489850000000  0.4839670000000  0.5887430000000 1.0
C      1  0.3845810000000  0.5179910000000  0.5146170000000 1.0
C      1  0.5364220000000  0.4087180000000  0.4454430000000 1.0
C      1  0.5297630000000  0.4930370000000  0.5626670000000 1.0
C      1  0.5085960000000  0.5054800000000  0.5759540000000 1.0
C      1  0.4543420000000  0.4151030000000  0.4409490000000 1.0
C      1  0.4870470000000  0.4232940000000  0.4418270000000 1.0
C      1  0.4634480000000  0.4190920000000  0.4091010000000 1.0
C      1  0.5426000000000  0.5432520000000  0.3794680000000 1.0
C      1  0.5592240000000  0.5278890000000  0.5147100000000 1.0
END
