TITL C-2778425-5191-50 -0.00250397582835544 125000 -782.574097002664 0 0 132 (C1) n - 1
REM
REM in /home/nfs/bkarasulu/CARBON/AIRSS/Generating-Clusters/REBO/Only-C1/SD-CG/HFTN-CG
REM
REM
REM
REM
REM
REM ./C.cell (11c1c37f851c82e70ff6c80c92926a4b)
REM
REM compiler GCC version 9.2.1 20190827 (Red Hat 9.2.1-1)
REM options -cpp -mtune=generic -march=x86-64 -g -O0 -fpre-include=/usr/include/finclude/math-vector-fortran.h
REM seed 1039834518 -1131388255 -1505325329 900163405 -1493599632 1213762991 -828911622 15149207 2090321568 -1342180440 358185024 -1474135754 -384946271 -1628933771 -2100270916 -1383670458 -1405347232 -1004195775 871343021 -1281659559 1306762259 1347685074 -460719803 1946708505 602949537 547439286 -990449309 1536545484 -604977766 -568242010 155319722 1000792540 1917544854
REM
CELL 1.54180   50.00000   50.00000   50.00000   90.00000   90.00000   90.00000
LATT -1
SFAC C  
C      1  0.5679490000000  0.5443700000000  0.4361100000000 1.0
C      1  0.4431750000000  0.5081170000000  0.4819490000000 1.0
C      1  0.4803840000000  0.4821140000000  0.4764520000000 1.0
C      1  0.5581080000000  0.4820740000000  0.5654010000000 1.0
C      1  0.4350330000000  0.5438810000000  0.4585800000000 1.0
C      1  0.4190590000000  0.4903270000000  0.5190720000000 1.0
C      1  0.3997660000000  0.5323320000000  0.5058130000000 1.0
C      1  0.4445200000000  0.5711200000000  0.4744920000000 1.0
C      1  0.5830650000000  0.4529110000000  0.5228130000000 1.0
C      1  0.5368720000000  0.5111180000000  0.3856700000000 1.0
C      1  0.5052800000000  0.4301610000000  0.4202220000000 1.0
C      1  0.5188140000000  0.4532380000000  0.4007990000000 1.0
C      1  0.5012840000000  0.4391560000000  0.5789400000000 1.0
C      1  0.5151570000000  0.4860170000000  0.5931350000000 1.0
C      1  0.4337270000000  0.4563650000000  0.5337950000000 1.0
C      1  0.4363530000000  0.4714240000000  0.4453460000000 1.0
C      1  0.4936910000000  0.5606180000000  0.4783160000000 1.0
C      1  0.4742610000000  0.5463390000000  0.4251060000000 1.0
C      1  0.5081620000000  0.5193040000000  0.5319270000000 1.0
C      1  0.4824960000000  0.4539260000000  0.5578560000000 1.0
C      1  0.4796570000000  0.5986300000000  0.5327850000000 1.0
C      1  0.4291150000000  0.5128340000000  0.4457510000000 1.0
C      1  0.4549700000000  0.4110610000000  0.5273270000000 1.0
C      1  0.5394400000000  0.4398160000000  0.4582710000000 1.0
C      1  0.5981030000000  0.5083010000000  0.4882450000000 1.0
C      1  0.5624620000000  0.4530990000000  0.4966820000000 1.0
C      1  0.4643670000000  0.4749510000000  0.5928790000000 1.0
C      1  0.4922930000000  0.5783950000000  0.4429420000000 1.0
C      1  0.5208700000000  0.5866440000000  0.4608250000000 1.0
C      1  0.4943800000000  0.5857410000000  0.5572010000000 1.0
C      1  0.5310970000000  0.4176340000000  0.5083370000000 1.0
C      1  0.5441620000000  0.5534380000000  0.5686180000000 1.0
C      1  0.3980440000000  0.5078320000000  0.5255240000000 1.0
C      1  0.4778450000000  0.5420860000000  0.4875750000000 1.0
C      1  0.4906930000000  0.5928750000000  0.4747330000000 1.0
C      1  0.4359250000000  0.4302870000000  0.5160540000000 1.0
C      1  0.5145870000000  0.5078990000000  0.4911950000000 1.0
C      1  0.4730950000000  0.5179730000000  0.4268510000000 1.0
C      1  0.4944990000000  0.4770050000000  0.4014230000000 1.0
C      1  0.5854190000000  0.5278030000000  0.4687920000000 1.0
C      1  0.5023730000000  0.5296240000000  0.3935940000000 1.0
C      1  0.5783190000000  0.5121460000000  0.5489790000000 1.0
C      1  0.4263990000000  0.4351150000000  0.4901450000000 1.0
C      1  0.5959310000000  0.4816940000000  0.5096780000000 1.0
C      1  0.5380620000000  0.4705490000000  0.5860330000000 1.0
C      1  0.4970030000000  0.4589530000000  0.4735950000000 1.0
C      1  0.5275780000000  0.4849270000000  0.3968430000000 1.0
C      1  0.4500320000000  0.4769630000000  0.4735820000000 1.0
C      1  0.4931010000000  0.5589420000000  0.5746410000000 1.0
C      1  0.4452820000000  0.5053220000000  0.5215340000000 1.0
C      1  0.4681590000000  0.5269860000000  0.6003130000000 1.0
C      1  0.5192530000000  0.5532090000000  0.4622530000000 1.0
C      1  0.5818360000000  0.5166120000000  0.4367040000000 1.0
C      1  0.4446160000000  0.5329300000000  0.5249640000000 1.0
C      1  0.5635040000000  0.4253420000000  0.5158670000000 1.0
C      1  0.4274600000000  0.4686030000000  0.5631710000000 1.0
C      1  0.5471270000000  0.5774120000000  0.4781210000000 1.0
C      1  0.4523430000000  0.5509430000000  0.5006780000000 1.0
C      1  0.5834160000000  0.4812230000000  0.5413540000000 1.0
C      1  0.4326420000000  0.5637790000000  0.5329100000000 1.0
C      1  0.4662740000000  0.4171310000000  0.5532710000000 1.0
C      1  0.4055360000000  0.5198310000000  0.5536620000000 1.0
C      1  0.5856070000000  0.4674870000000  0.4569880000000 1.0
C      1  0.5545230000000  0.5207460000000  0.4652580000000 1.0
C      1  0.5450150000000  0.4748660000000  0.4216430000000 1.0
C      1  0.4928370000000  0.4193910000000  0.4970950000000 1.0
C      1  0.4077680000000  0.5451480000000  0.5340620000000 1.0
C      1  0.5075310000000  0.3991210000000  0.5251660000000 1.0
C      1  0.5235790000000  0.5628970000000  0.5239300000000 1.0
C      1  0.4560070000000  0.4959190000000  0.5581700000000 1.0
C      1  0.5640300000000  0.5121890000000  0.5759490000000 1.0
C      1  0.5748520000000  0.4850840000000  0.4344190000000 1.0
C      1  0.5299560000000  0.4169300000000  0.4786670000000 1.0
C      1  0.4781990000000  0.4364290000000  0.4264360000000 1.0
C      1  0.5115210000000  0.5942850000000  0.5215030000000 1.0
C      1  0.4845610000000  0.5144290000000  0.4788590000000 1.0
C      1  0.4996100000000  0.4886720000000  0.5108250000000 1.0
C      1  0.5469080000000  0.4978660000000  0.4465990000000 1.0
C      1  0.5658710000000  0.4508250000000  0.4681100000000 1.0
C      1  0.5694150000000  0.5577070000000  0.4632750000000 1.0
C      1  0.5439440000000  0.4834740000000  0.5366470000000 1.0
C      1  0.5347980000000  0.4440400000000  0.4294470000000 1.0
C      1  0.5663050000000  0.5561230000000  0.5515220000000 1.0
C      1  0.5307350000000  0.4899650000000  0.4719750000000 1.0
C      1  0.4243900000000  0.5019930000000  0.5691210000000 1.0
C      1  0.4914800000000  0.4644170000000  0.5277300000000 1.0
C      1  0.5582760000000  0.5531390000000  0.5006660000000 1.0
C      1  0.4507370000000  0.5924350000000  0.5330050000000 1.0
C      1  0.4387990000000  0.4351650000000  0.4612160000000 1.0
C      1  0.5410370000000  0.5878940000000  0.5085920000000 1.0
C      1  0.4911790000000  0.5362940000000  0.5894960000000 1.0
C      1  0.4398290000000  0.4699850000000  0.5040250000000 1.0
C      1  0.5232900000000  0.5356980000000  0.5090570000000 1.0
C      1  0.5198080000000  0.5618550000000  0.4297850000000 1.0
C      1  0.4972240000000  0.5532570000000  0.4101150000000 1.0
C      1  0.5373300000000  0.5387580000000  0.4799110000000 1.0
C      1  0.5034470000000  0.5179290000000  0.5561480000000 1.0
C      1  0.5151710000000  0.5156770000000  0.5858140000000 1.0
C      1  0.5435430000000  0.4585820000000  0.5243490000000 1.0
C      1  0.4760740000000  0.3980420000000  0.5119250000000 1.0
C      1  0.5662830000000  0.5336530000000  0.5259820000000 1.0
C      1  0.5438730000000  0.5352810000000  0.3951470000000 1.0
C      1  0.4622590000000  0.5093050000000  0.4535090000000 1.0
C      1  0.6018370000000  0.4789980000000  0.4766080000000 1.0
C      1  0.4620400000000  0.5628430000000  0.4478980000000 1.0
C      1  0.4614230000000  0.4715320000000  0.5423770000000 1.0
C      1  0.4919020000000  0.4689510000000  0.5931360000000 1.0
C      1  0.5642970000000  0.5733450000000  0.5270480000000 1.0
C      1  0.5429720000000  0.5291530000000  0.5826930000000 1.0
C      1  0.4148570000000  0.4593250000000  0.4688410000000 1.0
C      1  0.4465560000000  0.4718010000000  0.4210330000000 1.0
C      1  0.5462800000000  0.5506150000000  0.4186250000000 1.0
C      1  0.4853960000000  0.4335310000000  0.4739130000000 1.0
C      1  0.5195530000000  0.5637240000000  0.5553220000000 1.0
C      1  0.4705970000000  0.4604910000000  0.4127100000000 1.0
C      1  0.4892350000000  0.6058830000000  0.5009350000000 1.0
C      1  0.4513490000000  0.5041890000000  0.5901780000000 1.0
C      1  0.4886280000000  0.5069270000000  0.4056930000000 1.0
C      1  0.4151050000000  0.5262210000000  0.4802040000000 1.0
C      1  0.4540870000000  0.4300030000000  0.5747820000000 1.0
C      1  0.5234270000000  0.4630550000000  0.4713920000000 1.0
C      1  0.5313910000000  0.4431200000000  0.5848080000000 1.0
C      1  0.5471440000000  0.4271770000000  0.5683670000000 1.0
C      1  0.5468610000000  0.5075810000000  0.5247970000000 1.0
C      1  0.4139410000000  0.4934270000000  0.4694580000000 1.0
C      1  0.5462470000000  0.4334590000000  0.5417620000000 1.0
C      1  0.4983450000000  0.4192900000000  0.5511310000000 1.0
C      1  0.5066150000000  0.4371480000000  0.5228030000000 1.0
C      1  0.4383430000000  0.5816810000000  0.5044680000000 1.0
C      1  0.4656290000000  0.4308160000000  0.4526240000000 1.0
C      1  0.4461040000000  0.4561360000000  0.5814790000000 1.0
C      1  0.4678100000000  0.4891680000000  0.5070830000000 1.0
END
