TITL C-2778424-3986-1063 -0.00643105047963934 125000 -469.286466663949 0 0 84 (C1) n - 1
REM
REM in /home/nfs/bkarasulu/CARBON/AIRSS/Generating-Clusters/REBO/Only-C1/SD-CG/HFTN-CG
REM
REM
REM
REM
REM
REM ./C.cell (11c1c37f851c82e70ff6c80c92926a4b)
REM
REM compiler GCC version 9.2.1 20190827 (Red Hat 9.2.1-1)
REM options -cpp -mtune=generic -march=x86-64 -g -O0 -fpre-include=/usr/include/finclude/math-vector-fortran.h
REM seed 1303769896 1857102045 -1459650065 137410281 271870802 -901205390 2012194312 1332063052 1193453429 368684667 -272558980 -946925429 -1531516013 -563189709 1713280966 53753383 -2052418086 1564381603 -1977432882 -114614963 579145771 -1147386369 -122887824 181494099 -769413256 908130854 -1975449908 -1885765891 1308939462 954726431 -1728480227 1697106548 1948848200
REM
CELL 1.54180   50.00000   50.00000   50.00000   90.00000   90.00000   90.00000
LATT -1
SFAC C  
C      1  0.5106240000000  0.4487960000000  0.4454850000000 1.0
C      1  0.5139040000000  0.4886800000000  0.5385880000000 1.0
C      1  0.4674100000000  0.5512660000000  0.5094880000000 1.0
C      1  0.4140790000000  0.5109440000000  0.5117640000000 1.0
C      1  0.5079150000000  0.5150940000000  0.4152540000000 1.0
C      1  0.4939230000000  0.4628490000000  0.5132090000000 1.0
C      1  0.4507710000000  0.5131930000000  0.4739410000000 1.0
C      1  0.4598580000000  0.4553130000000  0.5446040000000 1.0
C      1  0.5705680000000  0.5505420000000  0.5200070000000 1.0
C      1  0.5577890000000  0.4475380000000  0.4765810000000 1.0
C      1  0.5095390000000  0.5022790000000  0.4531070000000 1.0
C      1  0.4639310000000  0.4490830000000  0.5123260000000 1.0
C      1  0.5063170000000  0.5705820000000  0.4487780000000 1.0
C      1  0.5065090000000  0.4994580000000  0.4849320000000 1.0
C      1  0.5673600000000  0.4937010000000  0.4821300000000 1.0
C      1  0.4186160000000  0.5442510000000  0.5110890000000 1.0
C      1  0.5168740000000  0.4789960000000  0.4321850000000 1.0
C      1  0.5033710000000  0.5374190000000  0.4706990000000 1.0
C      1  0.4305270000000  0.4968900000000  0.5348750000000 1.0
C      1  0.5009470000000  0.5605260000000  0.5662690000000 1.0
C      1  0.4543450000000  0.4123700000000  0.4821080000000 1.0
C      1  0.4244160000000  0.5279650000000  0.4841130000000 1.0
C      1  0.5412270000000  0.4576780000000  0.4553960000000 1.0
C      1  0.5631800000000  0.4311700000000  0.5308570000000 1.0
C      1  0.4511880000000  0.4746090000000  0.4464890000000 1.0
C      1  0.5502180000000  0.5366920000000  0.4424550000000 1.0
C      1  0.5478630000000  0.5376040000000  0.5502120000000 1.0
C      1  0.4902680000000  0.5776130000000  0.4731270000000 1.0
C      1  0.5748500000000  0.5221000000000  0.4808230000000 1.0
C      1  0.4431220000000  0.4283680000000  0.5008160000000 1.0
C      1  0.5611100000000  0.5474800000000  0.4712320000000 1.0
C      1  0.4332060000000  0.4668370000000  0.5296480000000 1.0
C      1  0.5500840000000  0.5680590000000  0.5244430000000 1.0
C      1  0.5567640000000  0.4947810000000  0.5200650000000 1.0
C      1  0.4711120000000  0.5220420000000  0.4287040000000 1.0
C      1  0.4545620000000  0.4921500000000  0.5587720000000 1.0
C      1  0.4837140000000  0.4789570000000  0.5513910000000 1.0
C      1  0.4871690000000  0.4926870000000  0.4215790000000 1.0
C      1  0.4342860000000  0.4909450000000  0.4938150000000 1.0
C      1  0.5344850000000  0.5628280000000  0.4556020000000 1.0
C      1  0.4507480000000  0.5032500000000  0.4456520000000 1.0
C      1  0.5388390000000  0.4404890000000  0.5133050000000 1.0
C      1  0.4666260000000  0.5579050000000  0.4767030000000 1.0
C      1  0.4357560000000  0.4626960000000  0.4656160000000 1.0
C      1  0.5270890000000  0.5192610000000  0.5300970000000 1.0
C      1  0.5247820000000  0.4292730000000  0.4898560000000 1.0
C      1  0.5353570000000  0.4815430000000  0.4868870000000 1.0
C      1  0.4847750000000  0.4954880000000  0.5091360000000 1.0
C      1  0.5475830000000  0.4518790000000  0.5505400000000 1.0
C      1  0.5403780000000  0.5181410000000  0.5003400000000 1.0
C      1  0.5330510000000  0.4684250000000  0.5672330000000 1.0
C      1  0.4618640000000  0.5449670000000  0.4524310000000 1.0
C      1  0.5041360000000  0.5070510000000  0.5864830000000 1.0
C      1  0.5702350000000  0.4642550000000  0.5272990000000 1.0
C      1  0.4990220000000  0.5276620000000  0.5439960000000 1.0
C      1  0.5242950000000  0.5617460000000  0.5458730000000 1.0
C      1  0.4917440000000  0.5727850000000  0.5033600000000 1.0
C      1  0.5138120000000  0.5323160000000  0.4401310000000 1.0
C      1  0.5191490000000  0.5644500000000  0.5126550000000 1.0
C      1  0.5226010000000  0.5426470000000  0.4908280000000 1.0
C      1  0.4825830000000  0.5545380000000  0.4304450000000 1.0
C      1  0.5110740000000  0.4589750000000  0.4868500000000 1.0
C      1  0.5360520000000  0.4989650000000  0.5626950000000 1.0
C      1  0.5323160000000  0.4710270000000  0.5184170000000 1.0
C      1  0.4869160000000  0.4392940000000  0.5537700000000 1.0
C      1  0.5457280000000  0.4872670000000  0.4484480000000 1.0
C      1  0.4394350000000  0.5588960000000  0.5205690000000 1.0
C      1  0.4628900000000  0.4761020000000  0.4924580000000 1.0
C      1  0.5383400000000  0.5152490000000  0.4663370000000 1.0
C      1  0.4818340000000  0.4563790000000  0.4721880000000 1.0
C      1  0.5676750000000  0.5228640000000  0.5290770000000 1.0
C      1  0.5041890000000  0.4795540000000  0.5761430000000 1.0
C      1  0.5058050000000  0.4469470000000  0.5378550000000 1.0
C      1  0.4845860000000  0.5322000000000  0.5745330000000 1.0
C      1  0.4799020000000  0.5203450000000  0.4787590000000 1.0
C      1  0.4565400000000  0.5228620000000  0.5688110000000 1.0
C      1  0.5712860000000  0.4660960000000  0.4942270000000 1.0
C      1  0.5065440000000  0.4257440000000  0.4652890000000 1.0
C      1  0.4808100000000  0.4648520000000  0.4401140000000 1.0
C      1  0.4773890000000  0.4226330000000  0.4705200000000 1.0
C      1  0.4278480000000  0.4577110000000  0.4979180000000 1.0
C      1  0.5235210000000  0.5277780000000  0.5688950000000 1.0
C      1  0.4775400000000  0.5229740000000  0.5225830000000 1.0
C      1  0.4493550000000  0.5241890000000  0.5377210000000 1.0
END
