TITL C-2778436-5916-766 -0.00297706182272533 125000 -931.128632561547 0 0 160 (C1) n - 1
REM
REM in /home/nfs/bkarasulu/CARBON/AIRSS/Generating-Clusters/REBO/Only-C1/SD-CG/HFTN-CG
REM
REM
REM
REM
REM
REM ./C.cell (11c1c37f851c82e70ff6c80c92926a4b)
REM
REM compiler GCC version 9.2.1 20190827 (Red Hat 9.2.1-1)
REM options -cpp -mtune=generic -march=x86-64 -g -O0 -fpre-include=/usr/include/finclude/math-vector-fortran.h
REM seed 1187126094 -205357054 69679661 617522042 906615271 355107853 1872074949 -1057296362 1646674642 -930879490 742613860 -127467570 307434032 1102926924 -669528898 -699000655 1184848653 -338777727 863609014 -1151990232 1878403800 -616087954 -1788607366 282406823 1526816282 -355315463 2034018156 -381717305 -689901354 631781586 -1985978559 263252656 2130066842
REM
CELL 1.54180   50.00000   50.00000   50.00000   90.00000   90.00000   90.00000
LATT -1
SFAC C  
C      1  0.5251900000000  0.4092410000000  0.4627270000000 1.0
C      1  0.4633840000000  0.5929200000000  0.4540300000000 1.0
C      1  0.4567530000000  0.4833220000000  0.4459950000000 1.0
C      1  0.5313050000000  0.4317410000000  0.4422910000000 1.0
C      1  0.6019120000000  0.5166400000000  0.5691500000000 1.0
C      1  0.4269560000000  0.5002650000000  0.4451680000000 1.0
C      1  0.4460350000000  0.5866060000000  0.5294640000000 1.0
C      1  0.4058520000000  0.4784250000000  0.5178920000000 1.0
C      1  0.5266100000000  0.4559680000000  0.4912060000000 1.0
C      1  0.5063320000000  0.5689510000000  0.5722480000000 1.0
C      1  0.5748090000000  0.4751320000000  0.5200490000000 1.0
C      1  0.4992620000000  0.5074370000000  0.5032070000000 1.0
C      1  0.4582310000000  0.5781210000000  0.4808590000000 1.0
C      1  0.4649170000000  0.5532350000000  0.4507150000000 1.0
C      1  0.5079590000000  0.4745310000000  0.4469480000000 1.0
C      1  0.5501060000000  0.5362650000000  0.4443950000000 1.0
C      1  0.4840460000000  0.4905260000000  0.4596430000000 1.0
C      1  0.5460970000000  0.4998490000000  0.6463580000000 1.0
C      1  0.5203950000000  0.4524900000000  0.5439750000000 1.0
C      1  0.5036330000000  0.5256260000000  0.5429410000000 1.0
C      1  0.4742860000000  0.5705980000000  0.5267610000000 1.0
C      1  0.4939420000000  0.5282440000000  0.6000250000000 1.0
C      1  0.4911730000000  0.4757540000000  0.5976790000000 1.0
C      1  0.4393680000000  0.5506320000000  0.4735730000000 1.0
C      1  0.4220350000000  0.5441770000000  0.5722500000000 1.0
C      1  0.4230530000000  0.5138460000000  0.5705850000000 1.0
C      1  0.5432110000000  0.4877890000000  0.5205460000000 1.0
C      1  0.5668780000000  0.4704560000000  0.4220960000000 1.0
C      1  0.5563600000000  0.5507600000000  0.4810740000000 1.0
C      1  0.4436500000000  0.4655350000000  0.5187370000000 1.0
C      1  0.5061480000000  0.4498510000000  0.5808470000000 1.0
C      1  0.5538770000000  0.4073690000000  0.4754100000000 1.0
C      1  0.4661040000000  0.4572190000000  0.5504190000000 1.0
C      1  0.4671990000000  0.4562090000000  0.5829100000000 1.0
C      1  0.4942760000000  0.4100770000000  0.4755950000000 1.0
C      1  0.5416020000000  0.4092000000000  0.5414070000000 1.0
C      1  0.5134470000000  0.5759100000000  0.5234070000000 1.0
C      1  0.4265420000000  0.5522940000000  0.5334420000000 1.0
C      1  0.4093750000000  0.5732020000000  0.4940580000000 1.0
C      1  0.4470310000000  0.4979510000000  0.5199280000000 1.0
C      1  0.5103340000000  0.5576280000000  0.4737070000000 1.0
C      1  0.5612520000000  0.4408080000000  0.4328940000000 1.0
C      1  0.4225140000000  0.5126890000000  0.5309820000000 1.0
C      1  0.4410970000000  0.4309630000000  0.4637200000000 1.0
C      1  0.4806890000000  0.4280490000000  0.5741380000000 1.0
C      1  0.6047850000000  0.4683870000000  0.5052770000000 1.0
C      1  0.4334210000000  0.4591720000000  0.5507750000000 1.0
C      1  0.5054630000000  0.4402690000000  0.4267130000000 1.0
C      1  0.5092390000000  0.5000330000000  0.6041400000000 1.0
C      1  0.4424780000000  0.4918920000000  0.4890350000000 1.0
C      1  0.4094810000000  0.5355420000000  0.4519240000000 1.0
C      1  0.4806220000000  0.4473750000000  0.4733580000000 1.0
C      1  0.4626180000000  0.5157350000000  0.4373000000000 1.0
C      1  0.4091020000000  0.4992900000000  0.4906030000000 1.0
C      1  0.4907280000000  0.5008920000000  0.5573940000000 1.0
C      1  0.4019340000000  0.5261210000000  0.4772910000000 1.0
C      1  0.5406700000000  0.5135690000000  0.5924200000000 1.0
C      1  0.5974870000000  0.5371180000000  0.5099890000000 1.0
C      1  0.5207900000000  0.4167010000000  0.4957540000000 1.0
C      1  0.5833600000000  0.4910500000000  0.4375740000000 1.0
C      1  0.3987110000000  0.5464440000000  0.4969750000000 1.0
C      1  0.5582370000000  0.5004350000000  0.5460890000000 1.0
C      1  0.5416130000000  0.5066330000000  0.4935130000000 1.0
C      1  0.5116670000000  0.4790110000000  0.5636970000000 1.0
C      1  0.5088390000000  0.4003050000000  0.5391400000000 1.0
C      1  0.4583860000000  0.4617970000000  0.4906830000000 1.0
C      1  0.4401560000000  0.5166900000000  0.4703650000000 1.0
C      1  0.5504390000000  0.5763820000000  0.5383430000000 1.0
C      1  0.5440160000000  0.5513410000000  0.5553080000000 1.0
C      1  0.5540630000000  0.4603350000000  0.4585220000000 1.0
C      1  0.4820190000000  0.4844310000000  0.4882370000000 1.0
C      1  0.4746720000000  0.4182640000000  0.5485690000000 1.0
C      1  0.5719740000000  0.4303130000000  0.4633820000000 1.0
C      1  0.6053520000000  0.5093450000000  0.4918230000000 1.0
C      1  0.5475210000000  0.4636670000000  0.5576200000000 1.0
C      1  0.5755750000000  0.5382500000000  0.5328900000000 1.0
C      1  0.5801400000000  0.5360290000000  0.5616490000000 1.0
C      1  0.4814000000000  0.4403440000000  0.5256150000000 1.0
C      1  0.4195530000000  0.4704580000000  0.4390850000000 1.0
C      1  0.5154540000000  0.4799300000000  0.5096250000000 1.0
C      1  0.4119960000000  0.4663150000000  0.4864480000000 1.0
C      1  0.4085980000000  0.4904980000000  0.5496010000000 1.0
C      1  0.5398980000000  0.5874580000000  0.4893010000000 1.0
C      1  0.4347250000000  0.5843720000000  0.5019390000000 1.0
C      1  0.4594890000000  0.4661450000000  0.4100430000000 1.0
C      1  0.4814020000000  0.5344830000000  0.4960410000000 1.0
C      1  0.5408460000000  0.4918100000000  0.5718300000000 1.0
C      1  0.4857600000000  0.4707720000000  0.5183410000000 1.0
C      1  0.5744950000000  0.5051090000000  0.5037210000000 1.0
C      1  0.4447120000000  0.5828570000000  0.4338850000000 1.0
C      1  0.5121570000000  0.5917830000000  0.4982410000000 1.0
C      1  0.5359100000000  0.5246830000000  0.5392090000000 1.0
C      1  0.4720020000000  0.4066870000000  0.4966770000000 1.0
C      1  0.5696730000000  0.4553330000000  0.5430980000000 1.0
C      1  0.5174690000000  0.5485680000000  0.5157680000000 1.0
C      1  0.5119650000000  0.4406790000000  0.5158870000000 1.0
C      1  0.5093590000000  0.4698800000000  0.4137990000000 1.0
C      1  0.5182010000000  0.4247210000000  0.5609410000000 1.0
C      1  0.4580970000000  0.4855620000000  0.5926190000000 1.0
C      1  0.4196470000000  0.4542800000000  0.4625210000000 1.0
C      1  0.4302850000000  0.4816140000000  0.5746850000000 1.0
C      1  0.5188730000000  0.5267440000000  0.4845930000000 1.0
C      1  0.4742820000000  0.5260120000000  0.5280710000000 1.0
C      1  0.5642720000000  0.5125530000000  0.4333420000000 1.0
C      1  0.5215300000000  0.5840290000000  0.5518270000000 1.0
C      1  0.5409340000000  0.5175850000000  0.4102360000000 1.0
C      1  0.4855310000000  0.4272620000000  0.4475570000000 1.0
C      1  0.5592970000000  0.4923070000000  0.4692830000000 1.0
C      1  0.5589630000000  0.5795910000000  0.5103070000000 1.0
C      1  0.5720010000000  0.4279270000000  0.5040450000000 1.0
C      1  0.6082390000000  0.4962560000000  0.5232310000000 1.0
C      1  0.5183820000000  0.5409400000000  0.4472200000000 1.0
C      1  0.5041210000000  0.5542030000000  0.5962460000000 1.0
C      1  0.4538360000000  0.5527840000000  0.4206350000000 1.0
C      1  0.4860410000000  0.5683600000000  0.4953690000000 1.0
C      1  0.4288240000000  0.4628590000000  0.4125520000000 1.0
C      1  0.5047670000000  0.5503030000000  0.4186620000000 1.0
C      1  0.5516750000000  0.5642760000000  0.4289420000000 1.0
C      1  0.5571680000000  0.4541960000000  0.4913410000000 1.0
C      1  0.5680170000000  0.4280880000000  0.5349750000000 1.0
C      1  0.5813150000000  0.5608670000000  0.5005430000000 1.0
C      1  0.5358640000000  0.5032060000000  0.6229810000000 1.0
C      1  0.4567210000000  0.4184480000000  0.4367780000000 1.0
C      1  0.4767270000000  0.5099050000000  0.5831250000000 1.0
C      1  0.4910300000000  0.5989210000000  0.4506980000000 1.0
C      1  0.5834580000000  0.4736510000000  0.4810650000000 1.0
C      1  0.5331840000000  0.5473290000000  0.4101630000000 1.0
C      1  0.4707880000000  0.4877780000000  0.5391540000000 1.0
C      1  0.4485410000000  0.5235560000000  0.5502750000000 1.0
C      1  0.5445510000000  0.5727020000000  0.4597480000000 1.0
C      1  0.4043080000000  0.5368630000000  0.5229680000000 1.0
C      1  0.4171610000000  0.4466610000000  0.5235760000000 1.0
C      1  0.6006070000000  0.5319010000000  0.4595740000000 1.0
C      1  0.5722620000000  0.5235660000000  0.4747010000000 1.0
C      1  0.5405540000000  0.4832620000000  0.4099520000000 1.0
C      1  0.4133400000000  0.4537890000000  0.3922310000000 1.0
C      1  0.5947950000000  0.4421930000000  0.4856510000000 1.0
C      1  0.4803720000000  0.5397020000000  0.4107430000000 1.0
C      1  0.5906000000000  0.5009000000000  0.5458780000000 1.0
C      1  0.4893210000000  0.5552720000000  0.5506920000000 1.0
C      1  0.4784740000000  0.5097750000000  0.4091210000000 1.0
C      1  0.5135530000000  0.5865340000000  0.4586950000000 1.0
C      1  0.4262080000000  0.4208250000000  0.5089040000000 1.0
C      1  0.4244680000000  0.5638690000000  0.4465550000000 1.0
C      1  0.5133830000000  0.4503680000000  0.4645610000000 1.0
C      1  0.4462300000000  0.4171870000000  0.4903340000000 1.0
C      1  0.4323190000000  0.5733180000000  0.5577440000000 1.0
C      1  0.5483860000000  0.4057090000000  0.5087620000000 1.0
C      1  0.4710960000000  0.5273050000000  0.4683170000000 1.0
C      1  0.5061430000000  0.5131740000000  0.4558970000000 1.0
C      1  0.4585460000000  0.5518360000000  0.5582150000000 1.0
C      1  0.5487020000000  0.5410500000000  0.5122230000000 1.0
C      1  0.4325470000000  0.5291230000000  0.4287420000000 1.0
C      1  0.4550780000000  0.4522240000000  0.4406120000000 1.0
C      1  0.5551630000000  0.5378180000000  0.5806570000000 1.0
C      1  0.6019760000000  0.5007680000000  0.4589040000000 1.0
C      1  0.5258510000000  0.4995820000000  0.4346460000000 1.0
C      1  0.4825900000000  0.4005660000000  0.5230870000000 1.0
C      1  0.4509650000000  0.5483990000000  0.5191350000000 1.0
C      1  0.4821950000000  0.4821630000000  0.4052360000000 1.0
END
