TITL C-2778426-5645-985 0.000421395336333334 125000 -845.733961775199 0 0 147 (C1) n - 1
REM
REM in /home/nfs/bkarasulu/CARBON/AIRSS/Generating-Clusters/REBO/Only-C1/SD-CG/HFTN-CG
REM
REM
REM
REM
REM
REM ./C.cell (11c1c37f851c82e70ff6c80c92926a4b)
REM
REM compiler GCC version 9.2.1 20190827 (Red Hat 9.2.1-1)
REM options -cpp -mtune=generic -march=x86-64 -g -O0 -fpre-include=/usr/include/finclude/math-vector-fortran.h
REM seed -1708299318 -1266190314 -1299914930 884019058 -1756884219 229519123 -1209982829 -1688873234 -1677724870 -487318157 1757510346 598936939 -86687229 -849931657 2046919634 -1735291710 -1724504965 1678246604 -1605427359 1580742870 -1165433618 15302769 1934556411 -612539662 -214541061 1934713606 2046900290 1533812625 2038293632 -857372587 -1887983644 -916756427 -363844024
REM
CELL 1.54180   50.00000   50.00000   50.00000   90.00000   90.00000   90.00000
LATT -1
SFAC C  
C      1  0.4636910000000  0.4769630000000  0.5415910000000 1.0
C      1  0.4161550000000  0.4617700000000  0.5181140000000 1.0
C      1  0.4442250000000  0.5507650000000  0.5084370000000 1.0
C      1  0.4140850000000  0.5265030000000  0.5487760000000 1.0
C      1  0.4360530000000  0.5641570000000  0.4467380000000 1.0
C      1  0.4886710000000  0.5660970000000  0.5225360000000 1.0
C      1  0.5072570000000  0.5370580000000  0.5421130000000 1.0
C      1  0.4562160000000  0.4376680000000  0.4843720000000 1.0
C      1  0.5186650000000  0.5645720000000  0.4174080000000 1.0
C      1  0.5001980000000  0.5138620000000  0.4377640000000 1.0
C      1  0.4640910000000  0.5870360000000  0.4989840000000 1.0
C      1  0.5097600000000  0.4547220000000  0.5147680000000 1.0
C      1  0.4803270000000  0.4616700000000  0.5624330000000 1.0
C      1  0.5168950000000  0.5429450000000  0.5829080000000 1.0
C      1  0.5050760000000  0.4119150000000  0.5260450000000 1.0
C      1  0.5527530000000  0.5120710000000  0.5563660000000 1.0
C      1  0.4512840000000  0.6107790000000  0.4840880000000 1.0
C      1  0.5471280000000  0.4209020000000  0.4582280000000 1.0
C      1  0.5625450000000  0.5500470000000  0.5215400000000 1.0
C      1  0.4380320000000  0.4922530000000  0.4655640000000 1.0
C      1  0.4477560000000  0.4325870000000  0.4525540000000 1.0
C      1  0.5618330000000  0.4509340000000  0.5616960000000 1.0
C      1  0.5565210000000  0.5516080000000  0.5531510000000 1.0
C      1  0.4789210000000  0.4235020000000  0.4419050000000 1.0
C      1  0.4532100000000  0.5684840000000  0.5561190000000 1.0
C      1  0.4614360000000  0.4276660000000  0.5715540000000 1.0
C      1  0.4211730000000  0.4497540000000  0.4548370000000 1.0
C      1  0.4491900000000  0.5304350000000  0.4637510000000 1.0
C      1  0.4577490000000  0.5584080000000  0.4811340000000 1.0
C      1  0.5618860000000  0.4886180000000  0.4052510000000 1.0
C      1  0.4462140000000  0.5030860000000  0.5477800000000 1.0
C      1  0.5967580000000  0.4695460000000  0.5097350000000 1.0
C      1  0.4638140000000  0.5239350000000  0.5004760000000 1.0
C      1  0.4512700000000  0.5488800000000  0.4286930000000 1.0
C      1  0.5533920000000  0.5179000000000  0.5140030000000 1.0
C      1  0.5875510000000  0.4733830000000  0.5618920000000 1.0
C      1  0.5842980000000  0.5033220000000  0.4381290000000 1.0
C      1  0.4634690000000  0.4498130000000  0.4285580000000 1.0
C      1  0.5234930000000  0.5143770000000  0.5535780000000 1.0
C      1  0.4168930000000  0.5374290000000  0.5167390000000 1.0
C      1  0.5749000000000  0.4482320000000  0.4663370000000 1.0
C      1  0.5289160000000  0.4008570000000  0.5210910000000 1.0
C      1  0.5558790000000  0.4742430000000  0.5858250000000 1.0
C      1  0.5069480000000  0.5740860000000  0.4735240000000 1.0
C      1  0.4827680000000  0.5145800000000  0.6039730000000 1.0
C      1  0.4050350000000  0.4676610000000  0.5453670000000 1.0
C      1  0.4955290000000  0.4089100000000  0.4653610000000 1.0
C      1  0.5498650000000  0.5698870000000  0.5008960000000 1.0
C      1  0.5027450000000  0.4435720000000  0.4281370000000 1.0
C      1  0.5307930000000  0.4543320000000  0.5621800000000 1.0
C      1  0.5786670000000  0.5313240000000  0.5664050000000 1.0
C      1  0.5511700000000  0.4685860000000  0.5275210000000 1.0
C      1  0.5315240000000  0.4952610000000  0.5194640000000 1.0
C      1  0.4714300000000  0.4618230000000  0.4657910000000 1.0
C      1  0.4184500000000  0.4711150000000  0.4365790000000 1.0
C      1  0.5444640000000  0.5596830000000  0.4352250000000 1.0
C      1  0.4007940000000  0.5049780000000  0.5002860000000 1.0
C      1  0.4983250000000  0.5776920000000  0.4344180000000 1.0
C      1  0.5635910000000  0.4368630000000  0.5309600000000 1.0
C      1  0.4669860000000  0.5044190000000  0.4744620000000 1.0
C      1  0.5010190000000  0.4983060000000  0.5350660000000 1.0
C      1  0.5251280000000  0.5129000000000  0.5851690000000 1.0
C      1  0.4402840000000  0.4798300000000  0.5161590000000 1.0
C      1  0.4264430000000  0.4319590000000  0.5076480000000 1.0
C      1  0.3971530000000  0.5049010000000  0.5281140000000 1.0
C      1  0.5865190000000  0.4761720000000  0.4819780000000 1.0
C      1  0.4173850000000  0.5591210000000  0.4666440000000 1.0
C      1  0.5083390000000  0.4565480000000  0.5447240000000 1.0
C      1  0.5268260000000  0.5026130000000  0.4285770000000 1.0
C      1  0.5582010000000  0.4441910000000  0.4366380000000 1.0
C      1  0.5544110000000  0.4157360000000  0.5100130000000 1.0
C      1  0.5315510000000  0.5604320000000  0.5633930000000 1.0
C      1  0.4898720000000  0.4310570000000  0.5048950000000 1.0
C      1  0.5309270000000  0.5350140000000  0.4515960000000 1.0
C      1  0.4097460000000  0.5023350000000  0.4393200000000 1.0
C      1  0.5860960000000  0.5108290000000  0.5209440000000 1.0
C      1  0.4800660000000  0.4814860000000  0.5141770000000 1.0
C      1  0.5408360000000  0.4896560000000  0.4811120000000 1.0
C      1  0.5178460000000  0.5797140000000  0.5460720000000 1.0
C      1  0.5392810000000  0.4614200000000  0.4988160000000 1.0
C      1  0.4594000000000  0.4796620000000  0.4440510000000 1.0
C      1  0.5838840000000  0.5333290000000  0.4396030000000 1.0
C      1  0.4492870000000  0.4545040000000  0.5744830000000 1.0
C      1  0.4923750000000  0.4964640000000  0.4631200000000 1.0
C      1  0.5070420000000  0.4843410000000  0.4982850000000 1.0
C      1  0.5534300000000  0.4380860000000  0.4869420000000 1.0
C      1  0.4965600000000  0.5249860000000  0.4915670000000 1.0
C      1  0.5097900000000  0.5433540000000  0.5125610000000 1.0
C      1  0.4354150000000  0.4907980000000  0.4145750000000 1.0
C      1  0.4578730000000  0.4236950000000  0.5142960000000 1.0
C      1  0.5187130000000  0.4725890000000  0.4203490000000 1.0
C      1  0.4244480000000  0.4648190000000  0.5712080000000 1.0
C      1  0.4860370000000  0.4707430000000  0.4157530000000 1.0
C      1  0.4028140000000  0.5366870000000  0.4877950000000 1.0
C      1  0.4918550000000  0.4269360000000  0.5784770000000 1.0
C      1  0.5740900000000  0.5073390000000  0.4765460000000 1.0
C      1  0.4116240000000  0.4526170000000  0.4850860000000 1.0
C      1  0.5947140000000  0.5494750000000  0.5190250000000 1.0
C      1  0.5058900000000  0.4557650000000  0.5843530000000 1.0
C      1  0.5234940000000  0.4246190000000  0.4368500000000 1.0
C      1  0.4773900000000  0.5474050000000  0.5489080000000 1.0
C      1  0.5105100000000  0.4681150000000  0.4683460000000 1.0
C      1  0.5420320000000  0.4680720000000  0.4553560000000 1.0
C      1  0.5691680000000  0.4909010000000  0.5397700000000 1.0
C      1  0.5748270000000  0.4773130000000  0.4504320000000 1.0
C      1  0.5133610000000  0.3931490000000  0.4784660000000 1.0
C      1  0.4902610000000  0.5432900000000  0.5944410000000 1.0
C      1  0.4856060000000  0.5486720000000  0.4736990000000 1.0
C      1  0.5526830000000  0.5104280000000  0.4496760000000 1.0
C      1  0.4882030000000  0.5858630000000  0.5503960000000 1.0
C      1  0.4948060000000  0.4403020000000  0.4743510000000 1.0
C      1  0.4968310000000  0.5878000000000  0.4991490000000 1.0
C      1  0.5263170000000  0.4809980000000  0.5937780000000 1.0
C      1  0.4766650000000  0.5136010000000  0.5518960000000 1.0
C      1  0.5489580000000  0.4668150000000  0.4160670000000 1.0
C      1  0.5260760000000  0.5516660000000  0.4875450000000 1.0
C      1  0.4766340000000  0.5287620000000  0.4182290000000 1.0
C      1  0.5633460000000  0.5398610000000  0.4210770000000 1.0
C      1  0.5049660000000  0.5427930000000  0.4057110000000 1.0
C      1  0.4616760000000  0.5548930000000  0.5848830000000 1.0
C      1  0.4605000000000  0.5211290000000  0.5802500000000 1.0
C      1  0.5523600000000  0.5333100000000  0.4850680000000 1.0
C      1  0.5751050000000  0.4998220000000  0.5786980000000 1.0
C      1  0.6008810000000  0.5308200000000  0.5442750000000 1.0
C      1  0.4180400000000  0.4952510000000  0.5604060000000 1.0
C      1  0.5303480000000  0.5862620000000  0.4611860000000 1.0
C      1  0.4604610000000  0.4145120000000  0.5433250000000 1.0
C      1  0.4597040000000  0.5915590000000  0.5326510000000 1.0
C      1  0.4361430000000  0.5406270000000  0.5662120000000 1.0
C      1  0.5784900000000  0.5457400000000  0.4667330000000 1.0
C      1  0.4139780000000  0.4845110000000  0.4853470000000 1.0
C      1  0.5393940000000  0.4014880000000  0.4826060000000 1.0
C      1  0.4173900000000  0.5192920000000  0.4660980000000 1.0
C      1  0.4340080000000  0.5748420000000  0.5220430000000 1.0
C      1  0.4391030000000  0.5125530000000  0.5180710000000 1.0
C      1  0.4594310000000  0.4699080000000  0.4940860000000 1.0
C      1  0.5553790000000  0.5691760000000  0.4668800000000 1.0
C      1  0.5203870000000  0.5122270000000  0.4732040000000 1.0
C      1  0.5514820000000  0.5163440000000  0.4102230000000 1.0
C      1  0.4686000000000  0.4978410000000  0.4171150000000 1.0
C      1  0.4995640000000  0.4943180000000  0.6093630000000 1.0
C      1  0.4907200000000  0.4111670000000  0.5505290000000 1.0
C      1  0.4991190000000  0.5458150000000  0.4465270000000 1.0
C      1  0.5891600000000  0.4570310000000  0.5331300000000 1.0
C      1  0.4389170000000  0.5194470000000  0.4327180000000 1.0
C      1  0.5243110000000  0.5835960000000  0.5178970000000 1.0
C      1  0.5913350000000  0.5301580000000  0.4930930000000 1.0
END
