TITL C-2778433-5640-960 -0.00199955596464907 125000 -1003.46020612193 0 0 174 (C1) n - 1
REM
REM in /home/nfs/bkarasulu/CARBON/AIRSS/Generating-Clusters/REBO/Only-C1/SD-CG/HFTN-CG
REM
REM
REM
REM
REM
REM ./C.cell (11c1c37f851c82e70ff6c80c92926a4b)
REM
REM compiler GCC version 9.2.1 20190827 (Red Hat 9.2.1-1)
REM options -cpp -mtune=generic -march=x86-64 -g -O0 -fpre-include=/usr/include/finclude/math-vector-fortran.h
REM seed -1871012536 -1208707618 1441104354 416461643 -621866029 -1805825933 27421364 255058815 1076731433 923934462 -216163612 1626309907 -1152855029 -822533026 -1124390202 129926881 -313962818 944546332 704189896 -726352595 534496416 1114856270 -722027943 -1571548728 708728433 -112955063 -1044008399 -491304437 -983684630 -934989802 636546458 489485302 -1792523149
REM
CELL 1.54180   50.00000   50.00000   50.00000   90.00000   90.00000   90.00000
LATT -1
SFAC C  
C      1  0.4387560000000  0.5185480000000  0.5205130000000 1.0
C      1  0.4350390000000  0.4434750000000  0.4382800000000 1.0
C      1  0.5479650000000  0.4601360000000  0.5348740000000 1.0
C      1  0.5618650000000  0.4601470000000  0.4845970000000 1.0
C      1  0.5236400000000  0.4657180000000  0.5549370000000 1.0
C      1  0.5940080000000  0.5035900000000  0.5304680000000 1.0
C      1  0.5171840000000  0.5113150000000  0.4414580000000 1.0
C      1  0.5349040000000  0.5835770000000  0.4520030000000 1.0
C      1  0.5179500000000  0.5301250000000  0.5014420000000 1.0
C      1  0.5244290000000  0.4575210000000  0.5103130000000 1.0
C      1  0.5278560000000  0.4030120000000  0.4702900000000 1.0
C      1  0.4685760000000  0.5483350000000  0.5592250000000 1.0
C      1  0.5046370000000  0.5892870000000  0.5302800000000 1.0
C      1  0.4317520000000  0.4232630000000  0.4739540000000 1.0
C      1  0.4511350000000  0.4915970000000  0.4480120000000 1.0
C      1  0.5151080000000  0.4166550000000  0.5597140000000 1.0
C      1  0.4934130000000  0.5297820000000  0.5840670000000 1.0
C      1  0.4830200000000  0.4222150000000  0.5331450000000 1.0
C      1  0.4065020000000  0.5116650000000  0.4612200000000 1.0
C      1  0.4964160000000  0.4833390000000  0.4638700000000 1.0
C      1  0.5174170000000  0.5275640000000  0.6038720000000 1.0
C      1  0.5126350000000  0.5889060000000  0.4972160000000 1.0
C      1  0.4393090000000  0.5505610000000  0.5182260000000 1.0
C      1  0.4673010000000  0.5423900000000  0.4084610000000 1.0
C      1  0.5540510000000  0.4861990000000  0.5052690000000 1.0
C      1  0.4234840000000  0.5374320000000  0.4710640000000 1.0
C      1  0.4055140000000  0.4734740000000  0.5395780000000 1.0
C      1  0.5745880000000  0.5124710000000  0.4740560000000 1.0
C      1  0.4725300000000  0.6003440000000  0.5318700000000 1.0
C      1  0.4119930000000  0.5667320000000  0.4706060000000 1.0
C      1  0.4144220000000  0.4509370000000  0.4643720000000 1.0
C      1  0.5422850000000  0.5505090000000  0.4190470000000 1.0
C      1  0.5145510000000  0.4819730000000  0.4886110000000 1.0
C      1  0.4005000000000  0.5173630000000  0.5051430000000 1.0
C      1  0.5506450000000  0.4170530000000  0.4601440000000 1.0
C      1  0.4579130000000  0.5122330000000  0.5724530000000 1.0
C      1  0.5323290000000  0.4835490000000  0.4463990000000 1.0
C      1  0.5666160000000  0.4585270000000  0.5701320000000 1.0
C      1  0.5744400000000  0.5678990000000  0.5045830000000 1.0
C      1  0.5003400000000  0.4509090000000  0.5964010000000 1.0
C      1  0.4752280000000  0.5797890000000  0.5555260000000 1.0
C      1  0.5523170000000  0.5384770000000  0.5200490000000 1.0
C      1  0.5545360000000  0.5503750000000  0.5820540000000 1.0
C      1  0.5056070000000  0.4003700000000  0.4535320000000 1.0
C      1  0.5447050000000  0.4331670000000  0.5641620000000 1.0
C      1  0.4825130000000  0.4235280000000  0.4437290000000 1.0
C      1  0.6116790000000  0.4764630000000  0.4764050000000 1.0
C      1  0.4407580000000  0.5833900000000  0.4757740000000 1.0
C      1  0.5170160000000  0.5460670000000  0.5681500000000 1.0
C      1  0.4886270000000  0.5210250000000  0.5178380000000 1.0
C      1  0.3989350000000  0.4788970000000  0.4555020000000 1.0
C      1  0.4519540000000  0.4189610000000  0.4464360000000 1.0
C      1  0.4210290000000  0.5745710000000  0.5025130000000 1.0
C      1  0.5749710000000  0.5595590000000  0.4641580000000 1.0
C      1  0.4281560000000  0.4994640000000  0.4962140000000 1.0
C      1  0.4831180000000  0.6027010000000  0.4995840000000 1.0
C      1  0.5321560000000  0.4559680000000  0.5864580000000 1.0
C      1  0.4919880000000  0.5627840000000  0.4191540000000 1.0
C      1  0.5674060000000  0.5167110000000  0.5037460000000 1.0
C      1  0.5333960000000  0.4636220000000  0.3947060000000 1.0
C      1  0.4216710000000  0.4476970000000  0.5477660000000 1.0
C      1  0.5081370000000  0.5656760000000  0.4748540000000 1.0
C      1  0.5660160000000  0.5512120000000  0.4383640000000 1.0
C      1  0.5361030000000  0.5328490000000  0.5454170000000 1.0
C      1  0.4446990000000  0.5412840000000  0.4333200000000 1.0
C      1  0.5786230000000  0.4330660000000  0.4971290000000 1.0
C      1  0.4323820000000  0.4213940000000  0.5299660000000 1.0
C      1  0.5377100000000  0.5264070000000  0.4049510000000 1.0
C      1  0.6160930000000  0.4983170000000  0.4976270000000 1.0
C      1  0.4138630000000  0.4684190000000  0.4288210000000 1.0
C      1  0.4752540000000  0.4551700000000  0.5541720000000 1.0
C      1  0.5493420000000  0.5701570000000  0.5607500000000 1.0
C      1  0.5313900000000  0.5499810000000  0.4582420000000 1.0
C      1  0.4840810000000  0.5871170000000  0.4694520000000 1.0
C      1  0.4591200000000  0.4825230000000  0.5595810000000 1.0
C      1  0.5013920000000  0.4447120000000  0.5639220000000 1.0
C      1  0.4524080000000  0.5145980000000  0.3968290000000 1.0
C      1  0.5849090000000  0.5439430000000  0.5266660000000 1.0
C      1  0.4594760000000  0.4580980000000  0.4880870000000 1.0
C      1  0.5412480000000  0.4868050000000  0.5838940000000 1.0
C      1  0.4833830000000  0.3924460000000  0.5213240000000 1.0
C      1  0.5222870000000  0.4056580000000  0.5010360000000 1.0
C      1  0.5472570000000  0.4263670000000  0.4999560000000 1.0
C      1  0.5059210000000  0.4944250000000  0.5540510000000 1.0
C      1  0.5361830000000  0.5570110000000  0.5019450000000 1.0
C      1  0.4662010000000  0.4432350000000  0.5172880000000 1.0
C      1  0.4321720000000  0.4829360000000  0.5804450000000 1.0
C      1  0.5329290000000  0.5070480000000  0.4862170000000 1.0
C      1  0.4640910000000  0.4119640000000  0.4770670000000 1.0
C      1  0.5511260000000  0.4453850000000  0.4111040000000 1.0
C      1  0.5149390000000  0.3984910000000  0.5325410000000 1.0
C      1  0.6087190000000  0.5274100000000  0.5110990000000 1.0
C      1  0.4400950000000  0.5424970000000  0.5914840000000 1.0
C      1  0.4622740000000  0.3916250000000  0.5019770000000 1.0
C      1  0.4360660000000  0.4095040000000  0.5048540000000 1.0
C      1  0.4690360000000  0.5183840000000  0.4400830000000 1.0
C      1  0.5737440000000  0.5198070000000  0.5480160000000 1.0
C      1  0.5887890000000  0.4811690000000  0.5086870000000 1.0
C      1  0.5617320000000  0.5023990000000  0.4075480000000 1.0
C      1  0.4878020000000  0.4839490000000  0.3913210000000 1.0
C      1  0.3905240000000  0.4936710000000  0.4840600000000 1.0
C      1  0.4764790000000  0.4729530000000  0.5251570000000 1.0
C      1  0.5795250000000  0.4825830000000  0.4288430000000 1.0
C      1  0.4135660000000  0.5202580000000  0.5514250000000 1.0
C      1  0.5741160000000  0.4799830000000  0.5454570000000 1.0
C      1  0.4677260000000  0.4605680000000  0.5929960000000 1.0
C      1  0.4485230000000  0.4899510000000  0.5292480000000 1.0
C      1  0.4296430000000  0.5138940000000  0.4397240000000 1.0
C      1  0.4713610000000  0.5495160000000  0.5068120000000 1.0
C      1  0.4473790000000  0.4717970000000  0.4236680000000 1.0
C      1  0.5290430000000  0.4939180000000  0.5277170000000 1.0
C      1  0.5529340000000  0.5760540000000  0.4792780000000 1.0
C      1  0.4953580000000  0.5694350000000  0.5801120000000 1.0
C      1  0.5969120000000  0.5103960000000  0.4409950000000 1.0
C      1  0.5422250000000  0.4191530000000  0.5329350000000 1.0
C      1  0.5604090000000  0.5746520000000  0.5350090000000 1.0
C      1  0.4703160000000  0.5506680000000  0.5935300000000 1.0
C      1  0.5949640000000  0.5470710000000  0.4869180000000 1.0
C      1  0.5441400000000  0.5044050000000  0.5548910000000 1.0
C      1  0.4606380000000  0.4884110000000  0.3998910000000 1.0
C      1  0.5226710000000  0.5707100000000  0.4254050000000 1.0
C      1  0.4407900000000  0.5894250000000  0.5263840000000 1.0
C      1  0.4939180000000  0.5397400000000  0.4833080000000 1.0
C      1  0.4932540000000  0.4802660000000  0.5802690000000 1.0
C      1  0.5899640000000  0.4851150000000  0.4606340000000 1.0
C      1  0.4626390000000  0.5764660000000  0.4281400000000 1.0
C      1  0.5070250000000  0.4128700000000  0.4244180000000 1.0
C      1  0.4912550000000  0.4518620000000  0.4556860000000 1.0
C      1  0.4603210000000  0.5794830000000  0.5004160000000 1.0
C      1  0.4982430000000  0.4890850000000  0.5154210000000 1.0
C      1  0.5220040000000  0.4389960000000  0.4235910000000 1.0
C      1  0.4835000000000  0.4357140000000  0.4823460000000 1.0
C      1  0.5691750000000  0.4535610000000  0.4310000000000 1.0
C      1  0.4417160000000  0.4503970000000  0.5752650000000 1.0
C      1  0.4663840000000  0.5126120000000  0.4925600000000 1.0
C      1  0.5462760000000  0.5198030000000  0.4575230000000 1.0
C      1  0.5321440000000  0.4475380000000  0.4784840000000 1.0
C      1  0.4882260000000  0.5162430000000  0.4144210000000 1.0
C      1  0.4379950000000  0.5102730000000  0.6000600000000 1.0
C      1  0.5706900000000  0.4368430000000  0.5303740000000 1.0
C      1  0.4543510000000  0.5375670000000  0.4727500000000 1.0
C      1  0.5188030000000  0.5850820000000  0.5610490000000 1.0
C      1  0.4896290000000  0.5229560000000  0.5506500000000 1.0
C      1  0.4847020000000  0.5127910000000  0.4655110000000 1.0
C      1  0.5691340000000  0.5209410000000  0.4318220000000 1.0
C      1  0.4511650000000  0.4866650000000  0.4784600000000 1.0
C      1  0.4387800000000  0.4600220000000  0.5221220000000 1.0
C      1  0.5408940000000  0.5881940000000  0.5139450000000 1.0
C      1  0.5388470000000  0.4908250000000  0.3895250000000 1.0
C      1  0.5184070000000  0.5599060000000  0.5376030000000 1.0
C      1  0.4053460000000  0.4780040000000  0.5096760000000 1.0
C      1  0.3985300000000  0.5287520000000  0.5291850000000 1.0
C      1  0.5649420000000  0.4417900000000  0.4565480000000 1.0
C      1  0.6074600000000  0.5191780000000  0.4721130000000 1.0
C      1  0.4363360000000  0.5684090000000  0.4466320000000 1.0
C      1  0.4267730000000  0.5578370000000  0.5727180000000 1.0
C      1  0.5736800000000  0.4914100000000  0.5776980000000 1.0
C      1  0.4961930000000  0.4870540000000  0.4300620000000 1.0
C      1  0.5283410000000  0.5029560000000  0.6063540000000 1.0
C      1  0.4741250000000  0.5581690000000  0.4545020000000 1.0
C      1  0.5042510000000  0.4628370000000  0.4090600000000 1.0
C      1  0.5955930000000  0.4532070000000  0.5161630000000 1.0
C      1  0.5230210000000  0.4562970000000  0.4514880000000 1.0
C      1  0.4672850000000  0.4930890000000  0.5979070000000 1.0
C      1  0.5112150000000  0.5089470000000  0.3924800000000 1.0
C      1  0.5687810000000  0.5253340000000  0.5783900000000 1.0
C      1  0.4559930000000  0.4286940000000  0.5529540000000 1.0
C      1  0.4106390000000  0.4932900000000  0.5596170000000 1.0
C      1  0.4442310000000  0.5290120000000  0.5513590000000 1.0
C      1  0.4260290000000  0.4584210000000  0.4920770000000 1.0
C      1  0.5354620000000  0.5494540000000  0.6034320000000 1.0
C      1  0.5029340000000  0.4315120000000  0.5070660000000 1.0
C      1  0.4304970000000  0.5662010000000  0.5473130000000 1.0
C      1  0.5018800000000  0.5415040000000  0.4436970000000 1.0
END
