TITL C-2778423-5760-75 -0.000207356935310313 125000 -349.491220737406 0 0 59 (C1) n - 1
REM
REM in /home/nfs/bkarasulu/CARBON/AIRSS/Generating-Clusters/REBO/Only-C1/SD-CG/HFTN-CG
REM
REM
REM
REM
REM
REM ./C.cell (11c1c37f851c82e70ff6c80c92926a4b)
REM
REM compiler GCC version 9.2.1 20190827 (Red Hat 9.2.1-1)
REM options -cpp -mtune=generic -march=x86-64 -g -O0 -fpre-include=/usr/include/finclude/math-vector-fortran.h
REM seed 325517576 1518145461 1316255005 860676485 1928084683 -210372882 1047563266 7672343 -1846230649 -1675723414 1582261170 592652503 823047563 -23447853 -40413929 1990316341 -2056503644 -1702130283 1100640002 -864126034 1132393974 -1429096383 -2040957152 -1237247258 1849572927 836162408 17794859 1768481122 1676807991 -1276341527 886489733 -1824455291 -1114080381
REM
CELL 1.54180   50.00000   50.00000   50.00000   90.00000   90.00000   90.00000
LATT -1
SFAC C  
C      1  0.5446890000000  0.4457960000000  0.5358210000000 1.0
C      1  0.4791770000000  0.5680920000000  0.5258750000000 1.0
C      1  0.5303980000000  0.4414450000000  0.5123680000000 1.0
C      1  0.5435720000000  0.5176780000000  0.4330110000000 1.0
C      1  0.4383420000000  0.4886990000000  0.5193250000000 1.0
C      1  0.5708250000000  0.5352990000000  0.5390770000000 1.0
C      1  0.5063920000000  0.4887560000000  0.4439620000000 1.0
C      1  0.4165710000000  0.4877280000000  0.5027020000000 1.0
C      1  0.4792490000000  0.5641270000000  0.4990000000000 1.0
C      1  0.4549810000000  0.5143280000000  0.4751930000000 1.0
C      1  0.5041240000000  0.4442030000000  0.4597480000000 1.0
C      1  0.4837440000000  0.4855290000000  0.4639760000000 1.0
C      1  0.5922260000000  0.5266520000000  0.5531770000000 1.0
C      1  0.4886850000000  0.5168570000000  0.5115790000000 1.0
C      1  0.5278200000000  0.5490150000000  0.5269790000000 1.0
C      1  0.5695650000000  0.5379380000000  0.5095520000000 1.0
C      1  0.4264970000000  0.5406940000000  0.4623650000000 1.0
C      1  0.4934450000000  0.4695430000000  0.5694690000000 1.0
C      1  0.5440880000000  0.5404220000000  0.5495060000000 1.0
C      1  0.4629340000000  0.5195070000000  0.5001620000000 1.0
C      1  0.5155180000000  0.5153470000000  0.4381410000000 1.0
C      1  0.4864300000000  0.5608860000000  0.5511490000000 1.0
C      1  0.5398520000000  0.4603960000000  0.5584480000000 1.0
C      1  0.4710340000000  0.4695580000000  0.4827170000000 1.0
C      1  0.5417750000000  0.4719300000000  0.4717510000000 1.0
C      1  0.5225240000000  0.4649700000000  0.4508510000000 1.0
C      1  0.5260250000000  0.5318130000000  0.5703420000000 1.0
C      1  0.4610390000000  0.4320720000000  0.5113180000000 1.0
C      1  0.4511590000000  0.5518040000000  0.4618520000000 1.0
C      1  0.4770520000000  0.5541090000000  0.4725830000000 1.0
C      1  0.4510120000000  0.4981070000000  0.4453900000000 1.0
C      1  0.4808270000000  0.4431580000000  0.5285770000000 1.0
C      1  0.4599780000000  0.4902880000000  0.5418020000000 1.0
C      1  0.5106880000000  0.4371230000000  0.4864420000000 1.0
C      1  0.5590950000000  0.5150240000000  0.4559680000000 1.0
C      1  0.4113670000000  0.4931110000000  0.4753360000000 1.0
C      1  0.5211230000000  0.4773150000000  0.5715540000000 1.0
C      1  0.4771970000000  0.4478450000000  0.4497160000000 1.0
C      1  0.4702200000000  0.4817650000000  0.5111110000000 1.0
C      1  0.4861630000000  0.4452540000000  0.5561850000000 1.0
C      1  0.5431880000000  0.5496570000000  0.5026760000000 1.0
C      1  0.5266230000000  0.5044560000000  0.5777600000000 1.0
C      1  0.5701250000000  0.4745330000000  0.4704080000000 1.0
C      1  0.5031830000000  0.5362190000000  0.5245260000000 1.0
C      1  0.4089430000000  0.5207940000000  0.4684190000000 1.0
C      1  0.5014410000000  0.4568520000000  0.5114110000000 1.0
C      1  0.4547440000000  0.4642200000000  0.4465980000000 1.0
C      1  0.4270460000000  0.4786650000000  0.4563420000000 1.0
C      1  0.4601560000000  0.4430460000000  0.4855400000000 1.0
C      1  0.4784100000000  0.5171380000000  0.4522270000000 1.0
C      1  0.5265710000000  0.5419370000000  0.4788990000000 1.0
C      1  0.5014730000000  0.5467510000000  0.5691230000000 1.0
C      1  0.5023310000000  0.5383610000000  0.4594920000000 1.0
C      1  0.4738420000000  0.4898880000000  0.5656360000000 1.0
C      1  0.5034550000000  0.4883400000000  0.5049690000000 1.0
C      1  0.5301900000000  0.4927360000000  0.4889350000000 1.0
C      1  0.5845790000000  0.4957870000000  0.4800360000000 1.0
C      1  0.5832470000000  0.5196040000000  0.4929970000000 1.0
C      1  0.5430540000000  0.5168340000000  0.4799270000000 1.0
END
