TITL C-2778427-5640-1198 -0.00236725980431177 125000 -484.073400816388 0 0 84 (C1) n - 1
REM
REM in /home/nfs/bkarasulu/CARBON/AIRSS/Generating-Clusters/REBO/Only-C1/SD-CG/HFTN-CG
REM
REM
REM
REM
REM
REM ./C.cell (11c1c37f851c82e70ff6c80c92926a4b)
REM
REM compiler GCC version 9.2.1 20190827 (Red Hat 9.2.1-1)
REM options -cpp -mtune=generic -march=x86-64 -g -O0 -fpre-include=/usr/include/finclude/math-vector-fortran.h
REM seed 589920933 -1577804824 -2124201888 -320242672 -1171243187 1861446511 -938054984 -633836402 -1948184716 1970360480 1006207518 565639263 -846345516 537791426 52042543 352056562 -813557908 -1341708194 -592382039 -495149909 -114056687 -1487048756 -986666787 171222256 -608802502 1925127063 858144709 -1366776497 277925537 2076948474 -1821929737 -389539045 1623497018
REM
CELL 1.54180   50.00000   50.00000   50.00000   90.00000   90.00000   90.00000
LATT -1
SFAC C  
C      1  0.4543130000000  0.5172900000000  0.4073260000000 1.0
C      1  0.5614590000000  0.4435990000000  0.5467190000000 1.0
C      1  0.5585580000000  0.5231780000000  0.4480020000000 1.0
C      1  0.4213290000000  0.4851540000000  0.5008270000000 1.0
C      1  0.4508330000000  0.5424070000000  0.4610740000000 1.0
C      1  0.4746190000000  0.5030370000000  0.4769360000000 1.0
C      1  0.5122070000000  0.5535250000000  0.4451310000000 1.0
C      1  0.4509440000000  0.4120500000000  0.4980690000000 1.0
C      1  0.5197610000000  0.4611760000000  0.4810110000000 1.0
C      1  0.4986700000000  0.5335360000000  0.5250350000000 1.0
C      1  0.4933020000000  0.5084050000000  0.5051060000000 1.0
C      1  0.5351400000000  0.4599570000000  0.5094830000000 1.0
C      1  0.5667650000000  0.5047080000000  0.5374810000000 1.0
C      1  0.5246350000000  0.4841990000000  0.4624460000000 1.0
C      1  0.4459590000000  0.4894230000000  0.5448550000000 1.0
C      1  0.5417830000000  0.5000700000000  0.5603370000000 1.0
C      1  0.4974120000000  0.5216800000000  0.5757860000000 1.0
C      1  0.5310610000000  0.5302290000000  0.4350160000000 1.0
C      1  0.4641900000000  0.4960240000000  0.5796830000000 1.0
C      1  0.5010740000000  0.5388500000000  0.4724580000000 1.0
C      1  0.4958600000000  0.5907300000000  0.4880710000000 1.0
C      1  0.5253280000000  0.4662460000000  0.4364490000000 1.0
C      1  0.4647500000000  0.5157270000000  0.5537680000000 1.0
C      1  0.4409860000000  0.5287570000000  0.5219000000000 1.0
C      1  0.4156140000000  0.4701840000000  0.4717730000000 1.0
C      1  0.5230020000000  0.5137640000000  0.4793870000000 1.0
C      1  0.5275680000000  0.5787400000000  0.4552370000000 1.0
C      1  0.5161280000000  0.4875740000000  0.5104260000000 1.0
C      1  0.5311730000000  0.4451780000000  0.4129470000000 1.0
C      1  0.5369280000000  0.5276060000000  0.5764620000000 1.0
C      1  0.5443220000000  0.5402520000000  0.5976910000000 1.0
C      1  0.5217100000000  0.4809710000000  0.5726090000000 1.0
C      1  0.5480350000000  0.5331010000000  0.5388770000000 1.0
C      1  0.5034160000000  0.5879990000000  0.5405640000000 1.0
C      1  0.4387810000000  0.4523580000000  0.4653970000000 1.0
C      1  0.4793980000000  0.4129160000000  0.4920590000000 1.0
C      1  0.4695850000000  0.4364890000000  0.5366890000000 1.0
C      1  0.5344000000000  0.5036250000000  0.5274570000000 1.0
C      1  0.5761190000000  0.4927630000000  0.4867180000000 1.0
C      1  0.4895800000000  0.4113020000000  0.4652950000000 1.0
C      1  0.5861350000000  0.5171490000000  0.4433320000000 1.0
C      1  0.5298350000000  0.5814840000000  0.5329210000000 1.0
C      1  0.5824590000000  0.4876570000000  0.5198420000000 1.0
C      1  0.5033770000000  0.4976360000000  0.5869030000000 1.0
C      1  0.4447520000000  0.4604080000000  0.4968990000000 1.0
C      1  0.4682620000000  0.4996560000000  0.5238980000000 1.0
C      1  0.4828060000000  0.4325270000000  0.4471870000000 1.0
C      1  0.4700340000000  0.4770630000000  0.4985060000000 1.0
C      1  0.5233720000000  0.5857000000000  0.4816110000000 1.0
C      1  0.4780280000000  0.5555530000000  0.4447990000000 1.0
C      1  0.5158750000000  0.5310300000000  0.5497250000000 1.0
C      1  0.4331350000000  0.5140950000000  0.4999390000000 1.0
C      1  0.4884250000000  0.4330950000000  0.5113310000000 1.0
C      1  0.5968430000000  0.5006770000000  0.4633560000000 1.0
C      1  0.5650090000000  0.4649090000000  0.5019310000000 1.0
C      1  0.5533270000000  0.5601720000000  0.5287560000000 1.0
C      1  0.4862750000000  0.5930880000000  0.5178060000000 1.0
C      1  0.5211370000000  0.5087540000000  0.4105980000000 1.0
C      1  0.4675470000000  0.5449650000000  0.5267010000000 1.0
C      1  0.4240610000000  0.4712090000000  0.5293300000000 1.0
C      1  0.4563760000000  0.4645260000000  0.4235140000000 1.0
C      1  0.4693720000000  0.5692210000000  0.5081010000000 1.0
C      1  0.4490910000000  0.5202620000000  0.4771310000000 1.0
C      1  0.5114340000000  0.5033110000000  0.4412580000000 1.0
C      1  0.5334910000000  0.5666350000000  0.5029580000000 1.0
C      1  0.5172760000000  0.5400260000000  0.5002630000000 1.0
C      1  0.4578720000000  0.4469430000000  0.4456710000000 1.0
C      1  0.4468310000000  0.4562750000000  0.5498380000000 1.0
C      1  0.4913800000000  0.5729350000000  0.5617310000000 1.0
C      1  0.4855410000000  0.4523820000000  0.5589390000000 1.0
C      1  0.4793200000000  0.5645340000000  0.4774100000000 1.0
C      1  0.4958710000000  0.4607550000000  0.5021110000000 1.0
C      1  0.4459840000000  0.4349190000000  0.5136710000000 1.0
C      1  0.5528930000000  0.5102690000000  0.4734810000000 1.0
C      1  0.4702480000000  0.5295630000000  0.4291210000000 1.0
C      1  0.5039320000000  0.4421440000000  0.4307010000000 1.0
C      1  0.5802840000000  0.4552180000000  0.5299140000000 1.0
C      1  0.5077720000000  0.3922350000000  0.4583800000000 1.0
C      1  0.5135760000000  0.4581250000000  0.5575380000000 1.0
C      1  0.5338130000000  0.4483180000000  0.5387830000000 1.0
C      1  0.4824080000000  0.5045030000000  0.4465520000000 1.0
C      1  0.4658430000000  0.4694640000000  0.5743780000000 1.0
C      1  0.4792600000000  0.5444920000000  0.5582230000000 1.0
C      1  0.4627430000000  0.4913380000000  0.4224070000000 1.0
END
