TITL C-2778429-3646-1421 -0.000490127161181362 125000 -774.842055504157 0 0 132 (C1) n - 1
REM
REM in /home/nfs/bkarasulu/CARBON/AIRSS/Generating-Clusters/REBO/Only-C1/SD-CG/HFTN-CG
REM
REM
REM
REM
REM
REM ./C.cell (11c1c37f851c82e70ff6c80c92926a4b)
REM
REM compiler GCC version 9.2.1 20190827 (Red Hat 9.2.1-1)
REM options -cpp -mtune=generic -march=x86-64 -g -O0 -fpre-include=/usr/include/finclude/math-vector-fortran.h
REM seed -999682320 1311923610 881227996 -1967145066 -406800959 43147693 -940612956 -1648108690 -1827523590 -2036059558 -709351460 114674263 1055194852 183195073 757664069 -194803761 1951875231 -558203722 1038555615 -615683275 1089480681 482137029 -1495853587 -1768402685 1632385667 708576389 -983939109 -2052045229 257636641 -1823331202 1129172995 6273259 1997215922
REM
CELL 1.54180   50.00000   50.00000   50.00000   90.00000   90.00000   90.00000
LATT -1
SFAC C  
C      1  0.4638610000000  0.5175730000000  0.4874790000000 1.0
C      1  0.5462450000000  0.4165030000000  0.5020900000000 1.0
C      1  0.4966400000000  0.5433300000000  0.4799650000000 1.0
C      1  0.5666280000000  0.5078190000000  0.4331640000000 1.0
C      1  0.3942460000000  0.4854900000000  0.5166530000000 1.0
C      1  0.4929150000000  0.5841480000000  0.5499460000000 1.0
C      1  0.5229170000000  0.5928660000000  0.4686360000000 1.0
C      1  0.5665610000000  0.5551050000000  0.5152710000000 1.0
C      1  0.5194320000000  0.5784570000000  0.5422090000000 1.0
C      1  0.4551270000000  0.5468930000000  0.4115190000000 1.0
C      1  0.5112400000000  0.4896150000000  0.5040020000000 1.0
C      1  0.4756580000000  0.5302150000000  0.4591590000000 1.0
C      1  0.4846560000000  0.4073190000000  0.5335030000000 1.0
C      1  0.5304540000000  0.4458000000000  0.4802630000000 1.0
C      1  0.5084880000000  0.5623420000000  0.4333410000000 1.0
C      1  0.4063720000000  0.5025430000000  0.5361710000000 1.0
C      1  0.4871340000000  0.5267350000000  0.5541990000000 1.0
C      1  0.4186370000000  0.4181640000000  0.4332000000000 1.0
C      1  0.4742360000000  0.4446470000000  0.4790100000000 1.0
C      1  0.5298990000000  0.4606430000000  0.5461370000000 1.0
C      1  0.4079390000000  0.5310150000000  0.5328660000000 1.0
C      1  0.4373570000000  0.5488700000000  0.4718250000000 1.0
C      1  0.5875350000000  0.5002000000000  0.4526180000000 1.0
C      1  0.4864600000000  0.4407100000000  0.5715190000000 1.0
C      1  0.5226620000000  0.5987540000000  0.4972480000000 1.0
C      1  0.4749370000000  0.5474090000000  0.5728790000000 1.0
C      1  0.5169620000000  0.4216850000000  0.4601370000000 1.0
C      1  0.5653600000000  0.5040340000000  0.4950600000000 1.0
C      1  0.5902160000000  0.4566550000000  0.5434340000000 1.0
C      1  0.5827990000000  0.4482710000000  0.4943420000000 1.0
C      1  0.4927400000000  0.5967250000000  0.4992270000000 1.0
C      1  0.6006260000000  0.4590480000000  0.4753100000000 1.0
C      1  0.4966480000000  0.4107110000000  0.5053670000000 1.0
C      1  0.5011530000000  0.4005760000000  0.4429670000000 1.0
C      1  0.5314080000000  0.4836900000000  0.6042970000000 1.0
C      1  0.4749530000000  0.4107780000000  0.4831580000000 1.0
C      1  0.4106810000000  0.4646010000000  0.5060020000000 1.0
C      1  0.4388400000000  0.5134650000000  0.5592320000000 1.0
C      1  0.5506180000000  0.5814070000000  0.4599930000000 1.0
C      1  0.4844760000000  0.5809300000000  0.4491480000000 1.0
C      1  0.4757600000000  0.5836190000000  0.5244130000000 1.0
C      1  0.5497940000000  0.4841340000000  0.5552910000000 1.0
C      1  0.6092550000000  0.4657610000000  0.5669780000000 1.0
C      1  0.5748670000000  0.4614980000000  0.4300780000000 1.0
C      1  0.5927450000000  0.4715440000000  0.4509680000000 1.0
C      1  0.5487060000000  0.5891120000000  0.5067360000000 1.0
C      1  0.5697540000000  0.5714450000000  0.4863270000000 1.0
C      1  0.4401620000000  0.4303100000000  0.4406160000000 1.0
C      1  0.4473170000000  0.5675340000000  0.5211880000000 1.0
C      1  0.5724140000000  0.5558240000000  0.4556890000000 1.0
C      1  0.4517770000000  0.5132060000000  0.5901270000000 1.0
C      1  0.6087890000000  0.5271860000000  0.4886670000000 1.0
C      1  0.4692460000000  0.4728780000000  0.4172460000000 1.0
C      1  0.5053440000000  0.5254750000000  0.5897510000000 1.0
C      1  0.5145620000000  0.4401370000000  0.5081830000000 1.0
C      1  0.4339490000000  0.5287930000000  0.4541300000000 1.0
C      1  0.4805370000000  0.5059380000000  0.4367130000000 1.0
C      1  0.5422390000000  0.5346680000000  0.5167290000000 1.0
C      1  0.4624580000000  0.4505920000000  0.5844750000000 1.0
C      1  0.4685020000000  0.4242360000000  0.4523060000000 1.0
C      1  0.6487340000000  0.5567630000000  0.5065970000000 1.0
C      1  0.4492650000000  0.4805220000000  0.5939600000000 1.0
C      1  0.4830380000000  0.3880520000000  0.4604700000000 1.0
C      1  0.5111960000000  0.4952440000000  0.3910960000000 1.0
C      1  0.5161110000000  0.5527440000000  0.5209050000000 1.0
C      1  0.5077020000000  0.4689190000000  0.5920710000000 1.0
C      1  0.5757190000000  0.4492050000000  0.5219840000000 1.0
C      1  0.5336070000000  0.5272370000000  0.5714250000000 1.0
C      1  0.5459900000000  0.4642030000000  0.5825110000000 1.0
C      1  0.5161290000000  0.5616630000000  0.4640390000000 1.0
C      1  0.5192530000000  0.5071200000000  0.4696470000000 1.0
C      1  0.6289220000000  0.5420930000000  0.4977040000000 1.0
C      1  0.4836920000000  0.5741220000000  0.5747080000000 1.0
C      1  0.4010390000000  0.5371810000000  0.5059540000000 1.0
C      1  0.4967810000000  0.4567440000000  0.4236780000000 1.0
C      1  0.4131960000000  0.5210810000000  0.4873760000000 1.0
C      1  0.4297970000000  0.4870190000000  0.5487840000000 1.0
C      1  0.4360310000000  0.5063660000000  0.4872850000000 1.0
C      1  0.4441000000000  0.5426880000000  0.5747210000000 1.0
C      1  0.4808070000000  0.4321000000000  0.5448430000000 1.0
C      1  0.5231510000000  0.4065510000000  0.4888140000000 1.0
C      1  0.4520830000000  0.4592360000000  0.4427870000000 1.0
C      1  0.4697750000000  0.5548700000000  0.4387180000000 1.0
C      1  0.5438440000000  0.4407640000000  0.5258980000000 1.0
C      1  0.5201220000000  0.4732180000000  0.4667560000000 1.0
C      1  0.4239190000000  0.4305660000000  0.5446600000000 1.0
C      1  0.5187390000000  0.4458040000000  0.5733150000000 1.0
C      1  0.4883660000000  0.4972070000000  0.4800100000000 1.0
C      1  0.4551160000000  0.4741990000000  0.5348500000000 1.0
C      1  0.5237830000000  0.4745210000000  0.4136980000000 1.0
C      1  0.4817360000000  0.5891960000000  0.5971840000000 1.0
C      1  0.5560790000000  0.4821690000000  0.4211670000000 1.0
C      1  0.4743340000000  0.4814830000000  0.4556930000000 1.0
C      1  0.5585430000000  0.5351290000000  0.4340410000000 1.0
C      1  0.4866320000000  0.5581880000000  0.5077140000000 1.0
C      1  0.4989840000000  0.4504730000000  0.4568300000000 1.0
C      1  0.4310270000000  0.5493740000000  0.5440440000000 1.0
C      1  0.4818290000000  0.5933050000000  0.4728620000000 1.0
C      1  0.5235400000000  0.4936860000000  0.4408980000000 1.0
C      1  0.5171580000000  0.5137040000000  0.4173330000000 1.0
C      1  0.4929190000000  0.5346270000000  0.4234720000000 1.0
C      1  0.5393120000000  0.5232280000000  0.4848350000000 1.0
C      1  0.4291850000000  0.4695750000000  0.5740140000000 1.0
C      1  0.4560270000000  0.5214280000000  0.4025040000000 1.0
C      1  0.5758680000000  0.4705530000000  0.5700230000000 1.0
C      1  0.5421160000000  0.4949280000000  0.5125600000000 1.0
C      1  0.4822650000000  0.5007000000000  0.4028920000000 1.0
C      1  0.4459460000000  0.4978470000000  0.4183960000000 1.0
C      1  0.5389700000000  0.5119810000000  0.5423680000000 1.0
C      1  0.4822770000000  0.5091010000000  0.5896020000000 1.0
C      1  0.5052180000000  0.5096320000000  0.5375740000000 1.0
C      1  0.5475810000000  0.5739450000000  0.5334180000000 1.0
C      1  0.4742190000000  0.4750600000000  0.5551570000000 1.0
C      1  0.5326140000000  0.5116100000000  0.6000160000000 1.0
C      1  0.4407450000000  0.5615400000000  0.4953330000000 1.0
C      1  0.4347360000000  0.4405140000000  0.5686370000000 1.0
C      1  0.5322500000000  0.5407610000000  0.4241870000000 1.0
C      1  0.4590370000000  0.5308600000000  0.5395810000000 1.0
C      1  0.4869340000000  0.4531510000000  0.5231920000000 1.0
C      1  0.5611740000000  0.4348030000000  0.4823800000000 1.0
C      1  0.4340120000000  0.5025870000000  0.4438620000000 1.0
C      1  0.5055360000000  0.5232250000000  0.5061190000000 1.0
C      1  0.4615900000000  0.4621360000000  0.5035690000000 1.0
C      1  0.4346460000000  0.4787220000000  0.4591240000000 1.0
C      1  0.4350400000000  0.4745620000000  0.4908920000000 1.0
C      1  0.4868730000000  0.4827730000000  0.5796000000000 1.0
C      1  0.4141240000000  0.4411120000000  0.5214350000000 1.0
C      1  0.4675800000000  0.5345530000000  0.5111750000000 1.0
C      1  0.4898170000000  0.4252920000000  0.4277080000000 1.0
C      1  0.5877460000000  0.5116050000000  0.4792210000000 1.0
C      1  0.5066670000000  0.4758220000000  0.5321700000000 1.0
C      1  0.5432160000000  0.5474280000000  0.4688040000000 1.0
END
