TITL C-2778437-8639-851 0.000206726560929285 125000 -127.308025832822 0 0 26 (C1) n - 1
REM
REM in /home/nfs/bkarasulu/CARBON/AIRSS/Generating-Clusters/REBO/Only-C1/SD-CG/HFTN-CG
REM
REM
REM
REM
REM
REM ./C.cell (11c1c37f851c82e70ff6c80c92926a4b)
REM
REM compiler GCC version 9.2.1 20190827 (Red Hat 9.2.1-1)
REM options -cpp -mtune=generic -march=x86-64 -g -O0 -fpre-include=/usr/include/finclude/math-vector-fortran.h
REM seed -398590899 -804446942 1792716872 -1206809455 -1046495613 1643223058 -1834924020 1700953609 346202737 -695867149 1258596876 76584344 1430449746 1126289551 51046614 374957196 899028153 -1614145284 462982235 2064731253 -1003145125 -1775251843 -332552045 313032237 -1394202744 276824700 2004039799 -598459257 2059231782 759943339 2083610388 870946762 -460886385
REM
CELL 1.54180   50.00000   50.00000   50.00000   90.00000   90.00000   90.00000
LATT -1
SFAC C  
C      1  0.4756350000000  0.4588990000000  0.4636440000000 1.0
C      1  0.4792890000000  0.4805830000000  0.4483440000000 1.0
C      1  0.5036570000000  0.5050860000000  0.4994030000000 1.0
C      1  0.4859480000000  0.4435330000000  0.4884990000000 1.0
C      1  0.5230570000000  0.5375970000000  0.5655300000000 1.0
C      1  0.4839480000000  0.5586650000000  0.5410450000000 1.0
C      1  0.5520660000000  0.5109960000000  0.5302680000000 1.0
C      1  0.4538120000000  0.4959610000000  0.4750670000000 1.0
C      1  0.5246040000000  0.5495040000000  0.4593580000000 1.0
C      1  0.4857600000000  0.4624040000000  0.5149840000000 1.0
C      1  0.5367040000000  0.4644560000000  0.4716430000000 1.0
C      1  0.4902020000000  0.5046150000000  0.4427270000000 1.0
C      1  0.5236780000000  0.5222850000000  0.4798510000000 1.0
C      1  0.5163610000000  0.4506750000000  0.4920720000000 1.0
C      1  0.4775700000000  0.4171240000000  0.4911430000000 1.0
C      1  0.4769760000000  0.4995840000000  0.4851710000000 1.0
C      1  0.4585740000000  0.5338530000000  0.5103180000000 1.0
C      1  0.4892430000000  0.4823230000000  0.5288480000000 1.0
C      1  0.5425920000000  0.5317580000000  0.5116140000000 1.0
C      1  0.4740780000000  0.5326670000000  0.5343300000000 1.0
C      1  0.4583210000000  0.5222030000000  0.5557910000000 1.0
C      1  0.5068920000000  0.5249020000000  0.4506680000000 1.0
C      1  0.5383620000000  0.4942260000000  0.4829530000000 1.0
C      1  0.5235220000000  0.5240210000000  0.5416510000000 1.0
C      1  0.5213120000000  0.4779800000000  0.5053720000000 1.0
C      1  0.4978380000000  0.5140980000000  0.5297050000000 1.0
END
