TITL C-2778423-5760-318 -1.14201104235274e-05 125000 -97.9500531352244 0 0 18 (C1) n - 1
REM
REM in /home/nfs/bkarasulu/CARBON/AIRSS/Generating-Clusters/REBO/Only-C1/SD-CG/HFTN-CG
REM
REM
REM
REM
REM
REM ./C.cell (11c1c37f851c82e70ff6c80c92926a4b)
REM
REM compiler GCC version 9.2.1 20190827 (Red Hat 9.2.1-1)
REM options -cpp -mtune=generic -march=x86-64 -g -O0 -fpre-include=/usr/include/finclude/math-vector-fortran.h
REM seed 1189446624 278868507 700530129 -917295856 622905898 -324205732 -1275620972 -2041894534 29966565 1125922418 -544995052 1766656098 -392746993 -532349194 648285266 -1686858756 1984746997 -2047689864 1099063236 -1970512625 -1761808315 -400021208 2110156319 248430649 -1671818976 -1390128786 -977123296 1979986593 2068646761 -1077062185 -315422110 -1772323880 -2046629783
REM
CELL 1.54180   50.00000   50.00000   50.00000   90.00000   90.00000   90.00000
LATT -1
SFAC C  
C      1  0.4681390000000  0.5350710000000  0.4862450000000 1.0
C      1  0.4904220000000  0.4559520000000  0.5086330000000 1.0
C      1  0.5574060000000  0.4892510000000  0.5555030000000 1.0
C      1  0.5259800000000  0.5502880000000  0.4996820000000 1.0
C      1  0.4749370000000  0.4501320000000  0.4865770000000 1.0
C      1  0.5473630000000  0.4962880000000  0.4830390000000 1.0
C      1  0.5623870000000  0.4922690000000  0.4628060000000 1.0
C      1  0.4687950000000  0.5613080000000  0.4791310000000 1.0
C      1  0.4506740000000  0.4896160000000  0.4652370000000 1.0
C      1  0.4536760000000  0.5156270000000  0.4717930000000 1.0
C      1  0.5408700000000  0.4884410000000  0.5359950000000 1.0
C      1  0.4839160000000  0.4795750000000  0.5289830000000 1.0
C      1  0.4739140000000  0.5052460000000  0.5251810000000 1.0
C      1  0.5153090000000  0.4744250000000  0.5208580000000 1.0
C      1  0.5295090000000  0.5010640000000  0.5070840000000 1.0
C      1  0.4587670000000  0.4642320000000  0.4699240000000 1.0
C      1  0.5131890000000  0.5264850000000  0.5057570000000 1.0
C      1  0.4847470000000  0.5247320000000  0.5075720000000 1.0
END
