TITL C-2778422-5617-532 -0.000482077311903568 125000 -707.165280760268 0 0 122 (C1) n - 1
REM
REM in /home/nfs/bkarasulu/CARBON/AIRSS/Generating-Clusters/REBO/Only-C1/SD-CG/HFTN-CG
REM
REM
REM
REM
REM
REM ./C.cell (11c1c37f851c82e70ff6c80c92926a4b)
REM
REM compiler GCC version 9.2.1 20190827 (Red Hat 9.2.1-1)
REM options -cpp -mtune=generic -march=x86-64 -g -O0 -fpre-include=/usr/include/finclude/math-vector-fortran.h
REM seed -1964601281 -1445250029 -1773025559 855804039 1633381844 -621715597 457166397 -1144436483 438985807 1344905311 169883976 882869602 316222272 -546630843 -283316183 -1199143493 718146966 2016635111 -1702727757 -393740350 -1528498422 -242363912 -1938865954 -1010168211 -675553743 -1423044409 1316679051 -169998091 1610128250 -1409763927 -1944695735 1853094603 -758428627
REM
CELL 1.54180   50.00000   50.00000   50.00000   90.00000   90.00000   90.00000
LATT -1
SFAC C  
C      1  0.5079180000000  0.5830650000000  0.5527750000000 1.0
C      1  0.4825370000000  0.5628540000000  0.5630570000000 1.0
C      1  0.5407970000000  0.5348360000000  0.4669660000000 1.0
C      1  0.5641770000000  0.4246110000000  0.5263480000000 1.0
C      1  0.5850520000000  0.4494880000000  0.4477670000000 1.0
C      1  0.4583650000000  0.4455880000000  0.5438540000000 1.0
C      1  0.4222950000000  0.5513180000000  0.5412320000000 1.0
C      1  0.5253870000000  0.6002470000000  0.4763070000000 1.0
C      1  0.4679880000000  0.3953130000000  0.4897470000000 1.0
C      1  0.5261750000000  0.5253290000000  0.4178200000000 1.0
C      1  0.5328130000000  0.5222530000000  0.5815520000000 1.0
C      1  0.5249090000000  0.5056830000000  0.5388420000000 1.0
C      1  0.4722340000000  0.4644580000000  0.5674000000000 1.0
C      1  0.4464520000000  0.4279360000000  0.4440730000000 1.0
C      1  0.5525440000000  0.5760290000000  0.5125010000000 1.0
C      1  0.5155710000000  0.5148310000000  0.4695100000000 1.0
C      1  0.4500270000000  0.5644110000000  0.5560000000000 1.0
C      1  0.4254750000000  0.4719580000000  0.5835620000000 1.0
C      1  0.4575780000000  0.5367720000000  0.5109580000000 1.0
C      1  0.4147450000000  0.4550300000000  0.5647060000000 1.0
C      1  0.5004900000000  0.4022900000000  0.4865500000000 1.0
C      1  0.4710380000000  0.5868640000000  0.4796740000000 1.0
C      1  0.4931610000000  0.5310790000000  0.4864080000000 1.0
C      1  0.4714570000000  0.5409960000000  0.4649850000000 1.0
C      1  0.5805160000000  0.5374570000000  0.4773170000000 1.0
C      1  0.5000170000000  0.5140180000000  0.5781940000000 1.0
C      1  0.4461110000000  0.5557260000000  0.4779320000000 1.0
C      1  0.4930460000000  0.4861780000000  0.5838460000000 1.0
C      1  0.4141070000000  0.5315770000000  0.4912910000000 1.0
C      1  0.4524760000000  0.5370690000000  0.4343100000000 1.0
C      1  0.4537580000000  0.4900400000000  0.5324110000000 1.0
C      1  0.5535430000000  0.4181470000000  0.4669010000000 1.0
C      1  0.5095860000000  0.4926300000000  0.5164920000000 1.0
C      1  0.4297970000000  0.5137160000000  0.4774000000000 1.0
C      1  0.5250090000000  0.4951370000000  0.4122740000000 1.0
C      1  0.4906830000000  0.4515500000000  0.4296840000000 1.0
C      1  0.4260160000000  0.4659370000000  0.4785090000000 1.0
C      1  0.4966800000000  0.5407150000000  0.4131130000000 1.0
C      1  0.6020950000000  0.4606700000000  0.4701280000000 1.0
C      1  0.5344330000000  0.4218810000000  0.5342520000000 1.0
C      1  0.5102910000000  0.6071910000000  0.5060270000000 1.0
C      1  0.4341530000000  0.5491790000000  0.4531880000000 1.0
C      1  0.4857690000000  0.5581550000000  0.4402380000000 1.0
C      1  0.4764110000000  0.6031810000000  0.5095440000000 1.0
C      1  0.5619640000000  0.4919570000000  0.5282730000000 1.0
C      1  0.4939490000000  0.4809140000000  0.4126970000000 1.0
C      1  0.5444100000000  0.5871240000000  0.4627060000000 1.0
C      1  0.4810300000000  0.3967350000000  0.4594740000000 1.0
C      1  0.4096270000000  0.5261060000000  0.5567100000000 1.0
C      1  0.5206240000000  0.4622940000000  0.4212410000000 1.0
C      1  0.5932570000000  0.4716960000000  0.5426680000000 1.0
C      1  0.5528150000000  0.4852130000000  0.4267170000000 1.0
C      1  0.4198130000000  0.4590950000000  0.5114880000000 1.0
C      1  0.5441910000000  0.5264420000000  0.5375870000000 1.0
C      1  0.4703500000000  0.4977640000000  0.4180150000000 1.0
C      1  0.4509680000000  0.4843390000000  0.5806480000000 1.0
C      1  0.4276970000000  0.4479270000000  0.5418580000000 1.0
C      1  0.5165900000000  0.4670040000000  0.5894120000000 1.0
C      1  0.5188930000000  0.4036350000000  0.5097110000000 1.0
C      1  0.4594000000000  0.5840050000000  0.5325850000000 1.0
C      1  0.5942750000000  0.5010580000000  0.5255040000000 1.0
C      1  0.5784280000000  0.4499330000000  0.5328890000000 1.0
C      1  0.5003230000000  0.4631520000000  0.5178190000000 1.0
C      1  0.4308280000000  0.4359650000000  0.4647750000000 1.0
C      1  0.4255110000000  0.4857390000000  0.5295010000000 1.0
C      1  0.5531140000000  0.4995320000000  0.5798760000000 1.0
C      1  0.4797100000000  0.5296630000000  0.5580860000000 1.0
C      1  0.4057380000000  0.4906350000000  0.4408540000000 1.0
C      1  0.4077760000000  0.5021730000000  0.5437210000000 1.0
C      1  0.5585420000000  0.4399620000000  0.4518830000000 1.0
C      1  0.4538140000000  0.4106240000000  0.5084080000000 1.0
C      1  0.4882290000000  0.4908620000000  0.4530050000000 1.0
C      1  0.5384990000000  0.4632730000000  0.4471120000000 1.0
C      1  0.5273080000000  0.5608680000000  0.5261900000000 1.0
C      1  0.5602930000000  0.5364410000000  0.5666110000000 1.0
C      1  0.4382750000000  0.5355930000000  0.5698660000000 1.0
C      1  0.4686990000000  0.5798160000000  0.4522070000000 1.0
C      1  0.5759510000000  0.5097690000000  0.4281560000000 1.0
C      1  0.5531460000000  0.4756600000000  0.4800730000000 1.0
C      1  0.5029400000000  0.4521170000000  0.5672820000000 1.0
C      1  0.5331470000000  0.5521160000000  0.5551990000000 1.0
C      1  0.4579550000000  0.5123210000000  0.4892390000000 1.0
C      1  0.4557830000000  0.4609220000000  0.4945330000000 1.0
C      1  0.5175300000000  0.4809050000000  0.4673550000000 1.0
C      1  0.5865320000000  0.5093640000000  0.4934420000000 1.0
C      1  0.4368100000000  0.4328170000000  0.4974010000000 1.0
C      1  0.5688880000000  0.5296240000000  0.5144840000000 1.0
C      1  0.5109680000000  0.4435750000000  0.5402240000000 1.0
C      1  0.4698280000000  0.4853390000000  0.4799570000000 1.0
C      1  0.5814460000000  0.4859140000000  0.4759250000000 1.0
C      1  0.5419980000000  0.4461900000000  0.4929360000000 1.0
C      1  0.5040610000000  0.5548720000000  0.5033210000000 1.0
C      1  0.5539640000000  0.4621710000000  0.5174230000000 1.0
C      1  0.4681500000000  0.4186330000000  0.5316070000000 1.0
C      1  0.4691860000000  0.5254160000000  0.4154100000000 1.0
C      1  0.5387050000000  0.4899770000000  0.5049970000000 1.0
C      1  0.4680730000000  0.5176180000000  0.5341660000000 1.0
C      1  0.5477030000000  0.5601550000000  0.4610200000000 1.0
C      1  0.5664180000000  0.5573250000000  0.4962210000000 1.0
C      1  0.4553010000000  0.5697970000000  0.5044810000000 1.0
C      1  0.4699940000000  0.4653530000000  0.5214240000000 1.0
C      1  0.5727700000000  0.4972340000000  0.5589920000000 1.0
C      1  0.4774850000000  0.4243120000000  0.4434850000000 1.0
C      1  0.4524460000000  0.5115470000000  0.5808460000000 1.0
C      1  0.5479670000000  0.4147950000000  0.4978970000000 1.0
C      1  0.4910840000000  0.5772540000000  0.5254210000000 1.0
C      1  0.4964260000000  0.4158500000000  0.5313300000000 1.0
C      1  0.5546220000000  0.5346920000000  0.4240460000000 1.0
C      1  0.4278280000000  0.4894500000000  0.4584350000000 1.0
C      1  0.5767650000000  0.5352100000000  0.4496510000000 1.0
C      1  0.5116780000000  0.4548330000000  0.4883620000000 1.0
C      1  0.5832160000000  0.5263540000000  0.5452250000000 1.0
C      1  0.5080380000000  0.5326370000000  0.4442710000000 1.0
C      1  0.4822890000000  0.4592480000000  0.4617310000000 1.0
C      1  0.4949640000000  0.4314080000000  0.4728090000000 1.0
C      1  0.5095330000000  0.5467270000000  0.5747890000000 1.0
C      1  0.4263380000000  0.5439020000000  0.5128240000000 1.0
C      1  0.5830160000000  0.4818090000000  0.4422350000000 1.0
C      1  0.4864990000000  0.5093750000000  0.5082880000000 1.0
C      1  0.5008770000000  0.5816350000000  0.4869600000000 1.0
C      1  0.4553510000000  0.4885170000000  0.4429780000000 1.0
C      1  0.5277060000000  0.5943300000000  0.5274080000000 1.0
END
