TITL C-2778436-5916-759 0.00134453129236115 125000 -289.938532999384 0 0 51 (C1) n - 1
REM
REM in /home/nfs/bkarasulu/CARBON/AIRSS/Generating-Clusters/REBO/Only-C1/SD-CG/HFTN-CG
REM
REM
REM
REM
REM
REM ./C.cell (11c1c37f851c82e70ff6c80c92926a4b)
REM
REM compiler GCC version 9.2.1 20190827 (Red Hat 9.2.1-1)
REM options -cpp -mtune=generic -march=x86-64 -g -O0 -fpre-include=/usr/include/finclude/math-vector-fortran.h
REM seed 305115736 1450172965 2005369663 594232987 -202560698 1664641159 1593176848 -1848321428 -1747108422 -84897432 403496426 -955699306 962351350 -1640156273 97322223 -1385663471 1482203507 834235118 -895333654 540358829 416731668 358918351 -820594896 -1255017771 -816987171 -1121214245 693113145 404641186 -15970736 79419464 1370762237 -1627949928 -242103378
REM
CELL 1.54180   50.00000   50.00000   50.00000   90.00000   90.00000   90.00000
LATT -1
SFAC C  
C      1  0.5181550000000  0.5228220000000  0.4932250000000 1.0
C      1  0.5550590000000  0.5526650000000  0.4832200000000 1.0
C      1  0.5005310000000  0.5752490000000  0.5080460000000 1.0
C      1  0.5251150000000  0.5452860000000  0.4377760000000 1.0
C      1  0.4410210000000  0.5338300000000  0.5212270000000 1.0
C      1  0.4742240000000  0.4893330000000  0.4352140000000 1.0
C      1  0.5176580000000  0.5137510000000  0.4354340000000 1.0
C      1  0.4729280000000  0.5620590000000  0.5508480000000 1.0
C      1  0.4712090000000  0.4702410000000  0.4982450000000 1.0
C      1  0.5456890000000  0.5279120000000  0.4895880000000 1.0
C      1  0.5141590000000  0.5560620000000  0.5276660000000 1.0
C      1  0.4677570000000  0.4904900000000  0.5325220000000 1.0
C      1  0.4610920000000  0.4577100000000  0.5261700000000 1.0
C      1  0.4997880000000  0.5346780000000  0.5397610000000 1.0
C      1  0.4878880000000  0.5161830000000  0.5823030000000 1.0
C      1  0.4444970000000  0.4445940000000  0.6044610000000 1.0
C      1  0.4313540000000  0.4289450000000  0.6208680000000 1.0
C      1  0.4639360000000  0.4703780000000  0.5574980000000 1.0
C      1  0.5681200000000  0.5059870000000  0.4385170000000 1.0
C      1  0.4796230000000  0.4838060000000  0.5830870000000 1.0
C      1  0.5095430000000  0.4981240000000  0.5090140000000 1.0
C      1  0.5162910000000  0.5669000000000  0.4529410000000 1.0
C      1  0.5038130000000  0.4436790000000  0.4176000000000 1.0
C      1  0.5098780000000  0.4938470000000  0.5744650000000 1.0
C      1  0.5668380000000  0.4912340000000  0.4623190000000 1.0
C      1  0.4683690000000  0.5347560000000  0.5059100000000 1.0
C      1  0.5270090000000  0.4889300000000  0.5534750000000 1.0
C      1  0.5545740000000  0.4800680000000  0.5092850000000 1.0
C      1  0.4861050000000  0.5389360000000  0.5661960000000 1.0
C      1  0.5315440000000  0.4880250000000  0.5269730000000 1.0
C      1  0.5948660000000  0.4495320000000  0.5327280000000 1.0
C      1  0.5140870000000  0.4573170000000  0.4382120000000 1.0
C      1  0.4575630000000  0.5001870000000  0.4546150000000 1.0
C      1  0.5475600000000  0.5228830000000  0.4300230000000 1.0
C      1  0.4504550000000  0.4324440000000  0.5245800000000 1.0
C      1  0.5040280000000  0.4886880000000  0.4418910000000 1.0
C      1  0.5764150000000  0.4635150000000  0.5219930000000 1.0
C      1  0.4812650000000  0.4526730000000  0.4046420000000 1.0
C      1  0.4406270000000  0.4792690000000  0.4014560000000 1.0
C      1  0.4574760000000  0.4600480000000  0.5882570000000 1.0
C      1  0.4559040000000  0.5184760000000  0.4809340000000 1.0
C      1  0.5461420000000  0.4722220000000  0.4772270000000 1.0
C      1  0.5169010000000  0.4711780000000  0.4682300000000 1.0
C      1  0.4988830000000  0.4753640000000  0.4922660000000 1.0
C      1  0.4753840000000  0.5637130000000  0.5220310000000 1.0
C      1  0.4860100000000  0.5115830000000  0.5235250000000 1.0
C      1  0.5040950000000  0.5678360000000  0.4782740000000 1.0
C      1  0.4648660000000  0.4744890000000  0.4128460000000 1.0
C      1  0.5631350000000  0.5051450000000  0.4899850000000 1.0
C      1  0.4534030000000  0.4864610000000  0.4837530000000 1.0
C      1  0.4971700000000  0.5404950000000  0.4886800000000 1.0
END
