TITL C-2778432-5617-1234 0.000797172516730908 125000 -782.900510608119 0 0 133 (C1) n - 1
REM
REM in /home/nfs/bkarasulu/CARBON/AIRSS/Generating-Clusters/REBO/Only-C1/SD-CG/HFTN-CG
REM
REM
REM
REM
REM
REM ./C.cell (11c1c37f851c82e70ff6c80c92926a4b)
REM
REM compiler GCC version 9.2.1 20190827 (Red Hat 9.2.1-1)
REM options -cpp -mtune=generic -march=x86-64 -g -O0 -fpre-include=/usr/include/finclude/math-vector-fortran.h
REM seed -114545206 -676208163 428683521 573150915 1376046923 -520270532 2108044647 -1458709211 718060762 -1938736220 -124180877 -875073517 506895663 1210363408 -1769093182 1817851949 -1762579649 -1390527937 -472841876 1931862498 2033706480 -1661660805 1011914721 -1457841859 -1336727183 1684451929 1926409534 -34227033 1032435329 1519593450 -64730423 -1942406220 1398049756
REM
CELL 1.54180   50.00000   50.00000   50.00000   90.00000   90.00000   90.00000
LATT -1
SFAC C  
C      1  0.5363330000000  0.5446850000000  0.4938450000000 1.0
C      1  0.5606370000000  0.4818870000000  0.4598110000000 1.0
C      1  0.5634090000000  0.5048470000000  0.5650430000000 1.0
C      1  0.5788860000000  0.5176330000000  0.4238100000000 1.0
C      1  0.5726850000000  0.5450080000000  0.5417590000000 1.0
C      1  0.4012780000000  0.4533610000000  0.4925490000000 1.0
C      1  0.5359780000000  0.4279040000000  0.5263820000000 1.0
C      1  0.5409910000000  0.5816140000000  0.5083860000000 1.0
C      1  0.5252930000000  0.5403940000000  0.5518370000000 1.0
C      1  0.4260560000000  0.4445720000000  0.4927880000000 1.0
C      1  0.5129690000000  0.5475630000000  0.4738130000000 1.0
C      1  0.4271890000000  0.5477520000000  0.5380400000000 1.0
C      1  0.4657530000000  0.4431070000000  0.5674900000000 1.0
C      1  0.4160680000000  0.5133480000000  0.5050490000000 1.0
C      1  0.4152950000000  0.5275850000000  0.4807670000000 1.0
C      1  0.5114880000000  0.4151620000000  0.4764490000000 1.0
C      1  0.4787630000000  0.4720660000000  0.4842240000000 1.0
C      1  0.4526710000000  0.4795830000000  0.5952440000000 1.0
C      1  0.5427730000000  0.4731510000000  0.5952090000000 1.0
C      1  0.5072980000000  0.5075160000000  0.4758110000000 1.0
C      1  0.4799720000000  0.4506560000000  0.5179240000000 1.0
C      1  0.4336390000000  0.5295140000000  0.4594690000000 1.0
C      1  0.5171030000000  0.4737840000000  0.6030580000000 1.0
C      1  0.4947080000000  0.5872440000000  0.4894140000000 1.0
C      1  0.4509180000000  0.4759020000000  0.4802600000000 1.0
C      1  0.5368900000000  0.4246040000000  0.4650560000000 1.0
C      1  0.4491040000000  0.5773520000000  0.4733250000000 1.0
C      1  0.5461660000000  0.4601030000000  0.4818200000000 1.0
C      1  0.5311040000000  0.5494870000000  0.4173870000000 1.0
C      1  0.4620530000000  0.5026340000000  0.4024860000000 1.0
C      1  0.4363790000000  0.5490650000000  0.4392460000000 1.0
C      1  0.5166430000000  0.5613090000000  0.4435870000000 1.0
C      1  0.4288710000000  0.5544400000000  0.5647180000000 1.0
C      1  0.4852560000000  0.4799430000000  0.5970380000000 1.0
C      1  0.5403060000000  0.4633870000000  0.4424450000000 1.0
C      1  0.4625600000000  0.5561370000000  0.4894840000000 1.0
C      1  0.5877200000000  0.4297120000000  0.4364310000000 1.0
C      1  0.5834480000000  0.5220250000000  0.5547150000000 1.0
C      1  0.4914060000000  0.5664300000000  0.5149670000000 1.0
C      1  0.5606600000000  0.5133650000000  0.5007030000000 1.0
C      1  0.4508610000000  0.4276040000000  0.4384720000000 1.0
C      1  0.4601860000000  0.5512710000000  0.4243090000000 1.0
C      1  0.4643730000000  0.4169600000000  0.5523410000000 1.0
C      1  0.4031430000000  0.5081090000000  0.5549270000000 1.0
C      1  0.5636810000000  0.4788440000000  0.5769580000000 1.0
C      1  0.5524120000000  0.5569940000000  0.5584010000000 1.0
C      1  0.5922210000000  0.5847490000000  0.5014270000000 1.0
C      1  0.4850130000000  0.4076950000000  0.4646640000000 1.0
C      1  0.4516950000000  0.5021200000000  0.5433260000000 1.0
C      1  0.4808870000000  0.4954690000000  0.5506700000000 1.0
C      1  0.5014030000000  0.5202430000000  0.5626120000000 1.0
C      1  0.5244800000000  0.5891050000000  0.4858780000000 1.0
C      1  0.4800460000000  0.4706420000000  0.4385860000000 1.0
C      1  0.5795900000000  0.4548160000000  0.4565690000000 1.0
C      1  0.5882630000000  0.5166460000000  0.4550260000000 1.0
C      1  0.5999450000000  0.4810730000000  0.4944960000000 1.0
C      1  0.4697670000000  0.5261180000000  0.5274040000000 1.0
C      1  0.5794840000000  0.4894930000000  0.5159330000000 1.0
C      1  0.4703980000000  0.4726010000000  0.4080660000000 1.0
C      1  0.4855880000000  0.5674280000000  0.4369120000000 1.0
C      1  0.4428180000000  0.4594860000000  0.5777380000000 1.0
C      1  0.5688320000000  0.5704170000000  0.4969010000000 1.0
C      1  0.5958680000000  0.4548070000000  0.4840880000000 1.0
C      1  0.5099140000000  0.4982650000000  0.4239780000000 1.0
C      1  0.4383540000000  0.5338790000000  0.5877880000000 1.0
C      1  0.3988750000000  0.4804990000000  0.5608280000000 1.0
C      1  0.5675590000000  0.4683580000000  0.5300550000000 1.0
C      1  0.5182540000000  0.5070150000000  0.4505980000000 1.0
C      1  0.5191210000000  0.4523100000000  0.4638670000000 1.0
C      1  0.5599670000000  0.5447960000000  0.4213670000000 1.0
C      1  0.4345980000000  0.4876180000000  0.4160020000000 1.0
C      1  0.5008250000000  0.5129560000000  0.5208590000000 1.0
C      1  0.4616360000000  0.4136240000000  0.4864720000000 1.0
C      1  0.5648870000000  0.5428600000000  0.5123250000000 1.0
C      1  0.4719870000000  0.6007360000000  0.5093310000000 1.0
C      1  0.4488530000000  0.5857490000000  0.5124250000000 1.0
C      1  0.4371770000000  0.4735000000000  0.5322310000000 1.0
C      1  0.4230210000000  0.4654110000000  0.5582400000000 1.0
C      1  0.5320180000000  0.4771430000000  0.4188890000000 1.0
C      1  0.4743840000000  0.4127530000000  0.4384750000000 1.0
C      1  0.4774190000000  0.5820850000000  0.4630420000000 1.0
C      1  0.5475270000000  0.5074060000000  0.4151700000000 1.0
C      1  0.4404770000000  0.4595600000000  0.4587590000000 1.0
C      1  0.5375900000000  0.5092700000000  0.5501730000000 1.0
C      1  0.5494650000000  0.5100130000000  0.4495090000000 1.0
C      1  0.5605100000000  0.4270290000000  0.4522170000000 1.0
C      1  0.4570510000000  0.4912650000000  0.4404460000000 1.0
C      1  0.4858580000000  0.5417780000000  0.4817040000000 1.0
C      1  0.5355400000000  0.5783530000000  0.4622060000000 1.0
C      1  0.4318520000000  0.5147330000000  0.5624370000000 1.0
C      1  0.5273330000000  0.5065670000000  0.4996060000000 1.0
C      1  0.5717850000000  0.4602540000000  0.5568870000000 1.0
C      1  0.5157650000000  0.4610760000000  0.5650870000000 1.0
C      1  0.4856840000000  0.4621410000000  0.5481110000000 1.0
C      1  0.4698260000000  0.5286400000000  0.4063620000000 1.0
C      1  0.4365730000000  0.4911410000000  0.5053800000000 1.0
C      1  0.4899430000000  0.4815480000000  0.5134090000000 1.0
C      1  0.4928060000000  0.4640070000000  0.4621210000000 1.0
C      1  0.4394560000000  0.4278520000000  0.4693560000000 1.0
C      1  0.4280630000000  0.5908850000000  0.4904410000000 1.0
C      1  0.4974920000000  0.5474640000000  0.4115370000000 1.0
C      1  0.6053580000000  0.4193930000000  0.4189890000000 1.0
C      1  0.4549680000000  0.5102900000000  0.4592670000000 1.0
C      1  0.5166740000000  0.4170870000000  0.5435810000000 1.0
C      1  0.4920370000000  0.4486580000000  0.5850470000000 1.0
C      1  0.4391890000000  0.5026680000000  0.5998000000000 1.0
C      1  0.4521840000000  0.5528350000000  0.5204000000000 1.0
C      1  0.5564990000000  0.5939950000000  0.5971520000000 1.0
C      1  0.5864820000000  0.5046880000000  0.4800800000000 1.0
C      1  0.5290570000000  0.5643470000000  0.5277890000000 1.0
C      1  0.4452600000000  0.4565470000000  0.4251460000000 1.0
C      1  0.5650940000000  0.5402670000000  0.4532050000000 1.0
C      1  0.4899740000000  0.4133590000000  0.5309540000000 1.0
C      1  0.5416900000000  0.4582030000000  0.5153710000000 1.0
C      1  0.4575720000000  0.4177010000000  0.5199490000000 1.0
C      1  0.5099920000000  0.5413940000000  0.5135980000000 1.0
C      1  0.4105290000000  0.5255840000000  0.5304930000000 1.0
C      1  0.4089350000000  0.4936740000000  0.4092400000000 1.0
C      1  0.4765130000000  0.5123480000000  0.4794490000000 1.0
C      1  0.5700950000000  0.4413880000000  0.4928790000000 1.0
C      1  0.4464180000000  0.4487370000000  0.5155630000000 1.0
C      1  0.5604070000000  0.5653790000000  0.4678080000000 1.0
C      1  0.5545060000000  0.5759490000000  0.5782520000000 1.0
C      1  0.4679320000000  0.5303820000000  0.5995680000000 1.0
C      1  0.4809010000000  0.5743180000000  0.5379930000000 1.0
C      1  0.5154840000000  0.4291040000000  0.5696510000000 1.0
C      1  0.5614150000000  0.4226700000000  0.5118840000000 1.0
C      1  0.5132870000000  0.4894480000000  0.5570870000000 1.0
C      1  0.5184050000000  0.5220250000000  0.4044100000000 1.0
C      1  0.4908860000000  0.4253990000000  0.4998500000000 1.0
C      1  0.5334800000000  0.4883410000000  0.5246610000000 1.0
C      1  0.4655780000000  0.5028360000000  0.5058450000000 1.0
C      1  0.4860830000000  0.5119240000000  0.5898110000000 1.0
END
