TITL C-2778422-5617-1372 0.0488937167440699 125000 -350.624102260037 0 0 62 (C1) n - 1
REM
REM in /home/nfs/bkarasulu/CARBON/AIRSS/Generating-Clusters/REBO/Only-C1/SD-CG/HFTN-CG
REM
REM
REM
REM
REM
REM ./C.cell (11c1c37f851c82e70ff6c80c92926a4b)
REM
REM compiler GCC version 9.2.1 20190827 (Red Hat 9.2.1-1)
REM options -cpp -mtune=generic -march=x86-64 -g -O0 -fpre-include=/usr/include/finclude/math-vector-fortran.h
REM seed -832654522 -372693317 -1173861393 -1361672949 -2146570705 415484604 549657539 1986724184 -1365090637 -698841755 -23404934 -1963983855 -100980071 -1347096074 -537173272 1313872167 -2096175993 -1003035930 455999818 -548232053 -54083380 -833808827 259454242 174038783 1602903705 1049810770 -578119244 862364986 -294250073 -384982569 -1181487841 1195259324 -1375392419
REM
CELL 1.54180   50.00000   50.00000   50.00000   90.00000   90.00000   90.00000
LATT -1
SFAC C  
C      1  0.4653060000000  0.4633770000000  0.5474730000000 1.0
C      1  0.4964260000000  0.4891440000000  0.4147180000000 1.0
C      1  0.4894900000000  0.4750400000000  0.4931950000000 1.0
C      1  0.4751180000000  0.5621380000000  0.5222190000000 1.0
C      1  0.4753290000000  0.5299940000000  0.5728570000000 1.0
C      1  0.4557300000000  0.5171370000000  0.5018060000000 1.0
C      1  0.5482670000000  0.4443350000000  0.4510480000000 1.0
C      1  0.5304600000000  0.5315220000000  0.5565680000000 1.0
C      1  0.4904300000000  0.4669560000000  0.4600920000000 1.0
C      1  0.5426840000000  0.4723060000000  0.4927400000000 1.0
C      1  0.5274920000000  0.4683430000000  0.5613700000000 1.0
C      1  0.5495820000000  0.5259230000000  0.4174150000000 1.0
C      1  0.4849660000000  0.5116430000000  0.5118960000000 1.0
C      1  0.4636550000000  0.5554800000000  0.3983380000000 1.0
C      1  0.4470520000000  0.4515920000000  0.4598630000000 1.0
C      1  0.5787550000000  0.4977670000000  0.5194160000000 1.0
C      1  0.4816620000000  0.4823280000000  0.5255340000000 1.0
C      1  0.4699170000000  0.4482660000000  0.4488570000000 1.0
C      1  0.5157980000000  0.4696580000000  0.5093700000000 1.0
C      1  0.4497060000000  0.4708190000000  0.4838620000000 1.0
C      1  0.5181600000000  0.5153550000000  0.5091090000000 1.0
C      1  0.4877040000000  0.5506910000000  0.4743360000000 1.0
C      1  0.4371830000000  0.5038800000000  0.5198910000000 1.0
C      1  0.5340350000000  0.4607580000000  0.4349480000000 1.0
C      1  0.4342010000000  0.4537790000000  0.5385860000000 1.0
C      1  0.5104200000000  0.4795480000000  0.4408300000000 1.0
C      1  0.5349140000000  0.5510620000000  0.4809070000000 1.0
C      1  0.4451250000000  0.5552070000000  0.5329490000000 1.0
C      1  0.5500990000000  0.5280300000000  0.4886990000000 1.0
C      1  0.4770320000000  0.5372620000000  0.4141520000000 1.0
C      1  0.5200730000000  0.4920560000000  0.5304640000000 1.0
C      1  0.5168800000000  0.5010290000000  0.5633320000000 1.0
C      1  0.4887540000000  0.5180760000000  0.4638140000000 1.0
C      1  0.4841340000000  0.5114060000000  0.4059110000000 1.0
C      1  0.4935060000000  0.5650980000000  0.4994980000000 1.0
C      1  0.4968060000000  0.4684260000000  0.5526960000000 1.0
C      1  0.5329480000000  0.5259170000000  0.4371200000000 1.0
C      1  0.4359780000000  0.4748550000000  0.5138150000000 1.0
C      1  0.5481560000000  0.4447560000000  0.4786370000000 1.0
C      1  0.5340620000000  0.5392670000000  0.5235740000000 1.0
C      1  0.5654710000000  0.5277350000000  0.5163130000000 1.0
C      1  0.4850830000000  0.5435440000000  0.4413960000000 1.0
C      1  0.5333580000000  0.5015670000000  0.4827480000000 1.0
C      1  0.5611150000000  0.4730000000000  0.5188550000000 1.0
C      1  0.4569970000000  0.4308850000000  0.5429480000000 1.0
C      1  0.5401940000000  0.4513670000000  0.5351510000000 1.0
C      1  0.5580280000000  0.5178750000000  0.5469770000000 1.0
C      1  0.4912290000000  0.5056500000000  0.5803230000000 1.0
C      1  0.4505790000000  0.5373410000000  0.5615340000000 1.0
C      1  0.5162720000000  0.5458470000000  0.4556310000000 1.0
C      1  0.5174320000000  0.5056760000000  0.4567710000000 1.0
C      1  0.5503400000000  0.4882840000000  0.5458770000000 1.0
C      1  0.4472190000000  0.5437920000000  0.5009730000000 1.0
C      1  0.4815970000000  0.4351370000000  0.5235480000000 1.0
C      1  0.4991880000000  0.5360110000000  0.5555980000000 1.0
C      1  0.5214820000000  0.5624480000000  0.5044440000000 1.0
C      1  0.5105200000000  0.4401920000000  0.5217260000000 1.0
C      1  0.4612160000000  0.4520950000000  0.5093630000000 1.0
C      1  0.4912580000000  0.5380450000000  0.5288130000000 1.0
C      1  0.5398870000000  0.4345020000000  0.5054890000000 1.0
C      1  0.4716570000000  0.4949600000000  0.4740930000000 1.0
C      1  0.4318820000000  0.5238160000000  0.5395240000000 1.0
END
