TITL C-2778422-5617-322 0.00134134078450795 125000 -646.756152784099 0 0 112 (C1) n - 1
REM
REM in /home/nfs/bkarasulu/CARBON/AIRSS/Generating-Clusters/REBO/Only-C1/SD-CG/HFTN-CG
REM
REM
REM
REM
REM
REM ./C.cell (11c1c37f851c82e70ff6c80c92926a4b)
REM
REM compiler GCC version 9.2.1 20190827 (Red Hat 9.2.1-1)
REM options -cpp -mtune=generic -march=x86-64 -g -O0 -fpre-include=/usr/include/finclude/math-vector-fortran.h
REM seed 2041183052 -785115201 -1218226607 512401241 -1930432882 1654850831 1682445116 -984656687 273262989 -665518816 -509212136 -2113524760 -994299870 -619506104 -293527062 -117159487 1273410335 -1181463079 79351754 953781215 -309631494 -547295626 2061917422 -667570144 -1810512129 -1875408671 1836826321 2129188150 2123816080 2028992661 -1302962284 -436121642 1250079885
REM
CELL 1.54180   50.00000   50.00000   50.00000   90.00000   90.00000   90.00000
LATT -1
SFAC C  
C      1  0.4881990000000  0.4175950000000  0.5786220000000 1.0
C      1  0.5359680000000  0.4998020000000  0.4244910000000 1.0
C      1  0.4773490000000  0.4753200000000  0.4866560000000 1.0
C      1  0.5772540000000  0.4664920000000  0.4832890000000 1.0
C      1  0.5322890000000  0.5803340000000  0.4449940000000 1.0
C      1  0.4886840000000  0.5237910000000  0.5562090000000 1.0
C      1  0.4981170000000  0.4214200000000  0.5274350000000 1.0
C      1  0.4722370000000  0.5445270000000  0.4669840000000 1.0
C      1  0.5214580000000  0.4739820000000  0.6090020000000 1.0
C      1  0.4456340000000  0.5454900000000  0.5590250000000 1.0
C      1  0.5804520000000  0.4404910000000  0.5796010000000 1.0
C      1  0.4926530000000  0.5537290000000  0.5128440000000 1.0
C      1  0.5211380000000  0.5576410000000  0.4292790000000 1.0
C      1  0.4426520000000  0.4400540000000  0.5680810000000 1.0
C      1  0.5269320000000  0.5364930000000  0.5838460000000 1.0
C      1  0.4519930000000  0.4987140000000  0.5245060000000 1.0
C      1  0.5260940000000  0.5162180000000  0.5443330000000 1.0
C      1  0.4833080000000  0.5311510000000  0.4923080000000 1.0
C      1  0.4491270000000  0.5295910000000  0.4232940000000 1.0
C      1  0.4169980000000  0.4583370000000  0.4861540000000 1.0
C      1  0.5426480000000  0.5323690000000  0.4301940000000 1.0
C      1  0.4719810000000  0.4449970000000  0.5782150000000 1.0
C      1  0.4808860000000  0.4464310000000  0.4194570000000 1.0
C      1  0.5549740000000  0.5357840000000  0.5765890000000 1.0
C      1  0.5164440000000  0.5567740000000  0.5660050000000 1.0
C      1  0.5280290000000  0.5489100000000  0.5358890000000 1.0
C      1  0.5346570000000  0.4775950000000  0.4765890000000 1.0
C      1  0.4159280000000  0.4900070000000  0.5099760000000 1.0
C      1  0.4990140000000  0.4584760000000  0.5621800000000 1.0
C      1  0.5641210000000  0.5813040000000  0.5136690000000 1.0
C      1  0.5072780000000  0.4310870000000  0.4265600000000 1.0
C      1  0.5801120000000  0.4998230000000  0.5233880000000 1.0
C      1  0.5577390000000  0.5228790000000  0.4997030000000 1.0
C      1  0.5072100000000  0.4587730000000  0.4465780000000 1.0
C      1  0.4544400000000  0.4966120000000  0.5762980000000 1.0
C      1  0.5551760000000  0.5741900000000  0.4652550000000 1.0
C      1  0.5054760000000  0.4829780000000  0.5848520000000 1.0
C      1  0.4459180000000  0.5341030000000  0.4559440000000 1.0
C      1  0.4617570000000  0.4237470000000  0.4873180000000 1.0
C      1  0.5368020000000  0.4980600000000  0.5010300000000 1.0
C      1  0.4864780000000  0.4739810000000  0.4144470000000 1.0
C      1  0.5698420000000  0.4755290000000  0.4543920000000 1.0
C      1  0.5726340000000  0.4189470000000  0.4635530000000 1.0
C      1  0.4656200000000  0.5448910000000  0.4076820000000 1.0
C      1  0.4818240000000  0.4753460000000  0.4541450000000 1.0
C      1  0.4076430000000  0.4897990000000  0.4772270000000 1.0
C      1  0.5760600000000  0.4556620000000  0.5581590000000 1.0
C      1  0.5847730000000  0.4255610000000  0.6007020000000 1.0
C      1  0.4732260000000  0.4772640000000  0.5856530000000 1.0
C      1  0.4131430000000  0.4591040000000  0.5202500000000 1.0
C      1  0.5729810000000  0.5521220000000  0.4753750000000 1.0
C      1  0.4116940000000  0.5547490000000  0.4956290000000 1.0
C      1  0.5249500000000  0.4586840000000  0.5038890000000 1.0
C      1  0.4194700000000  0.5121190000000  0.4599170000000 1.0
C      1  0.4956470000000  0.4042690000000  0.5565280000000 1.0
C      1  0.5562560000000  0.4711410000000  0.5090630000000 1.0
C      1  0.5845740000000  0.4362740000000  0.4813470000000 1.0
C      1  0.4408670000000  0.4915780000000  0.4867140000000 1.0
C      1  0.4617270000000  0.5232770000000  0.5702660000000 1.0
C      1  0.4189590000000  0.5423810000000  0.4735950000000 1.0
C      1  0.5760110000000  0.5578710000000  0.5057760000000 1.0
C      1  0.4328390000000  0.4577600000000  0.5480610000000 1.0
C      1  0.5331670000000  0.5985490000000  0.4729280000000 1.0
C      1  0.4970470000000  0.5009700000000  0.5350200000000 1.0
C      1  0.4640160000000  0.5663250000000  0.5480080000000 1.0
C      1  0.5281400000000  0.5365120000000  0.5067170000000 1.0
C      1  0.4780430000000  0.5848430000000  0.4398030000000 1.0
C      1  0.5701380000000  0.5329670000000  0.4473510000000 1.0
C      1  0.5254260000000  0.5275080000000  0.4765860000000 1.0
C      1  0.4803250000000  0.4367510000000  0.4663040000000 1.0
C      1  0.4578270000000  0.4679880000000  0.5292740000000 1.0
C      1  0.5082690000000  0.4495010000000  0.5301810000000 1.0
C      1  0.5109720000000  0.5970510000000  0.4981210000000 1.0
C      1  0.4634370000000  0.4421170000000  0.4418170000000 1.0
C      1  0.5504370000000  0.5035190000000  0.5382100000000 1.0
C      1  0.5308790000000  0.4162050000000  0.4319180000000 1.0
C      1  0.5314860000000  0.4687590000000  0.4309520000000 1.0
C      1  0.4224870000000  0.5095930000000  0.5345910000000 1.0
C      1  0.4698260000000  0.4966680000000  0.4321920000000 1.0
C      1  0.4896420000000  0.5829550000000  0.5090510000000 1.0
C      1  0.4893640000000  0.5631940000000  0.4183080000000 1.0
C      1  0.4681770000000  0.5043290000000  0.4982760000000 1.0
C      1  0.4936180000000  0.5445110000000  0.4452850000000 1.0
C      1  0.4753040000000  0.4064340000000  0.5069250000000 1.0
C      1  0.4589270000000  0.5909790000000  0.4847540000000 1.0
C      1  0.5424830000000  0.5963250000000  0.5050320000000 1.0
C      1  0.5858480000000  0.4948130000000  0.4943240000000 1.0
C      1  0.4484980000000  0.4761280000000  0.4590350000000 1.0
C      1  0.5578300000000  0.5410760000000  0.5497070000000 1.0
C      1  0.4124130000000  0.5556120000000  0.5227780000000 1.0
C      1  0.5790390000000  0.5188850000000  0.4758350000000 1.0
C      1  0.5064880000000  0.5110020000000  0.5073900000000 1.0
C      1  0.5035680000000  0.4545800000000  0.4801110000000 1.0
C      1  0.4892240000000  0.3880270000000  0.5293660000000 1.0
C      1  0.4355940000000  0.4883010000000  0.5554200000000 1.0
C      1  0.4706040000000  0.5759600000000  0.4648090000000 1.0
C      1  0.5543110000000  0.4277490000000  0.4436310000000 1.0
C      1  0.4870090000000  0.5489300000000  0.5401870000000 1.0
C      1  0.4687450000000  0.5891260000000  0.5294660000000 1.0
C      1  0.4388110000000  0.5000280000000  0.4366490000000 1.0
C      1  0.4231550000000  0.5384270000000  0.5423550000000 1.0
C      1  0.5165190000000  0.5237000000000  0.4496320000000 1.0
C      1  0.5748670000000  0.5329050000000  0.5264090000000 1.0
C      1  0.4870380000000  0.4738210000000  0.5370480000000 1.0
C      1  0.4364750000000  0.4378900000000  0.5138480000000 1.0
C      1  0.5717610000000  0.4705170000000  0.5371660000000 1.0
C      1  0.4607810000000  0.4536070000000  0.5015360000000 1.0
C      1  0.5635570000000  0.5011870000000  0.4435150000000 1.0
C      1  0.5119080000000  0.5099710000000  0.5746690000000 1.0
C      1  0.4412790000000  0.4440630000000  0.4681010000000 1.0
C      1  0.5037590000000  0.4987300000000  0.4303420000000 1.0
C      1  0.5551370000000  0.4560280000000  0.4400490000000 1.0
END
