TITL C-2778436-5916-271 0.000348785899649248 125000 -869.917844572431 0 0 150 (C1) n - 1
REM
REM in /home/nfs/bkarasulu/CARBON/AIRSS/Generating-Clusters/REBO/Only-C1/SD-CG/HFTN-CG
REM
REM
REM
REM
REM
REM ./C.cell (11c1c37f851c82e70ff6c80c92926a4b)
REM
REM compiler GCC version 9.2.1 20190827 (Red Hat 9.2.1-1)
REM options -cpp -mtune=generic -march=x86-64 -g -O0 -fpre-include=/usr/include/finclude/math-vector-fortran.h
REM seed -209031731 -44568192 -1165199867 1562352848 438818096 1960642924 -591234990 1216953047 1953826449 -1906211347 299398174 -204416463 -1864290812 489916874 353112 1049153995 1734667003 -1984253164 1841051592 428279346 1322812035 1250194435 1665466170 -665493229 -373097818 393853037 -808189308 1936192408 -2016799345 1022017556 146768961 -1499404753 -141956220
REM
CELL 1.54180   50.00000   50.00000   50.00000   90.00000   90.00000   90.00000
LATT -1
SFAC C  
C      1  0.5451630000000  0.5468160000000  0.5783060000000 1.0
C      1  0.4064970000000  0.4935320000000  0.4588440000000 1.0
C      1  0.5039370000000  0.5319190000000  0.4184480000000 1.0
C      1  0.5015960000000  0.5633670000000  0.4251900000000 1.0
C      1  0.3917170000000  0.4426360000000  0.4843130000000 1.0
C      1  0.5174450000000  0.4268130000000  0.4587820000000 1.0
C      1  0.4889970000000  0.5514630000000  0.6006340000000 1.0
C      1  0.4572830000000  0.5134380000000  0.4500950000000 1.0
C      1  0.4917810000000  0.4192350000000  0.4881870000000 1.0
C      1  0.4559350000000  0.5161020000000  0.5225750000000 1.0
C      1  0.4615460000000  0.4437670000000  0.4543120000000 1.0
C      1  0.4652710000000  0.4882660000000  0.5649360000000 1.0
C      1  0.4339340000000  0.4390910000000  0.5268390000000 1.0
C      1  0.5212980000000  0.5118830000000  0.6016230000000 1.0
C      1  0.5724580000000  0.5367790000000  0.4608000000000 1.0
C      1  0.4691410000000  0.5602770000000  0.5761600000000 1.0
C      1  0.5543240000000  0.5790440000000  0.4549660000000 1.0
C      1  0.5038990000000  0.5834260000000  0.5610270000000 1.0
C      1  0.4721510000000  0.5669080000000  0.4958010000000 1.0
C      1  0.5830140000000  0.4902420000000  0.4506410000000 1.0
C      1  0.4356920000000  0.5505820000000  0.5349050000000 1.0
C      1  0.4230730000000  0.4239660000000  0.5000970000000 1.0
C      1  0.5790900000000  0.5047320000000  0.4256670000000 1.0
C      1  0.4686220000000  0.5323420000000  0.5481420000000 1.0
C      1  0.4172100000000  0.4149450000000  0.5857250000000 1.0
C      1  0.5793450000000  0.4705720000000  0.5487120000000 1.0
C      1  0.4330800000000  0.5228660000000  0.4080230000000 1.0
C      1  0.4912520000000  0.4959570000000  0.5045430000000 1.0
C      1  0.5689450000000  0.5420570000000  0.5624290000000 1.0
C      1  0.4385990000000  0.4304080000000  0.4698550000000 1.0
C      1  0.5173030000000  0.4488160000000  0.5208790000000 1.0
C      1  0.5674930000000  0.4521860000000  0.4263540000000 1.0
C      1  0.3926850000000  0.4717880000000  0.5257860000000 1.0
C      1  0.5926490000000  0.5506640000000  0.5058810000000 1.0
C      1  0.5358810000000  0.4781320000000  0.5816350000000 1.0
C      1  0.5446910000000  0.5055020000000  0.5507070000000 1.0
C      1  0.4493630000000  0.4499770000000  0.4255250000000 1.0
C      1  0.4962050000000  0.5442090000000  0.5619960000000 1.0
C      1  0.5173980000000  0.4006060000000  0.4889720000000 1.0
C      1  0.4396990000000  0.4976410000000  0.4286370000000 1.0
C      1  0.5838310000000  0.5196070000000  0.5335770000000 1.0
C      1  0.5189220000000  0.4216490000000  0.5386660000000 1.0
C      1  0.5622260000000  0.5458410000000  0.5311980000000 1.0
C      1  0.4558490000000  0.6029250000000  0.4975760000000 1.0
C      1  0.5001650000000  0.4820790000000  0.4042930000000 1.0
C      1  0.5235090000000  0.5441670000000  0.4731480000000 1.0
C      1  0.4466820000000  0.4053190000000  0.4906950000000 1.0
C      1  0.5096720000000  0.4662720000000  0.5539930000000 1.0
C      1  0.5429650000000  0.5305070000000  0.4526050000000 1.0
C      1  0.4938560000000  0.5242480000000  0.6043560000000 1.0
C      1  0.5410290000000  0.4924990000000  0.4253630000000 1.0
C      1  0.5395300000000  0.4750000000000  0.5419760000000 1.0
C      1  0.5098980000000  0.4952850000000  0.5670780000000 1.0
C      1  0.4013690000000  0.5019750000000  0.5126960000000 1.0
C      1  0.4431030000000  0.5433150000000  0.5678820000000 1.0
C      1  0.6012740000000  0.4834110000000  0.5043930000000 1.0
C      1  0.4317470000000  0.5490370000000  0.5040650000000 1.0
C      1  0.5242630000000  0.4722020000000  0.4158350000000 1.0
C      1  0.4945260000000  0.4523410000000  0.4904250000000 1.0
C      1  0.4683120000000  0.5005210000000  0.4795530000000 1.0
C      1  0.4307170000000  0.5213130000000  0.5803960000000 1.0
C      1  0.5692640000000  0.4386570000000  0.5096220000000 1.0
C      1  0.4705220000000  0.4112800000000  0.5073820000000 1.0
C      1  0.5297890000000  0.5019440000000  0.4860650000000 1.0
C      1  0.5707490000000  0.5089120000000  0.5053390000000 1.0
C      1  0.5750320000000  0.4725290000000  0.4899090000000 1.0
C      1  0.5369290000000  0.5288820000000  0.4986110000000 1.0
C      1  0.4903990000000  0.4856980000000  0.4453680000000 1.0
C      1  0.5390360000000  0.4986300000000  0.4546770000000 1.0
C      1  0.4446820000000  0.4908020000000  0.5101500000000 1.0
C      1  0.4672820000000  0.4335820000000  0.5306540000000 1.0
C      1  0.5638410000000  0.4797100000000  0.5741340000000 1.0
C      1  0.5356530000000  0.4435250000000  0.4271210000000 1.0
C      1  0.4809900000000  0.5580900000000  0.4674200000000 1.0
C      1  0.5040980000000  0.5536020000000  0.5158560000000 1.0
C      1  0.4024020000000  0.4459590000000  0.5152000000000 1.0
C      1  0.5289090000000  0.5672800000000  0.5049490000000 1.0
C      1  0.5813990000000  0.5078810000000  0.4729130000000 1.0
C      1  0.4106830000000  0.4914860000000  0.5438480000000 1.0
C      1  0.4870300000000  0.4947320000000  0.5904670000000 1.0
C      1  0.4050780000000  0.5313100000000  0.4965230000000 1.0
C      1  0.5396390000000  0.5178680000000  0.5812890000000 1.0
C      1  0.4403180000000  0.4246360000000  0.5780490000000 1.0
C      1  0.4879720000000  0.5770580000000  0.5348460000000 1.0
C      1  0.5439850000000  0.4730300000000  0.4757670000000 1.0
C      1  0.5235910000000  0.5604770000000  0.5677320000000 1.0
C      1  0.4959200000000  0.5301420000000  0.4674510000000 1.0
C      1  0.4469080000000  0.4675130000000  0.5235780000000 1.0
C      1  0.5680870000000  0.4475940000000  0.5363120000000 1.0
C      1  0.4444920000000  0.5680120000000  0.4545190000000 1.0
C      1  0.5199100000000  0.4781430000000  0.5072800000000 1.0
C      1  0.5054900000000  0.5171800000000  0.5453920000000 1.0
C      1  0.4416530000000  0.5750770000000  0.4859070000000 1.0
C      1  0.5758860000000  0.5096350000000  0.5648070000000 1.0
C      1  0.5526760000000  0.4836270000000  0.5131210000000 1.0
C      1  0.5147970000000  0.4396290000000  0.5738020000000 1.0
C      1  0.5931550000000  0.4884970000000  0.5317990000000 1.0
C      1  0.4306920000000  0.4694530000000  0.4271830000000 1.0
C      1  0.4768640000000  0.4685480000000  0.4716650000000 1.0
C      1  0.4905040000000  0.4255890000000  0.5543270000000 1.0
C      1  0.4362860000000  0.4959310000000  0.5650050000000 1.0
C      1  0.4102820000000  0.4442340000000  0.4641520000000 1.0
C      1  0.4639470000000  0.5250090000000  0.4124930000000 1.0
C      1  0.4700600000000  0.5749130000000  0.4332110000000 1.0
C      1  0.4808330000000  0.4604580000000  0.5712040000000 1.0
C      1  0.5374140000000  0.4003710000000  0.4651040000000 1.0
C      1  0.4869740000000  0.4571630000000  0.4351340000000 1.0
C      1  0.5775710000000  0.5644130000000  0.4487460000000 1.0
C      1  0.5323930000000  0.5715320000000  0.4376660000000 1.0
C      1  0.5784770000000  0.4623260000000  0.4496240000000 1.0
C      1  0.5061110000000  0.4661660000000  0.5936720000000 1.0
C      1  0.4595570000000  0.5710160000000  0.5455900000000 1.0
C      1  0.4894680000000  0.4086890000000  0.4570630000000 1.0
C      1  0.4356820000000  0.5388490000000  0.4573950000000 1.0
C      1  0.4974810000000  0.5253550000000  0.4979650000000 1.0
C      1  0.4218830000000  0.4965500000000  0.4872740000000 1.0
C      1  0.5153420000000  0.5770670000000  0.4748940000000 1.0
C      1  0.4970020000000  0.5835940000000  0.4516180000000 1.0
C      1  0.4064700000000  0.5268030000000  0.4662380000000 1.0
C      1  0.5533500000000  0.5822130000000  0.4848230000000 1.0
C      1  0.4713390000000  0.5448930000000  0.5178640000000 1.0
C      1  0.5674490000000  0.5720690000000  0.5141880000000 1.0
C      1  0.5663110000000  0.5390940000000  0.4919070000000 1.0
C      1  0.4706500000000  0.5420900000000  0.4389220000000 1.0
C      1  0.4952580000000  0.4121170000000  0.4289210000000 1.0
C      1  0.5435410000000  0.5967000000000  0.5143010000000 1.0
C      1  0.5271480000000  0.4483500000000  0.4815900000000 1.0
C      1  0.5345700000000  0.5409980000000  0.4228060000000 1.0
C      1  0.4860250000000  0.4607200000000  0.5223520000000 1.0
C      1  0.4120020000000  0.5168150000000  0.4341690000000 1.0
C      1  0.5540810000000  0.5171220000000  0.4140300000000 1.0
C      1  0.4866140000000  0.5952520000000  0.5080040000000 1.0
C      1  0.5147250000000  0.6029370000000  0.4970950000000 1.0
C      1  0.4108250000000  0.4663450000000  0.4470520000000 1.0
C      1  0.5412020000000  0.4422070000000  0.5521650000000 1.0
C      1  0.5725350000000  0.4432390000000  0.4756150000000 1.0
C      1  0.5439450000000  0.4285690000000  0.4991840000000 1.0
C      1  0.6157700000000  0.5065850000000  0.4950500000000 1.0
C      1  0.5305160000000  0.4069390000000  0.5145550000000 1.0
C      1  0.4966620000000  0.5123250000000  0.4434000000000 1.0
C      1  0.4840410000000  0.4915920000000  0.5368440000000 1.0
C      1  0.5507200000000  0.4300790000000  0.4549380000000 1.0
C      1  0.4993440000000  0.5801830000000  0.5922690000000 1.0
C      1  0.4633050000000  0.4342770000000  0.5704130000000 1.0
C      1  0.5041200000000  0.4385000000000  0.4230910000000 1.0
C      1  0.4287120000000  0.5184270000000  0.5404400000000 1.0
C      1  0.4871090000000  0.5071950000000  0.4049410000000 1.0
C      1  0.4424560000000  0.5222070000000  0.4857480000000 1.0
C      1  0.6134160000000  0.5334470000000  0.5022760000000 1.0
C      1  0.5336180000000  0.5274100000000  0.5292510000000 1.0
END
