TITL C-2778433-5640-450 0.00270766977739466 125000 -733.936769023677 0 0 127 (C1) n - 1
REM
REM in /home/nfs/bkarasulu/CARBON/AIRSS/Generating-Clusters/REBO/Only-C1/SD-CG/HFTN-CG
REM
REM
REM
REM
REM
REM ./C.cell (11c1c37f851c82e70ff6c80c92926a4b)
REM
REM compiler GCC version 9.2.1 20190827 (Red Hat 9.2.1-1)
REM options -cpp -mtune=generic -march=x86-64 -g -O0 -fpre-include=/usr/include/finclude/math-vector-fortran.h
REM seed -363073414 1378772079 -1837086062 -2133555547 1295253540 -1621294961 -449722859 -2028401168 -1679199276 2082482842 66286175 379550941 -853637158 -1579166702 1410490656 885788819 1635505601 -1856679943 327222886 1248158052 956726235 -453523718 -54488737 1682835345 -1981497995 410427109 1354869433 -1280625897 -1945697228 1115414097 -481571365 229776916 -1933791300
REM
CELL 1.54180   50.00000   50.00000   50.00000   90.00000   90.00000   90.00000
LATT -1
SFAC C  
C      1  0.5125830000000  0.4536760000000  0.5072540000000 1.0
C      1  0.5434670000000  0.5545190000000  0.5016390000000 1.0
C      1  0.4254980000000  0.5319700000000  0.4696180000000 1.0
C      1  0.5567190000000  0.5222430000000  0.5211880000000 1.0
C      1  0.4676240000000  0.5420240000000  0.4321590000000 1.0
C      1  0.5449080000000  0.5858270000000  0.4538100000000 1.0
C      1  0.4846590000000  0.5370060000000  0.5389980000000 1.0
C      1  0.5730800000000  0.4630910000000  0.5519910000000 1.0
C      1  0.5681370000000  0.4391260000000  0.4626820000000 1.0
C      1  0.5879260000000  0.4849320000000  0.4814870000000 1.0
C      1  0.4421680000000  0.5252560000000  0.4177740000000 1.0
C      1  0.5582390000000  0.4752000000000  0.4903470000000 1.0
C      1  0.5302670000000  0.5236540000000  0.4046450000000 1.0
C      1  0.5417240000000  0.4373330000000  0.4778780000000 1.0
C      1  0.5094750000000  0.5033690000000  0.4745590000000 1.0
C      1  0.5382400000000  0.5869500000000  0.5005080000000 1.0
C      1  0.5525670000000  0.4796240000000  0.5704440000000 1.0
C      1  0.5033540000000  0.4699990000000  0.4498970000000 1.0
C      1  0.5508540000000  0.4938820000000  0.5393380000000 1.0
C      1  0.4803890000000  0.4919550000000  0.5169220000000 1.0
C      1  0.5791770000000  0.5028640000000  0.4340270000000 1.0
C      1  0.4516850000000  0.5384730000000  0.5777220000000 1.0
C      1  0.5491600000000  0.5529890000000  0.5460690000000 1.0
C      1  0.4438740000000  0.4716850000000  0.5819250000000 1.0
C      1  0.5394040000000  0.4676640000000  0.4281720000000 1.0
C      1  0.4622410000000  0.4954190000000  0.4597700000000 1.0
C      1  0.5695390000000  0.5264050000000  0.5527290000000 1.0
C      1  0.4283270000000  0.4516850000000  0.5374970000000 1.0
C      1  0.5090660000000  0.4720010000000  0.4176590000000 1.0
C      1  0.4106890000000  0.4485350000000  0.4889460000000 1.0
C      1  0.4804710000000  0.4381130000000  0.4738580000000 1.0
C      1  0.5895950000000  0.4780480000000  0.5342510000000 1.0
C      1  0.5713920000000  0.5806770000000  0.4938660000000 1.0
C      1  0.5501610000000  0.4379840000000  0.5497970000000 1.0
C      1  0.4250240000000  0.5547170000000  0.4867600000000 1.0
C      1  0.4716890000000  0.4737940000000  0.5703850000000 1.0
C      1  0.4970790000000  0.4921450000000  0.6198520000000 1.0
C      1  0.5036250000000  0.4670670000000  0.5377290000000 1.0
C      1  0.4101810000000  0.5094690000000  0.4771890000000 1.0
C      1  0.4385390000000  0.4329760000000  0.4374900000000 1.0
C      1  0.4794610000000  0.5242180000000  0.5701210000000 1.0
C      1  0.5267160000000  0.5276090000000  0.5056250000000 1.0
C      1  0.5248600000000  0.4239990000000  0.4424510000000 1.0
C      1  0.5173270000000  0.4369910000000  0.5598190000000 1.0
C      1  0.5944950000000  0.5350400000000  0.5232440000000 1.0
C      1  0.4791440000000  0.5468290000000  0.4635970000000 1.0
C      1  0.5201710000000  0.5507350000000  0.4241610000000 1.0
C      1  0.5085010000000  0.4856220000000  0.5029020000000 1.0
C      1  0.4082400000000  0.4897960000000  0.4579910000000 1.0
C      1  0.4471760000000  0.5226900000000  0.4512520000000 1.0
C      1  0.5523030000000  0.5417860000000  0.4229590000000 1.0
C      1  0.5045630000000  0.5017640000000  0.4074250000000 1.0
C      1  0.4589390000000  0.5575280000000  0.5359520000000 1.0
C      1  0.4993820000000  0.5593570000000  0.5703460000000 1.0
C      1  0.4936010000000  0.5187950000000  0.4517090000000 1.0
C      1  0.4700670000000  0.4946060000000  0.5452220000000 1.0
C      1  0.4298650000000  0.4288500000000  0.4688430000000 1.0
C      1  0.4903570000000  0.5904790000000  0.5153090000000 1.0
C      1  0.4654550000000  0.4461480000000  0.5033640000000 1.0
C      1  0.4526520000000  0.4413670000000  0.5570450000000 1.0
C      1  0.4799290000000  0.4105480000000  0.4926650000000 1.0
C      1  0.4579780000000  0.4504370000000  0.4296880000000 1.0
C      1  0.4304240000000  0.5464680000000  0.5370410000000 1.0
C      1  0.5746730000000  0.5492810000000  0.4475140000000 1.0
C      1  0.4156380000000  0.4580870000000  0.4583290000000 1.0
C      1  0.5551710000000  0.5101020000000  0.5757390000000 1.0
C      1  0.4480280000000  0.4949900000000  0.4224470000000 1.0
C      1  0.5226330000000  0.4552870000000  0.4672480000000 1.0
C      1  0.4791480000000  0.4108680000000  0.5417080000000 1.0
C      1  0.4499370000000  0.4126280000000  0.4885590000000 1.0
C      1  0.5348020000000  0.4855470000000  0.4688920000000 1.0
C      1  0.5014340000000  0.5022790000000  0.5960750000000 1.0
C      1  0.4951520000000  0.5317260000000  0.4206160000000 1.0
C      1  0.5211780000000  0.5677510000000  0.5557070000000 1.0
C      1  0.4466480000000  0.5103360000000  0.5425240000000 1.0
C      1  0.4713040000000  0.5485070000000  0.4905650000000 1.0
C      1  0.4575100000000  0.4742110000000  0.5030620000000 1.0
C      1  0.5246530000000  0.5959010000000  0.4739880000000 1.0
C      1  0.4437310000000  0.5765710000000  0.4851390000000 1.0
C      1  0.5469810000000  0.4482170000000  0.5082890000000 1.0
C      1  0.5794740000000  0.5287090000000  0.4969630000000 1.0
C      1  0.4343310000000  0.4358420000000  0.5079620000000 1.0
C      1  0.4797550000000  0.4962080000000  0.4300830000000 1.0
C      1  0.5361620000000  0.4647750000000  0.5372420000000 1.0
C      1  0.5924580000000  0.5070020000000  0.5379520000000 1.0
C      1  0.5200660000000  0.5626720000000  0.4526550000000 1.0
C      1  0.4625170000000  0.5239480000000  0.4999120000000 1.0
C      1  0.4295970000000  0.4801330000000  0.4364840000000 1.0
C      1  0.5072390000000  0.5153890000000  0.5523860000000 1.0
C      1  0.5069630000000  0.5327500000000  0.5882240000000 1.0
C      1  0.5092810000000  0.5479800000000  0.5223620000000 1.0
C      1  0.5936430000000  0.4668280000000  0.5084280000000 1.0
C      1  0.5312530000000  0.5393910000000  0.4737040000000 1.0
C      1  0.4653640000000  0.5737550000000  0.5103660000000 1.0
C      1  0.5497590000000  0.4932610000000  0.4423730000000 1.0
C      1  0.4109570000000  0.4966870000000  0.5565250000000 1.0
C      1  0.5472370000000  0.4420040000000  0.4386720000000 1.0
C      1  0.4726950000000  0.4652380000000  0.4546160000000 1.0
C      1  0.4952300000000  0.4077760000000  0.5161130000000 1.0
C      1  0.5190940000000  0.4268780000000  0.5272780000000 1.0
C      1  0.3979540000000  0.4937300000000  0.5309870000000 1.0
C      1  0.5135940000000  0.5759410000000  0.5173920000000 1.0
C      1  0.5499950000000  0.5254220000000  0.4522870000000 1.0
C      1  0.4841300000000  0.4436080000000  0.5632550000000 1.0
C      1  0.5709750000000  0.5594960000000  0.5207510000000 1.0
C      1  0.5023280000000  0.4851250000000  0.5667920000000 1.0
C      1  0.4975080000000  0.4307850000000  0.4453100000000 1.0
C      1  0.5697140000000  0.5749000000000  0.4637420000000 1.0
C      1  0.4262580000000  0.5252230000000  0.5625990000000 1.0
C      1  0.4161010000000  0.5009070000000  0.5049530000000 1.0
C      1  0.5267400000000  0.4649420000000  0.5760170000000 1.0
C      1  0.4239450000000  0.4723200000000  0.5633260000000 1.0
C      1  0.4777800000000  0.5025970000000  0.4844730000000 1.0
C      1  0.4971990000000  0.5836180000000  0.4668730000000 1.0
C      1  0.5323660000000  0.5308060000000  0.5659110000000 1.0
C      1  0.5518020000000  0.4180630000000  0.5234800000000 1.0
C      1  0.5384450000000  0.4914100000000  0.5082280000000 1.0
C      1  0.4410220000000  0.5147130000000  0.5152670000000 1.0
C      1  0.4871740000000  0.4463470000000  0.4225660000000 1.0
C      1  0.5881500000000  0.4513600000000  0.4786810000000 1.0
C      1  0.4163870000000  0.5494520000000  0.5138150000000 1.0
C      1  0.5897460000000  0.5219610000000  0.4508940000000 1.0
C      1  0.4114880000000  0.4681310000000  0.5133160000000 1.0
C      1  0.4812340000000  0.4427210000000  0.5292260000000 1.0
C      1  0.4711420000000  0.5628720000000  0.5662240000000 1.0
C      1  0.4700030000000  0.5847580000000  0.4722020000000 1.0
C      1  0.5907240000000  0.5132720000000  0.4771650000000 1.0
END
