TITL C-2778435-5768-103 0.083786777124608 125000 -397.519476986308 0 0 69 (C1) n - 1
REM
REM in /home/nfs/bkarasulu/CARBON/AIRSS/Generating-Clusters/REBO/Only-C1/SD-CG/HFTN-CG
REM
REM
REM
REM
REM
REM ./C.cell (11c1c37f851c82e70ff6c80c92926a4b)
REM
REM compiler GCC version 9.2.1 20190827 (Red Hat 9.2.1-1)
REM options -cpp -mtune=generic -march=x86-64 -g -O0 -fpre-include=/usr/include/finclude/math-vector-fortran.h
REM seed -1704399122 -1974101512 1380075421 1270429166 679087836 -1325482865 -994702776 -41068530 2096346410 -249776804 -605142907 -1444521021 -1398398388 936699702 1192471462 313215737 -1480318766 1327000481 1875786436 424942239 -377754990 -1437030541 -1125040655 1187674033 -81971813 -194303823 -1955347585 238121149 -1894988511 304022058 1160650194 188892131 -435313059
REM
CELL 1.54180   50.00000   50.00000   50.00000   90.00000   90.00000   90.00000
LATT -1
SFAC C  
C      1  0.5079370000000  0.5100220000000  0.5133610000000 1.0
C      1  0.5001360000000  0.5510930000000  0.5651740000000 1.0
C      1  0.4322730000000  0.4991330000000  0.4808480000000 1.0
C      1  0.4601920000000  0.5375030000000  0.5020930000000 1.0
C      1  0.4393190000000  0.5299630000000  0.4862750000000 1.0
C      1  0.5351570000000  0.5515980000000  0.4944940000000 1.0
C      1  0.5167340000000  0.5105150000000  0.4086980000000 1.0
C      1  0.4402890000000  0.4546120000000  0.5238560000000 1.0
C      1  0.5032150000000  0.4542790000000  0.5383100000000 1.0
C      1  0.5341160000000  0.4969470000000  0.4722910000000 1.0
C      1  0.5576060000000  0.5226800000000  0.4401220000000 1.0
C      1  0.5251500000000  0.5215700000000  0.4875060000000 1.0
C      1  0.5390830000000  0.5318460000000  0.4200840000000 1.0
C      1  0.5505070000000  0.4963370000000  0.4496910000000 1.0
C      1  0.5821480000000  0.5232590000000  0.4826690000000 1.0
C      1  0.5025650000000  0.4114740000000  0.4837720000000 1.0
C      1  0.5504830000000  0.5527400000000  0.5420650000000 1.0
C      1  0.5430650000000  0.4889800000000  0.5455210000000 1.0
C      1  0.4624690000000  0.4594340000000  0.5683350000000 1.0
C      1  0.4978010000000  0.4360620000000  0.4651390000000 1.0
C      1  0.4917710000000  0.4943160000000  0.4881910000000 1.0
C      1  0.5170160000000  0.5084480000000  0.5407910000000 1.0
C      1  0.5445370000000  0.5101860000000  0.5697380000000 1.0
C      1  0.4624350000000  0.5299370000000  0.4466210000000 1.0
C      1  0.5984650000000  0.5253680000000  0.5106380000000 1.0
C      1  0.4787050000000  0.4253720000000  0.4984270000000 1.0
C      1  0.4769050000000  0.4879150000000  0.4611730000000 1.0
C      1  0.4562480000000  0.5410730000000  0.5287230000000 1.0
C      1  0.4985590000000  0.4616610000000  0.4820150000000 1.0
C      1  0.5232370000000  0.5035020000000  0.5880390000000 1.0
C      1  0.4864970000000  0.5275300000000  0.4937680000000 1.0
C      1  0.4389220000000  0.4579130000000  0.5520830000000 1.0
C      1  0.5068250000000  0.5375560000000  0.4230990000000 1.0
C      1  0.5587720000000  0.4835940000000  0.5208230000000 1.0
C      1  0.4426590000000  0.4819020000000  0.5038170000000 1.0
C      1  0.4553650000000  0.4279100000000  0.3984570000000 1.0
C      1  0.5060130000000  0.6018560000000  0.5123090000000 1.0
C      1  0.5276900000000  0.4723980000000  0.4848830000000 1.0
C      1  0.5191010000000  0.3908090000000  0.4865450000000 1.0
C      1  0.5541290000000  0.5352860000000  0.5622980000000 1.0
C      1  0.5073460000000  0.5257920000000  0.5588900000000 1.0
C      1  0.4891840000000  0.5399940000000  0.4448170000000 1.0
C      1  0.4764720000000  0.4825860000000  0.5778930000000 1.0
C      1  0.5701870000000  0.5381240000000  0.4611120000000 1.0
C      1  0.5351750000000  0.5636730000000  0.5214780000000 1.0
C      1  0.4906640000000  0.4788890000000  0.4385500000000 1.0
C      1  0.4632390000000  0.4310040000000  0.4232610000000 1.0
C      1  0.5146290000000  0.5820010000000  0.5287170000000 1.0
C      1  0.5050850000000  0.4837150000000  0.5774890000000 1.0
C      1  0.5035790000000  0.5434940000000  0.4714070000000 1.0
C      1  0.4343450000000  0.4930840000000  0.5336370000000 1.0
C      1  0.5234910000000  0.5696130000000  0.4687400000000 1.0
C      1  0.5754800000000  0.5025390000000  0.5088700000000 1.0
C      1  0.5175900000000  0.4710800000000  0.5548750000000 1.0
C      1  0.4066410000000  0.4929680000000  0.4716950000000 1.0
C      1  0.4181290000000  0.4792670000000  0.5587460000000 1.0
C      1  0.4714510000000  0.4342300000000  0.4491290000000 1.0
C      1  0.5051650000000  0.4863320000000  0.4167780000000 1.0
C      1  0.4597000000000  0.4370300000000  0.4769870000000 1.0
C      1  0.4485520000000  0.5196450000000  0.5478180000000 1.0
C      1  0.4855880000000  0.4460880000000  0.5193430000000 1.0
C      1  0.5018530000000  0.5755710000000  0.5532420000000 1.0
C      1  0.5582070000000  0.4736680000000  0.4368950000000 1.0
C      1  0.4293050000000  0.5045750000000  0.5714460000000 1.0
C      1  0.5549910000000  0.5606620000000  0.4696860000000 1.0
C      1  0.4546570000000  0.5053690000000  0.4587320000000 1.0
C      1  0.4676150000000  0.4636440000000  0.4964170000000 1.0
C      1  0.4611240000000  0.5065040000000  0.5765210000000 1.0
C      1  0.5464590000000  0.4642800000000  0.5040840000000 1.0
END
