TITL C-2778425-5191-791 -0.000355408671306965 125000 -387.578924402561 0 0 68 (C1) n - 1
REM
REM in /home/nfs/bkarasulu/CARBON/AIRSS/Generating-Clusters/REBO/Only-C1/SD-CG/HFTN-CG
REM
REM
REM
REM
REM
REM ./C.cell (11c1c37f851c82e70ff6c80c92926a4b)
REM
REM compiler GCC version 9.2.1 20190827 (Red Hat 9.2.1-1)
REM options -cpp -mtune=generic -march=x86-64 -g -O0 -fpre-include=/usr/include/finclude/math-vector-fortran.h
REM seed 1472121784 1734242981 -1302067508 2038819293 742220858 -1419730718 -1150350045 285569610 -1662651674 -1679263321 2096189775 -1171976418 1928695251 934131787 -1605142279 1128541416 -1778152859 1975546793 -1404289306 -609474219 -1022749050 216240846 12808039 1569314519 611266816 -561220023 -1671697223 -926790526 1659452328 1979829061 -770580979 1631442965 13268244
REM
CELL 1.54180   50.00000   50.00000   50.00000   90.00000   90.00000   90.00000
LATT -1
SFAC C  
C      1  0.4169760000000  0.4801670000000  0.5175570000000 1.0
C      1  0.5099550000000  0.5675530000000  0.5370510000000 1.0
C      1  0.5114470000000  0.4199570000000  0.4835800000000 1.0
C      1  0.4740510000000  0.5335220000000  0.5620530000000 1.0
C      1  0.4459410000000  0.5320760000000  0.5602630000000 1.0
C      1  0.5153110000000  0.4998130000000  0.4780050000000 1.0
C      1  0.4650340000000  0.4697840000000  0.4664270000000 1.0
C      1  0.5504050000000  0.4507750000000  0.5167750000000 1.0
C      1  0.5873260000000  0.5241110000000  0.5162860000000 1.0
C      1  0.4676140000000  0.4867690000000  0.5536010000000 1.0
C      1  0.5335820000000  0.4652790000000  0.4473910000000 1.0
C      1  0.5251950000000  0.4239570000000  0.5331260000000 1.0
C      1  0.4384080000000  0.4574840000000  0.5223710000000 1.0
C      1  0.4647280000000  0.5305070000000  0.4874240000000 1.0
C      1  0.5420910000000  0.5341720000000  0.4691750000000 1.0
C      1  0.4621770000000  0.5069030000000  0.5338250000000 1.0
C      1  0.5008440000000  0.5415520000000  0.5003690000000 1.0
C      1  0.5574450000000  0.4905450000000  0.4903880000000 1.0
C      1  0.4639410000000  0.4286630000000  0.4788900000000 1.0
C      1  0.5797340000000  0.5043440000000  0.5354400000000 1.0
C      1  0.5131800000000  0.5502480000000  0.4304010000000 1.0
C      1  0.4345210000000  0.5357200000000  0.5355240000000 1.0
C      1  0.5638270000000  0.4782550000000  0.5206440000000 1.0
C      1  0.5089640000000  0.4873790000000  0.4405570000000 1.0
C      1  0.5233240000000  0.4146920000000  0.5074660000000 1.0
C      1  0.5469350000000  0.4995320000000  0.5392960000000 1.0
C      1  0.4953940000000  0.4641970000000  0.4596990000000 1.0
C      1  0.5324350000000  0.5364570000000  0.4993510000000 1.0
C      1  0.5267090000000  0.5269300000000  0.5600170000000 1.0
C      1  0.4897850000000  0.5688740000000  0.4882160000000 1.0
C      1  0.5465090000000  0.4675290000000  0.4713820000000 1.0
C      1  0.5076310000000  0.5795520000000  0.5108040000000 1.0
C      1  0.4544090000000  0.5360870000000  0.4557140000000 1.0
C      1  0.5104890000000  0.4442350000000  0.5463280000000 1.0
C      1  0.4188910000000  0.5054280000000  0.4960230000000 1.0
C      1  0.4462960000000  0.4951180000000  0.5114730000000 1.0
C      1  0.5637300000000  0.5015970000000  0.4351400000000 1.0
C      1  0.4853310000000  0.5547460000000  0.5436120000000 1.0
C      1  0.4406390000000  0.5357030000000  0.5098840000000 1.0
C      1  0.4633100000000  0.4758970000000  0.4971310000000 1.0
C      1  0.4299030000000  0.5294720000000  0.4781530000000 1.0
C      1  0.4495770000000  0.4458210000000  0.4957900000000 1.0
C      1  0.4907560000000  0.4335130000000  0.4700980000000 1.0
C      1  0.5310050000000  0.5039850000000  0.5094330000000 1.0
C      1  0.5173880000000  0.4635440000000  0.5658200000000 1.0
C      1  0.4949120000000  0.4858390000000  0.5710080000000 1.0
C      1  0.4599490000000  0.4601050000000  0.5426290000000 1.0
C      1  0.5102170000000  0.4689460000000  0.4880340000000 1.0
C      1  0.5303930000000  0.4933730000000  0.5646150000000 1.0
C      1  0.5395290000000  0.5495390000000  0.4394160000000 1.0
C      1  0.4489370000000  0.4891100000000  0.4448290000000 1.0
C      1  0.4931090000000  0.5414770000000  0.4478310000000 1.0
C      1  0.5004290000000  0.5013430000000  0.5241000000000 1.0
C      1  0.4973150000000  0.5133870000000  0.5558920000000 1.0
C      1  0.4868260000000  0.4519660000000  0.5322640000000 1.0
C      1  0.4943510000000  0.5222550000000  0.4750780000000 1.0
C      1  0.5354640000000  0.5045370000000  0.4534690000000 1.0
C      1  0.5643910000000  0.5300500000000  0.4435710000000 1.0
C      1  0.5764450000000  0.5149760000000  0.4870170000000 1.0
C      1  0.4757300000000  0.5613560000000  0.4645070000000 1.0
C      1  0.5352610000000  0.4503650000000  0.4939740000000 1.0
C      1  0.5643940000000  0.5415920000000  0.5011990000000 1.0
C      1  0.4622110000000  0.5123170000000  0.4379640000000 1.0
C      1  0.5309020000000  0.5521960000000  0.5500890000000 1.0
C      1  0.4354150000000  0.4616180000000  0.4515290000000 1.0
C      1  0.4876990000000  0.5067860000000  0.4289280000000 1.0
C      1  0.4907170000000  0.4742620000000  0.5109440000000 1.0
C      1  0.4822640000000  0.5301640000000  0.5231620000000 1.0
END
