TITL C-2778436-5916-15 0.364486572944467 125000 -1097.32470091634 0 0 189 (C1) n - 1
REM
REM in /home/nfs/bkarasulu/CARBON/AIRSS/Generating-Clusters/REBO/Only-C1/SD-CG/HFTN-CG
REM
REM
REM
REM
REM
REM ./C.cell (11c1c37f851c82e70ff6c80c92926a4b)
REM
REM compiler GCC version 9.2.1 20190827 (Red Hat 9.2.1-1)
REM options -cpp -mtune=generic -march=x86-64 -g -O0 -fpre-include=/usr/include/finclude/math-vector-fortran.h
REM seed -1881797082 2010639209 -902552976 795020402 -872188614 -522964452 -314769324 -494009980 -220488986 1773739290 -437258700 -1534013998 -1054607041 1526124658 1007061903 -665598290 -1632407884 -2011607354 1109966465 -1327817060 -679292751 -1060802267 -1600708135 -1355246382 1335560498 1512100536 -192504339 1291060344 -1320770933 279613078 1226058358 1085121347 1794802288
REM
CELL 1.54180   50.00000   50.00000   50.00000   90.00000   90.00000   90.00000
LATT -1
SFAC C  
C      1  0.5515850000000  0.4773540000000  0.4963220000000 1.0
C      1  0.4701500000000  0.5622400000000  0.5395640000000 1.0
C      1  0.5257140000000  0.4674360000000  0.5331430000000 1.0
C      1  0.5091760000000  0.4138460000000  0.5672280000000 1.0
C      1  0.5692540000000  0.4792850000000  0.4721040000000 1.0
C      1  0.5364180000000  0.5248100000000  0.4027910000000 1.0
C      1  0.4662710000000  0.4486560000000  0.4908240000000 1.0
C      1  0.5846220000000  0.5221440000000  0.5673620000000 1.0
C      1  0.4671830000000  0.5096610000000  0.5585940000000 1.0
C      1  0.5949640000000  0.4779900000000  0.4475600000000 1.0
C      1  0.3989770000000  0.5543940000000  0.4514120000000 1.0
C      1  0.5639470000000  0.4224510000000  0.5185080000000 1.0
C      1  0.5342900000000  0.5202660000000  0.5658080000000 1.0
C      1  0.4785010000000  0.4441010000000  0.5975180000000 1.0
C      1  0.5071820000000  0.5651270000000  0.4077780000000 1.0
C      1  0.4612940000000  0.4074850000000  0.5588820000000 1.0
C      1  0.4556780000000  0.4588860000000  0.4254830000000 1.0
C      1  0.5500040000000  0.4895740000000  0.5280190000000 1.0
C      1  0.5823800000000  0.4953300000000  0.4234770000000 1.0
C      1  0.5999240000000  0.4590800000000  0.5119760000000 1.0
C      1  0.5965350000000  0.5445610000000  0.4933450000000 1.0
C      1  0.4920230000000  0.4281960000000  0.4804970000000 1.0
C      1  0.5066180000000  0.4902730000000  0.4296390000000 1.0
C      1  0.4387800000000  0.5225440000000  0.5305540000000 1.0
C      1  0.4603210000000  0.4835180000000  0.5434460000000 1.0
C      1  0.5223670000000  0.4944620000000  0.4997320000000 1.0
C      1  0.5358470000000  0.4020000000000  0.4643650000000 1.0
C      1  0.5041850000000  0.4944090000000  0.5617590000000 1.0
C      1  0.4595300000000  0.4217720000000  0.4398120000000 1.0
C      1  0.4867440000000  0.3916920000000  0.5200380000000 1.0
C      1  0.5665980000000  0.5257360000000  0.5884930000000 1.0
C      1  0.5871910000000  0.5110160000000  0.4955190000000 1.0
C      1  0.4060990000000  0.5215170000000  0.5314380000000 1.0
C      1  0.4820610000000  0.4201090000000  0.5760780000000 1.0
C      1  0.4695950000000  0.5839290000000  0.4924180000000 1.0
C      1  0.5011480000000  0.5897910000000  0.4985550000000 1.0
C      1  0.4052720000000  0.5091300000000  0.4458720000000 1.0
C      1  0.5309890000000  0.5209380000000  0.4715010000000 1.0
C      1  0.4323560000000  0.4952130000000  0.5761070000000 1.0
C      1  0.4533490000000  0.5090330000000  0.4278510000000 1.0
C      1  0.4145030000000  0.5537290000000  0.5244230000000 1.0
C      1  0.5066200000000  0.5573920000000  0.5009000000000 1.0
C      1  0.5220280000000  0.5917220000000  0.5821070000000 1.0
C      1  0.4998390000000  0.5198960000000  0.4366350000000 1.0
C      1  0.5267320000000  0.4607700000000  0.4650750000000 1.0
C      1  0.4505020000000  0.4171250000000  0.5306650000000 1.0
C      1  0.4832430000000  0.4896890000000  0.4707840000000 1.0
C      1  0.4775300000000  0.6081580000000  0.5148310000000 1.0
C      1  0.4878730000000  0.4844580000000  0.5817000000000 1.0
C      1  0.4906590000000  0.4698710000000  0.4459530000000 1.0
C      1  0.5387850000000  0.4563840000000  0.4066110000000 1.0
C      1  0.3929400000000  0.4845890000000  0.3781170000000 1.0
C      1  0.5174830000000  0.4896500000000  0.4677600000000 1.0
C      1  0.5344040000000  0.6107220000000  0.5048160000000 1.0
C      1  0.4817740000000  0.4596090000000  0.4031920000000 1.0
C      1  0.5570980000000  0.4664330000000  0.5766220000000 1.0
C      1  0.5652770000000  0.4291550000000  0.5487760000000 1.0
C      1  0.4395560000000  0.4012210000000  0.4807960000000 1.0
C      1  0.5021180000000  0.5197640000000  0.4885620000000 1.0
C      1  0.4576950000000  0.5929740000000  0.5342620000000 1.0
C      1  0.6060390000000  0.5316530000000  0.5233680000000 1.0
C      1  0.5432550000000  0.4512210000000  0.4402850000000 1.0
C      1  0.5085630000000  0.4742240000000  0.6067380000000 1.0
C      1  0.5244230000000  0.5070990000000  0.5375210000000 1.0
C      1  0.4738340000000  0.5092910000000  0.4081700000000 1.0
C      1  0.4716930000000  0.3849690000000  0.5413510000000 1.0
C      1  0.5051980000000  0.4495700000000  0.5035650000000 1.0
C      1  0.4759200000000  0.5015010000000  0.5204440000000 1.0
C      1  0.4539300000000  0.5400570000000  0.5518220000000 1.0
C      1  0.4480460000000  0.4978930000000  0.4541220000000 1.0
C      1  0.5600370000000  0.4132750000000  0.4857160000000 1.0
C      1  0.4428480000000  0.5746330000000  0.4646010000000 1.0
C      1  0.4900420000000  0.3967860000000  0.4886830000000 1.0
C      1  0.5188160000000  0.6019580000000  0.4757930000000 1.0
C      1  0.5370250000000  0.4578420000000  0.5975610000000 1.0
C      1  0.4291460000000  0.4969300000000  0.4889480000000 1.0
C      1  0.4136090000000  0.4411470000000  0.4575250000000 1.0
C      1  0.5104660000000  0.5279800000000  0.5179050000000 1.0
C      1  0.5659110000000  0.4767350000000  0.4014180000000 1.0
C      1  0.4798880000000  0.5616830000000  0.5725570000000 1.0
C      1  0.4351930000000  0.4716570000000  0.4709450000000 1.0
C      1  0.5384970000000  0.5121720000000  0.5977740000000 1.0
C      1  0.3945720000000  0.5023940000000  0.5077860000000 1.0
C      1  0.5069740000000  0.4020980000000  0.4461850000000 1.0
C      1  0.4895750000000  0.5380900000000  0.4107380000000 1.0
C      1  0.5048240000000  0.4551410000000  0.5549570000000 1.0
C      1  0.5075460000000  0.4497360000000  0.5844010000000 1.0
C      1  0.4775410000000  0.4936520000000  0.6226350000000 1.0
C      1  0.4714500000000  0.5926960000000  0.4608670000000 1.0
C      1  0.4891690000000  0.5593320000000  0.4480490000000 1.0
C      1  0.4010300000000  0.4857150000000  0.4030190000000 1.0
C      1  0.5137930000000  0.5044230000000  0.6097460000000 1.0
C      1  0.5159190000000  0.3825390000000  0.4796580000000 1.0
C      1  0.5845930000000  0.5763450000000  0.4915880000000 1.0
C      1  0.4356800000000  0.5445440000000  0.5787840000000 1.0
C      1  0.4669300000000  0.5581100000000  0.4216320000000 1.0
C      1  0.5323850000000  0.4780880000000  0.5635220000000 1.0
C      1  0.4838760000000  0.5214180000000  0.4621640000000 1.0
C      1  0.5009480000000  0.4788450000000  0.5159670000000 1.0
C      1  0.4959480000000  0.5508090000000  0.5932780000000 1.0
C      1  0.5220140000000  0.5708390000000  0.5549400000000 1.0
C      1  0.5493480000000  0.5534600000000  0.5489430000000 1.0
C      1  0.5556770000000  0.5290280000000  0.5277010000000 1.0
C      1  0.4614880000000  0.5239900000000  0.5872430000000 1.0
C      1  0.5411250000000  0.5098910000000  0.4333350000000 1.0
C      1  0.4357750000000  0.4063100000000  0.5088630000000 1.0
C      1  0.4640900000000  0.3872750000000  0.4740390000000 1.0
C      1  0.4592830000000  0.5453600000000  0.4586110000000 1.0
C      1  0.4312990000000  0.5714820000000  0.5381290000000 1.0
C      1  0.4012640000000  0.5134700000000  0.4785830000000 1.0
C      1  0.4043310000000  0.4531360000000  0.4880170000000 1.0
C      1  0.4396650000000  0.4849380000000  0.5171030000000 1.0
C      1  0.4589160000000  0.5274740000000  0.5062930000000 1.0
C      1  0.5577200000000  0.5442630000000  0.4214220000000 1.0
C      1  0.5751270000000  0.5834000000000  0.5220930000000 1.0
C      1  0.5738000000000  0.5056650000000  0.5422410000000 1.0
C      1  0.4735220000000  0.5546530000000  0.5091020000000 1.0
C      1  0.5018020000000  0.5909980000000  0.4514280000000 1.0
C      1  0.5363400000000  0.4489660000000  0.4941780000000 1.0
C      1  0.4893070000000  0.5253500000000  0.5415190000000 1.0
C      1  0.5254540000000  0.5392940000000  0.4319650000000 1.0
C      1  0.6120200000000  0.4769990000000  0.4935060000000 1.0
C      1  0.4236690000000  0.5815800000000  0.4864540000000 1.0
C      1  0.5751750000000  0.5821970000000  0.4585100000000 1.0
C      1  0.5701650000000  0.5513180000000  0.4642700000000 1.0
C      1  0.6041910000000  0.4983420000000  0.4701450000000 1.0
C      1  0.4095880000000  0.4869060000000  0.4293580000000 1.0
C      1  0.4000740000000  0.4858630000000  0.5545130000000 1.0
C      1  0.4983160000000  0.4210220000000  0.5191800000000 1.0
C      1  0.5782150000000  0.5645550000000  0.5432830000000 1.0
C      1  0.5891980000000  0.4274430000000  0.4751940000000 1.0
C      1  0.5658000000000  0.5040270000000  0.4531820000000 1.0
C      1  0.5748220000000  0.4550570000000  0.5568300000000 1.0
C      1  0.4225830000000  0.5179750000000  0.5612850000000 1.0
C      1  0.5215820000000  0.5634810000000  0.5941880000000 1.0
C      1  0.5887730000000  0.4346100000000  0.5038870000000 1.0
C      1  0.5560770000000  0.4265380000000  0.4541870000000 1.0
C      1  0.5570390000000  0.5957070000000  0.4834500000000 1.0
C      1  0.3988380000000  0.4730950000000  0.5082480000000 1.0
C      1  0.4717530000000  0.4376750000000  0.5217740000000 1.0
C      1  0.5363710000000  0.5758640000000  0.4643780000000 1.0
C      1  0.4540380000000  0.5836590000000  0.4343370000000 1.0
C      1  0.5088330000000  0.4242990000000  0.4262320000000 1.0
C      1  0.4274770000000  0.4654330000000  0.4398810000000 1.0
C      1  0.5119630000000  0.5410110000000  0.5556320000000 1.0
C      1  0.5203030000000  0.5796080000000  0.4279530000000 1.0
C      1  0.4278100000000  0.4466310000000  0.5509860000000 1.0
C      1  0.4657300000000  0.4814020000000  0.4946270000000 1.0
C      1  0.5153470000000  0.5512890000000  0.4683370000000 1.0
C      1  0.5553630000000  0.5184240000000  0.4953760000000 1.0
C      1  0.4655010000000  0.4503230000000  0.4566660000000 1.0
C      1  0.4517820000000  0.4509080000000  0.5646970000000 1.0
C      1  0.5087680000000  0.6140640000000  0.5270850000000 1.0
C      1  0.5793400000000  0.5277690000000  0.4332430000000 1.0
C      1  0.5437760000000  0.5482800000000  0.5817740000000 1.0
C      1  0.4420490000000  0.5377760000000  0.4300230000000 1.0
C      1  0.5516940000000  0.5721950000000  0.4356310000000 1.0
C      1  0.5463260000000  0.5855520000000  0.5202210000000 1.0
C      1  0.4630990000000  0.4313700000000  0.4081840000000 1.0
C      1  0.5962570000000  0.5430750000000  0.5477940000000 1.0
C      1  0.5378390000000  0.5626250000000  0.5062360000000 1.0
C      1  0.4677170000000  0.4694670000000  0.6123880000000 1.0
C      1  0.4871280000000  0.5223080000000  0.6067940000000 1.0
C      1  0.5040670000000  0.4408520000000  0.4544800000000 1.0
C      1  0.5988390000000  0.4993260000000  0.5237830000000 1.0
C      1  0.5543520000000  0.5485500000000  0.4880320000000 1.0
C      1  0.5797840000000  0.4509390000000  0.4564140000000 1.0
C      1  0.5182690000000  0.4965800000000  0.4000820000000 1.0
C      1  0.5102050000000  0.4447640000000  0.4063570000000 1.0
C      1  0.4440630000000  0.5753680000000  0.5671360000000 1.0
C      1  0.4762980000000  0.4555830000000  0.5452880000000 1.0
C      1  0.4728890000000  0.5935360000000  0.5638740000000 1.0
C      1  0.4882040000000  0.4886430000000  0.3947350000000 1.0
C      1  0.4476050000000  0.5213250000000  0.4789670000000 1.0
C      1  0.4082400000000  0.5609150000000  0.4979920000000 1.0
C      1  0.4122910000000  0.5352990000000  0.4349530000000 1.0
C      1  0.5453480000000  0.4812130000000  0.4275410000000 1.0
C      1  0.5313390000000  0.4209190000000  0.5127510000000 1.0
C      1  0.4550930000000  0.4753210000000  0.5827630000000 1.0
C      1  0.5907390000000  0.4696960000000  0.5382640000000 1.0
C      1  0.4323140000000  0.4191280000000  0.4588970000000 1.0
C      1  0.4345630000000  0.4439090000000  0.4907130000000 1.0
C      1  0.3968400000000  0.5444960000000  0.4783410000000 1.0
C      1  0.5253590000000  0.4029400000000  0.5410100000000 1.0
C      1  0.5039790000000  0.5993670000000  0.5550320000000 1.0
C      1  0.4149590000000  0.4704460000000  0.5355860000000 1.0
C      1  0.5961160000000  0.5304050000000  0.4621560000000 1.0
C      1  0.5428640000000  0.4174910000000  0.5630580000000 1.0
C      1  0.4787310000000  0.3985060000000  0.4503820000000 1.0
END
