TITL C-2778427-5640-1008 0.00433122903820396 125000 -818.019168779648 0 0 140 (C1) n - 1
REM
REM in /home/nfs/bkarasulu/CARBON/AIRSS/Generating-Clusters/REBO/Only-C1/SD-CG/HFTN-CG
REM
REM
REM
REM
REM
REM ./C.cell (11c1c37f851c82e70ff6c80c92926a4b)
REM
REM compiler GCC version 9.2.1 20190827 (Red Hat 9.2.1-1)
REM options -cpp -mtune=generic -march=x86-64 -g -O0 -fpre-include=/usr/include/finclude/math-vector-fortran.h
REM seed -1050537735 -862972407 -2073914987 -1194142219 -1308437067 -1865264613 678637319 1024645895 -158736386 1209407564 255118001 580697440 1808442241 235730153 896238208 -782063711 1883012027 174639572 1216943751 1029003215 1503920623 -720592474 -1084301633 -1491930800 2097705027 1501109297 -763029394 1894704439 276010822 -2089164703 -855061930 1289227070 -1193085099
REM
CELL 1.54180   50.00000   50.00000   50.00000   90.00000   90.00000   90.00000
LATT -1
SFAC C  
C      1  0.4927230000000  0.4538840000000  0.5147450000000 1.0
C      1  0.4620140000000  0.5528130000000  0.5231970000000 1.0
C      1  0.5367440000000  0.5046560000000  0.4477330000000 1.0
C      1  0.4444560000000  0.5792320000000  0.5278880000000 1.0
C      1  0.4765710000000  0.5124530000000  0.5779160000000 1.0
C      1  0.5780290000000  0.5128830000000  0.4336990000000 1.0
C      1  0.4086290000000  0.5160390000000  0.4773200000000 1.0
C      1  0.5491000000000  0.4406670000000  0.5373920000000 1.0
C      1  0.4174590000000  0.5348810000000  0.4426650000000 1.0
C      1  0.4878760000000  0.4531040000000  0.4830950000000 1.0
C      1  0.4220520000000  0.5756080000000  0.5420310000000 1.0
C      1  0.6022680000000  0.5141400000000  0.5083170000000 1.0
C      1  0.4545480000000  0.5100020000000  0.5524580000000 1.0
C      1  0.4285090000000  0.4862330000000  0.4345120000000 1.0
C      1  0.5747900000000  0.4567780000000  0.5128110000000 1.0
C      1  0.5537720000000  0.5724770000000  0.5259380000000 1.0
C      1  0.5264340000000  0.5932470000000  0.5273570000000 1.0
C      1  0.5520000000000  0.4303770000000  0.4741320000000 1.0
C      1  0.5373320000000  0.4925600000000  0.3998470000000 1.0
C      1  0.5135120000000  0.5009140000000  0.5681360000000 1.0
C      1  0.4820070000000  0.5170820000000  0.5246590000000 1.0
C      1  0.4176600000000  0.4632240000000  0.4703100000000 1.0
C      1  0.5131080000000  0.3964910000000  0.5283640000000 1.0
C      1  0.4193410000000  0.4389280000000  0.4905080000000 1.0
C      1  0.5611190000000  0.4583210000000  0.4578420000000 1.0
C      1  0.4721120000000  0.5134740000000  0.3972840000000 1.0
C      1  0.4676630000000  0.4263330000000  0.4765950000000 1.0
C      1  0.4811650000000  0.4863540000000  0.5344030000000 1.0
C      1  0.5913010000000  0.4680360000000  0.4629050000000 1.0
C      1  0.4709770000000  0.5886550000000  0.5087650000000 1.0
C      1  0.4623590000000  0.4793190000000  0.5619670000000 1.0
C      1  0.5370080000000  0.5001030000000  0.5444120000000 1.0
C      1  0.4985510000000  0.5381740000000  0.4561140000000 1.0
C      1  0.4881630000000  0.5788100000000  0.5580890000000 1.0
C      1  0.4699150000000  0.5191300000000  0.4939920000000 1.0
C      1  0.5379440000000  0.5737570000000  0.4535820000000 1.0
C      1  0.4949100000000  0.4652080000000  0.4399570000000 1.0
C      1  0.5121520000000  0.5852170000000  0.4513260000000 1.0
C      1  0.4739060000000  0.5510930000000  0.5682210000000 1.0
C      1  0.4193250000000  0.4634540000000  0.5456930000000 1.0
C      1  0.5568680000000  0.5155190000000  0.4700910000000 1.0
C      1  0.5651330000000  0.5139760000000  0.5756940000000 1.0
C      1  0.5912740000000  0.5342670000000  0.4645260000000 1.0
C      1  0.5182660000000  0.5180340000000  0.4982100000000 1.0
C      1  0.4471560000000  0.5419420000000  0.4543140000000 1.0
C      1  0.4640630000000  0.4476960000000  0.5870030000000 1.0
C      1  0.5103400000000  0.4745760000000  0.4020790000000 1.0
C      1  0.5188090000000  0.4728570000000  0.5955360000000 1.0
C      1  0.4725950000000  0.4667660000000  0.4173720000000 1.0
C      1  0.4334110000000  0.5070270000000  0.5286540000000 1.0
C      1  0.4995200000000  0.4259590000000  0.4374660000000 1.0
C      1  0.5976600000000  0.5067220000000  0.5349000000000 1.0
C      1  0.5584060000000  0.4860120000000  0.4755390000000 1.0
C      1  0.4790340000000  0.4862510000000  0.3959230000000 1.0
C      1  0.4297250000000  0.5555390000000  0.4989740000000 1.0
C      1  0.5189260000000  0.5287990000000  0.5962690000000 1.0
C      1  0.5391390000000  0.4711830000000  0.5612530000000 1.0
C      1  0.5157830000000  0.4837580000000  0.4566760000000 1.0
C      1  0.5665950000000  0.4692630000000  0.5434540000000 1.0
C      1  0.4667140000000  0.5646820000000  0.4278160000000 1.0
C      1  0.4181140000000  0.5140990000000  0.5648720000000 1.0
C      1  0.5177530000000  0.5222960000000  0.4670720000000 1.0
C      1  0.4843780000000  0.5036110000000  0.4418680000000 1.0
C      1  0.4480710000000  0.4345100000000  0.5001690000000 1.0
C      1  0.4467200000000  0.5764820000000  0.4882090000000 1.0
C      1  0.5597210000000  0.5395580000000  0.4880380000000 1.0
C      1  0.4291890000000  0.4840850000000  0.5693130000000 1.0
C      1  0.5799460000000  0.4958020000000  0.5521900000000 1.0
C      1  0.5530140000000  0.5237060000000  0.5391060000000 1.0
C      1  0.4747400000000  0.4864260000000  0.5006290000000 1.0
C      1  0.4973090000000  0.5498420000000  0.4284320000000 1.0
C      1  0.5377460000000  0.5008650000000  0.5912050000000 1.0
C      1  0.5770260000000  0.5362790000000  0.5521020000000 1.0
C      1  0.5428690000000  0.4504720000000  0.5879690000000 1.0
C      1  0.5575470000000  0.4279660000000  0.5069950000000 1.0
C      1  0.4860020000000  0.5829900000000  0.4489050000000 1.0
C      1  0.4079800000000  0.4678770000000  0.4999140000000 1.0
C      1  0.4808960000000  0.5580550000000  0.4973740000000 1.0
C      1  0.5336890000000  0.4458730000000  0.4428390000000 1.0
C      1  0.4887040000000  0.4823080000000  0.5827840000000 1.0
C      1  0.5051970000000  0.5020340000000  0.4215080000000 1.0
C      1  0.4437480000000  0.4779220000000  0.4627560000000 1.0
C      1  0.5118350000000  0.4018190000000  0.4829400000000 1.0
C      1  0.4927640000000  0.5345000000000  0.5892040000000 1.0
C      1  0.5246970000000  0.4170680000000  0.4586090000000 1.0
C      1  0.4925660000000  0.5946290000000  0.5303330000000 1.0
C      1  0.5433150000000  0.5348280000000  0.5129150000000 1.0
C      1  0.4062870000000  0.5074330000000  0.4444070000000 1.0
C      1  0.4393110000000  0.5109190000000  0.4659840000000 1.0
C      1  0.4277540000000  0.4783390000000  0.5207480000000 1.0
C      1  0.5472860000000  0.5563980000000  0.4329570000000 1.0
C      1  0.4826110000000  0.4453560000000  0.5671690000000 1.0
C      1  0.4546140000000  0.4647100000000  0.5138850000000 1.0
C      1  0.5137130000000  0.4483090000000  0.4172940000000 1.0
C      1  0.5118290000000  0.4457760000000  0.5754460000000 1.0
C      1  0.4550720000000  0.4203180000000  0.5297540000000 1.0
C      1  0.5214980000000  0.5480420000000  0.5356890000000 1.0
C      1  0.4908630000000  0.4230860000000  0.5089100000000 1.0
C      1  0.5983550000000  0.4644790000000  0.4937160000000 1.0
C      1  0.5559360000000  0.4801410000000  0.5028240000000 1.0
C      1  0.5717310000000  0.5422850000000  0.4400380000000 1.0
C      1  0.4790790000000  0.3967240000000  0.5241280000000 1.0
C      1  0.4672780000000  0.4349110000000  0.4435260000000 1.0
C      1  0.4078700000000  0.5324650000000  0.5011620000000 1.0
C      1  0.5303180000000  0.5719300000000  0.5028270000000 1.0
C      1  0.5179540000000  0.4545190000000  0.4707450000000 1.0
C      1  0.6048500000000  0.4941270000000  0.4892440000000 1.0
C      1  0.5253600000000  0.5468150000000  0.4171130000000 1.0
C      1  0.4547780000000  0.5735960000000  0.4585920000000 1.0
C      1  0.5182240000000  0.4426640000000  0.5433690000000 1.0
C      1  0.5200530000000  0.4328120000000  0.4949510000000 1.0
C      1  0.4729410000000  0.5371670000000  0.4091220000000 1.0
C      1  0.5257960000000  0.5208360000000  0.4074960000000 1.0
C      1  0.5966740000000  0.5012510000000  0.4578780000000 1.0
C      1  0.5899510000000  0.5410370000000  0.4980610000000 1.0
C      1  0.5298850000000  0.4916140000000  0.5157470000000 1.0
C      1  0.4379530000000  0.4519430000000  0.5778950000000 1.0
C      1  0.5233370000000  0.4607400000000  0.5146100000000 1.0
C      1  0.4802600000000  0.3977060000000  0.4897290000000 1.0
C      1  0.4329500000000  0.4353660000000  0.5507740000000 1.0
C      1  0.5355010000000  0.5578560000000  0.5620910000000 1.0
C      1  0.4433340000000  0.5374210000000  0.5681800000000 1.0
C      1  0.5187350000000  0.5817600000000  0.5568780000000 1.0
C      1  0.5070310000000  0.4744370000000  0.5482540000000 1.0
C      1  0.5761240000000  0.5545180000000  0.5262640000000 1.0
C      1  0.5471680000000  0.5663550000000  0.4784820000000 1.0
C      1  0.4068130000000  0.5253980000000  0.5344810000000 1.0
C      1  0.5348390000000  0.4070860000000  0.5216650000000 1.0
C      1  0.4460360000000  0.4575720000000  0.4283280000000 1.0
C      1  0.5544870000000  0.4983760000000  0.4237720000000 1.0
C      1  0.5078080000000  0.5500180000000  0.5046200000000 1.0
C      1  0.4716050000000  0.4477840000000  0.5385310000000 1.0
C      1  0.4460390000000  0.5285770000000  0.5114870000000 1.0
C      1  0.4896270000000  0.5434430000000  0.5395820000000 1.0
C      1  0.4176050000000  0.5508780000000  0.5528200000000 1.0
C      1  0.5425020000000  0.5388540000000  0.5806220000000 1.0
C      1  0.4892280000000  0.4949140000000  0.4716220000000 1.0
C      1  0.4680870000000  0.4630370000000  0.4609190000000 1.0
C      1  0.4739910000000  0.5414360000000  0.4723130000000 1.0
C      1  0.4566130000000  0.5056270000000  0.4371230000000 1.0
END
