TITL C-2778426-5645-1429 0.102670301750789 125000 -184.369765135501 0 0 33 (C1) n - 1
REM
REM in /home/nfs/bkarasulu/CARBON/AIRSS/Generating-Clusters/REBO/Only-C1/SD-CG/HFTN-CG
REM
REM
REM
REM
REM
REM ./C.cell (11c1c37f851c82e70ff6c80c92926a4b)
REM
REM compiler GCC version 9.2.1 20190827 (Red Hat 9.2.1-1)
REM options -cpp -mtune=generic -march=x86-64 -g -O0 -fpre-include=/usr/include/finclude/math-vector-fortran.h
REM seed -64744369 1159287888 -187711412 1439980648 -1434303659 -1663367268 1659050014 1995062393 -1122080215 -36527747 -1882960870 -1947631516 647636275 -519902494 -1127669776 323723958 1169825332 1624106399 14150268 2077619245 -1690757678 798929262 -216915739 -277757773 1332267164 1981541629 1199033363 -1499864031 2901747 -1606627602 1555335265 -1318255417 -432202874
REM
CELL 1.54180   50.00000   50.00000   50.00000   90.00000   90.00000   90.00000
LATT -1
SFAC C  
C      1  0.4314320000000  0.4351700000000  0.3992540000000 1.0
C      1  0.5323330000000  0.5306070000000  0.5088640000000 1.0
C      1  0.4587490000000  0.4190600000000  0.4919830000000 1.0
C      1  0.4747680000000  0.5361660000000  0.5608550000000 1.0
C      1  0.5902300000000  0.5272060000000  0.4289790000000 1.0
C      1  0.4491880000000  0.5732160000000  0.5917460000000 1.0
C      1  0.5258510000000  0.5046730000000  0.5177430000000 1.0
C      1  0.4882070000000  0.4743110000000  0.5228780000000 1.0
C      1  0.4959930000000  0.4745880000000  0.4582630000000 1.0
C      1  0.4667180000000  0.4368140000000  0.4719140000000 1.0
C      1  0.4873380000000  0.4555380000000  0.4770980000000 1.0
C      1  0.4541300000000  0.5746720000000  0.6185200000000 1.0
C      1  0.5461690000000  0.5334630000000  0.4629340000000 1.0
C      1  0.5263760000000  0.5172430000000  0.4515850000000 1.0
C      1  0.5003050000000  0.4991780000000  0.5300160000000 1.0
C      1  0.4436850000000  0.3855020000000  0.5299140000000 1.0
C      1  0.5438130000000  0.5740470000000  0.4901310000000 1.0
C      1  0.5813970000000  0.5022230000000  0.4782710000000 1.0
C      1  0.4999070000000  0.4572590000000  0.5032030000000 1.0
C      1  0.5745960000000  0.5250620000000  0.4592590000000 1.0
C      1  0.4545090000000  0.4362450000000  0.4467740000000 1.0
C      1  0.5420350000000  0.4827290000000  0.5080030000000 1.0
C      1  0.5095290000000  0.4963870000000  0.4503590000000 1.0
C      1  0.4511570000000  0.4021460000000  0.5111010000000 1.0
C      1  0.4309450000000  0.5906800000000  0.5797250000000 1.0
C      1  0.5988500000000  0.5472100000000  0.4499260000000 1.0
C      1  0.4428780000000  0.4357030000000  0.4228230000000 1.0
C      1  0.5668310000000  0.4883070000000  0.4960530000000 1.0
C      1  0.4138510000000  0.6070440000000  0.5684620000000 1.0
C      1  0.5284440000000  0.4579920000000  0.5041630000000 1.0
C      1  0.4872440000000  0.5180960000000  0.5457890000000 1.0
C      1  0.4622920000000  0.5542370000000  0.5759220000000 1.0
C      1  0.5402510000000  0.5472260000000  0.4874920000000 1.0
END
