TITL C-2778428-5639-1393 -0.0010404415258896 125000 -596.044651272034 0 0 100 (C1) n - 1
REM
REM in /home/nfs/bkarasulu/CARBON/AIRSS/Generating-Clusters/REBO/Only-C1/SD-CG/HFTN-CG
REM
REM
REM
REM
REM
REM ./C.cell (11c1c37f851c82e70ff6c80c92926a4b)
REM
REM compiler GCC version 9.2.1 20190827 (Red Hat 9.2.1-1)
REM options -cpp -mtune=generic -march=x86-64 -g -O0 -fpre-include=/usr/include/finclude/math-vector-fortran.h
REM seed 720291385 -965910340 -1766110199 246103900 1163472935 2027732618 -539061370 -1077861474 -152931492 1530475964 -1005394932 -563955102 -734411240 -1809807705 -564566500 438664144 -18413735 -443123466 83265867 1361998751 -1639548179 206336328 1736890804 -1426897554 -2015098332 -1968420660 -849464426 86463351 -1219596215 -1179137915 -1807922442 -1045815154 -1494677132
REM
CELL 1.54180   50.00000   50.00000   50.00000   90.00000   90.00000   90.00000
LATT -1
SFAC C  
C      1  0.5424180000000  0.4301890000000  0.4733730000000 1.0
C      1  0.5744860000000  0.4928470000000  0.5453700000000 1.0
C      1  0.5618490000000  0.4686250000000  0.5545780000000 1.0
C      1  0.5613100000000  0.4644630000000  0.4275530000000 1.0
C      1  0.4799720000000  0.4690660000000  0.4871950000000 1.0
C      1  0.5253880000000  0.4955860000000  0.5783490000000 1.0
C      1  0.4499760000000  0.4940970000000  0.4273110000000 1.0
C      1  0.4576250000000  0.5256620000000  0.4250670000000 1.0
C      1  0.5429870000000  0.4733900000000  0.5753980000000 1.0
C      1  0.5029210000000  0.5735020000000  0.5075480000000 1.0
C      1  0.5334280000000  0.5226810000000  0.5708540000000 1.0
C      1  0.5041200000000  0.5198000000000  0.4419620000000 1.0
C      1  0.5069640000000  0.5511550000000  0.4300280000000 1.0
C      1  0.4648600000000  0.5458210000000  0.6557210000000 1.0
C      1  0.4973420000000  0.4903710000000  0.4828590000000 1.0
C      1  0.5133290000000  0.4569700000000  0.5199530000000 1.0
C      1  0.5602230000000  0.5850090000000  0.4706030000000 1.0
C      1  0.4940060000000  0.4807080000000  0.3971550000000 1.0
C      1  0.4117150000000  0.5284880000000  0.5039990000000 1.0
C      1  0.5433030000000  0.4777140000000  0.4784150000000 1.0
C      1  0.4855840000000  0.4619650000000  0.5563370000000 1.0
C      1  0.5609100000000  0.4484450000000  0.5328990000000 1.0
C      1  0.4671630000000  0.5407120000000  0.5632820000000 1.0
C      1  0.6270350000000  0.5701100000000  0.5234830000000 1.0
C      1  0.5141730000000  0.4114900000000  0.5290320000000 1.0
C      1  0.4776670000000  0.4649990000000  0.5868630000000 1.0
C      1  0.5391170000000  0.5686070000000  0.4636360000000 1.0
C      1  0.5288800000000  0.5109560000000  0.4207140000000 1.0
C      1  0.4857010000000  0.4001170000000  0.5182800000000 1.0
C      1  0.5266970000000  0.4353750000000  0.4495030000000 1.0
C      1  0.5669760000000  0.5215730000000  0.5418200000000 1.0
C      1  0.5842940000000  0.5382420000000  0.5234580000000 1.0
C      1  0.4744330000000  0.4457070000000  0.4305470000000 1.0
C      1  0.4471330000000  0.5355520000000  0.4557400000000 1.0
C      1  0.5701850000000  0.4886570000000  0.4370040000000 1.0
C      1  0.5196850000000  0.5579620000000  0.4854350000000 1.0
C      1  0.5473330000000  0.5173520000000  0.4750840000000 1.0
C      1  0.5602300000000  0.5071810000000  0.4540090000000 1.0
C      1  0.4402100000000  0.4913570000000  0.5127790000000 1.0
C      1  0.4283370000000  0.5466360000000  0.5246220000000 1.0
C      1  0.4536990000000  0.5083730000000  0.5356410000000 1.0
C      1  0.5345490000000  0.5585070000000  0.4368100000000 1.0
C      1  0.4224140000000  0.4708520000000  0.4638480000000 1.0
C      1  0.5328530000000  0.5352320000000  0.5071450000000 1.0
C      1  0.4352850000000  0.5595760000000  0.4969730000000 1.0
C      1  0.4653590000000  0.4521080000000  0.5312580000000 1.0
C      1  0.4683180000000  0.5315270000000  0.6340290000000 1.0
C      1  0.4953430000000  0.5288710000000  0.5193710000000 1.0
C      1  0.4912080000000  0.4317450000000  0.5416940000000 1.0
C      1  0.5074660000000  0.5644450000000  0.5766030000000 1.0
C      1  0.4747760000000  0.4738770000000  0.4207740000000 1.0
C      1  0.4594370000000  0.5058140000000  0.4596000000000 1.0
C      1  0.4882510000000  0.5589580000000  0.5562690000000 1.0
C      1  0.5356900000000  0.5268040000000  0.5381090000000 1.0
C      1  0.4610620000000  0.4196240000000  0.5308830000000 1.0
C      1  0.6060250000000  0.5544450000000  0.5234710000000 1.0
C      1  0.4915670000000  0.4442090000000  0.4809110000000 1.0
C      1  0.4764270000000  0.5164210000000  0.5784050000000 1.0
C      1  0.4593930000000  0.5713040000000  0.4879240000000 1.0
C      1  0.4204890000000  0.5391190000000  0.4741250000000 1.0
C      1  0.5742260000000  0.4937800000000  0.5137400000000 1.0
C      1  0.5708000000000  0.4604460000000  0.5079080000000 1.0
C      1  0.4745470000000  0.6137350000000  0.5076720000000 1.0
C      1  0.4982540000000  0.5553460000000  0.5292010000000 1.0
C      1  0.4959880000000  0.4924960000000  0.5643240000000 1.0
C      1  0.4970230000000  0.4333140000000  0.4524040000000 1.0
C      1  0.5323370000000  0.4146970000000  0.4998780000000 1.0
C      1  0.5440510000000  0.4898450000000  0.5039140000000 1.0
C      1  0.5344480000000  0.4569440000000  0.4325750000000 1.0
C      1  0.4696570000000  0.5559630000000  0.4647980000000 1.0
C      1  0.5583730000000  0.4527750000000  0.4815380000000 1.0
C      1  0.5645110000000  0.5239210000000  0.5019930000000 1.0
C      1  0.4127710000000  0.5155080000000  0.4526500000000 1.0
C      1  0.5484140000000  0.5354330000000  0.4244860000000 1.0
C      1  0.4749830000000  0.5107740000000  0.5138850000000 1.0
C      1  0.5160200000000  0.5020800000000  0.5403540000000 1.0
C      1  0.4560150000000  0.4656910000000  0.5064130000000 1.0
C      1  0.4977510000000  0.5413960000000  0.4675300000000 1.0
C      1  0.4597630000000  0.4092780000000  0.4993970000000 1.0
C      1  0.4246770000000  0.4915670000000  0.4458770000000 1.0
C      1  0.4747590000000  0.4889020000000  0.5980220000000 1.0
C      1  0.4600950000000  0.5033890000000  0.4886730000000 1.0
C      1  0.4494310000000  0.4251040000000  0.4787660000000 1.0
C      1  0.5147600000000  0.4946990000000  0.3962960000000 1.0
C      1  0.4855990000000  0.4948250000000  0.4446560000000 1.0
C      1  0.4637910000000  0.4275990000000  0.4552770000000 1.0
C      1  0.4104770000000  0.4734560000000  0.4929550000000 1.0
C      1  0.5449450000000  0.4257120000000  0.5294870000000 1.0
C      1  0.4776020000000  0.5485160000000  0.4337210000000 1.0
C      1  0.5199150000000  0.4835820000000  0.4649840000000 1.0
C      1  0.5102120000000  0.4379910000000  0.4996570000000 1.0
C      1  0.4353080000000  0.4503610000000  0.4876860000000 1.0
C      1  0.4114550000000  0.5001730000000  0.5065620000000 1.0
C      1  0.5144470000000  0.5184920000000  0.4836600000000 1.0
C      1  0.5233660000000  0.4828480000000  0.5219400000000 1.0
C      1  0.5160590000000  0.4825350000000  0.4343340000000 1.0
C      1  0.4718700000000  0.5168440000000  0.6117470000000 1.0
C      1  0.4791020000000  0.5880330000000  0.5002230000000 1.0
C      1  0.4458940000000  0.5345410000000  0.5446080000000 1.0
C      1  0.5267270000000  0.5464600000000  0.5845440000000 1.0
END
