TITL C-2778426-5645-251 -0.00755990201783098 125000 -1163.95544118663 0 0 200 (C1) n - 1
REM
REM in /home/nfs/bkarasulu/CARBON/AIRSS/Generating-Clusters/REBO/Only-C1/SD-CG/HFTN-CG
REM
REM
REM
REM
REM
REM ./C.cell (11c1c37f851c82e70ff6c80c92926a4b)
REM
REM compiler GCC version 9.2.1 20190827 (Red Hat 9.2.1-1)
REM options -cpp -mtune=generic -march=x86-64 -g -O0 -fpre-include=/usr/include/finclude/math-vector-fortran.h
REM seed 78883253 2084626823 1933124537 1806738152 997925985 -1625859257 1625325468 1382613718 1126158181 771724799 500525702 1635697973 1533118016 -737579888 -303423475 -826369901 1700612436 -1039748296 -61474038 -1836593676 -464086159 -795762266 902410341 -1611867721 -1889926793 1625715148 -180431083 -1048122948 -616856690 2059657888 -206101001 -303189044 1968079096
REM
CELL 1.54180   50.00000   50.00000   50.00000   90.00000   90.00000   90.00000
LATT -1
SFAC C  
C      1  0.5248030000000  0.3999550000000  0.4770600000000 1.0
C      1  0.5571370000000  0.5510820000000  0.4325220000000 1.0
C      1  0.4366390000000  0.5563150000000  0.4566120000000 1.0
C      1  0.5571760000000  0.4064270000000  0.4821930000000 1.0
C      1  0.5092350000000  0.4685070000000  0.3858560000000 1.0
C      1  0.5885070000000  0.5216210000000  0.5416770000000 1.0
C      1  0.4388160000000  0.5181810000000  0.5189000000000 1.0
C      1  0.6079080000000  0.4904180000000  0.5763950000000 1.0
C      1  0.5669020000000  0.5129690000000  0.4261330000000 1.0
C      1  0.5560160000000  0.4730850000000  0.5962700000000 1.0
C      1  0.5842850000000  0.4357800000000  0.5151380000000 1.0
C      1  0.4525020000000  0.5228170000000  0.5492610000000 1.0
C      1  0.5068710000000  0.4534520000000  0.5938870000000 1.0
C      1  0.5027560000000  0.3890260000000  0.5006310000000 1.0
C      1  0.4857710000000  0.4596260000000  0.5686830000000 1.0
C      1  0.4038370000000  0.4551210000000  0.5243500000000 1.0
C      1  0.4972930000000  0.6075430000000  0.4580780000000 1.0
C      1  0.4455170000000  0.4725230000000  0.5913600000000 1.0
C      1  0.5090940000000  0.6105890000000  0.5177820000000 1.0
C      1  0.5612760000000  0.4834320000000  0.4514940000000 1.0
C      1  0.5231730000000  0.5496070000000  0.5843910000000 1.0
C      1  0.4541230000000  0.4882700000000  0.4025790000000 1.0
C      1  0.6123330000000  0.5030380000000  0.5527740000000 1.0
C      1  0.4652340000000  0.5450160000000  0.5871920000000 1.0
C      1  0.4906980000000  0.4242170000000  0.5864500000000 1.0
C      1  0.5321240000000  0.5427590000000  0.5267090000000 1.0
C      1  0.4360740000000  0.4153490000000  0.5315630000000 1.0
C      1  0.4799390000000  0.5478390000000  0.4090120000000 1.0
C      1  0.5113060000000  0.5785970000000  0.4481070000000 1.0
C      1  0.5354470000000  0.4599800000000  0.3982500000000 1.0
C      1  0.5795560000000  0.5224520000000  0.5103560000000 1.0
C      1  0.5180890000000  0.4234770000000  0.5703900000000 1.0
C      1  0.4676490000000  0.4125410000000  0.5665920000000 1.0
C      1  0.4088940000000  0.5168260000000  0.4427290000000 1.0
C      1  0.4863980000000  0.5837310000000  0.5545350000000 1.0
C      1  0.5856730000000  0.4582740000000  0.5408750000000 1.0
C      1  0.4081940000000  0.4695730000000  0.5556760000000 1.0
C      1  0.5661650000000  0.5519680000000  0.4995250000000 1.0
C      1  0.5106850000000  0.4354890000000  0.4563230000000 1.0
C      1  0.5391650000000  0.4343260000000  0.4375100000000 1.0
C      1  0.6108400000000  0.5530890000000  0.4845290000000 1.0
C      1  0.5015920000000  0.5544630000000  0.5320280000000 1.0
C      1  0.4168710000000  0.5435130000000  0.5789690000000 1.0
C      1  0.3922870000000  0.4661690000000  0.4429390000000 1.0
C      1  0.5805350000000  0.4802390000000  0.5849520000000 1.0
C      1  0.4910380000000  0.4900690000000  0.5558690000000 1.0
C      1  0.4752270000000  0.5438830000000  0.4900080000000 1.0
C      1  0.5044090000000  0.4748660000000  0.4554230000000 1.0
C      1  0.4732270000000  0.5103740000000  0.5698310000000 1.0
C      1  0.4578730000000  0.3920270000000  0.4638040000000 1.0
C      1  0.4391700000000  0.5225290000000  0.5868910000000 1.0
C      1  0.5319800000000  0.5317130000000  0.4981840000000 1.0
C      1  0.5014560000000  0.5049180000000  0.5087780000000 1.0
C      1  0.5039910000000  0.5653460000000  0.5977890000000 1.0
C      1  0.6033690000000  0.4776730000000  0.4399550000000 1.0
C      1  0.5232180000000  0.4243000000000  0.4988680000000 1.0
C      1  0.4668970000000  0.4842140000000  0.5150760000000 1.0
C      1  0.4891190000000  0.5510480000000  0.5635550000000 1.0
C      1  0.5386630000000  0.4471450000000  0.5842860000000 1.0
C      1  0.4998620000000  0.5322140000000  0.4275520000000 1.0
C      1  0.3827830000000  0.4630970000000  0.4692370000000 1.0
C      1  0.6064740000000  0.5151220000000  0.4940790000000 1.0
C      1  0.3849660000000  0.4807930000000  0.5332000000000 1.0
C      1  0.4538860000000  0.4161820000000  0.4457290000000 1.0
C      1  0.4239990000000  0.5419660000000  0.4281490000000 1.0
C      1  0.4664160000000  0.6271760000000  0.5374730000000 1.0
C      1  0.4474290000000  0.4654580000000  0.5600720000000 1.0
C      1  0.5327210000000  0.4892430000000  0.5871120000000 1.0
C      1  0.4689070000000  0.4747050000000  0.4370240000000 1.0
C      1  0.3838260000000  0.5106650000000  0.5216850000000 1.0
C      1  0.4655940000000  0.4411960000000  0.5504040000000 1.0
C      1  0.4766280000000  0.5041240000000  0.3853660000000 1.0
C      1  0.4402770000000  0.3889510000000  0.4848530000000 1.0
C      1  0.3932690000000  0.4925100000000  0.4320380000000 1.0
C      1  0.4382720000000  0.5507300000000  0.5586540000000 1.0
C      1  0.6156650000000  0.5403600000000  0.5157340000000 1.0
C      1  0.5837030000000  0.4462940000000  0.4686810000000 1.0
C      1  0.4634120000000  0.4445560000000  0.5901180000000 1.0
C      1  0.4305660000000  0.4097090000000  0.4998770000000 1.0
C      1  0.5548100000000  0.4860840000000  0.4087370000000 1.0
C      1  0.5405930000000  0.5745410000000  0.4958070000000 1.0
C      1  0.5110730000000  0.5074530000000  0.4564330000000 1.0
C      1  0.5196920000000  0.4789500000000  0.5644900000000 1.0
C      1  0.5063620000000  0.4423240000000  0.5223780000000 1.0
C      1  0.4341790000000  0.5058360000000  0.4602770000000 1.0
C      1  0.4747970000000  0.5035690000000  0.4252140000000 1.0
C      1  0.5467660000000  0.4320160000000  0.4677850000000 1.0
C      1  0.5637840000000  0.5162930000000  0.5612200000000 1.0
C      1  0.4596330000000  0.4990850000000  0.5976600000000 1.0
C      1  0.5013390000000  0.4741000000000  0.6162000000000 1.0
C      1  0.4899730000000  0.4504070000000  0.4378720000000 1.0
C      1  0.4746670000000  0.5313400000000  0.3834670000000 1.0
C      1  0.5211590000000  0.4784260000000  0.5117960000000 1.0
C      1  0.5758350000000  0.4855010000000  0.5531650000000 1.0
C      1  0.4875840000000  0.3879410000000  0.4702100000000 1.0
C      1  0.4531750000000  0.5815400000000  0.4599210000000 1.0
C      1  0.4397770000000  0.4260170000000  0.5771770000000 1.0
C      1  0.4884720000000  0.5161840000000  0.4870780000000 1.0
C      1  0.5413400000000  0.4665230000000  0.5338490000000 1.0
C      1  0.5875100000000  0.5367370000000  0.4382390000000 1.0
C      1  0.5603830000000  0.4285440000000  0.5345300000000 1.0
C      1  0.5588290000000  0.5787640000000  0.4476770000000 1.0
C      1  0.5348320000000  0.5873190000000  0.5520210000000 1.0
C      1  0.5872140000000  0.4545060000000  0.4420050000000 1.0
C      1  0.4538490000000  0.5287920000000  0.4507790000000 1.0
C      1  0.5099070000000  0.3969650000000  0.4466330000000 1.0
C      1  0.5211180000000  0.4556910000000  0.4870470000000 1.0
C      1  0.5747780000000  0.5483120000000  0.4680100000000 1.0
C      1  0.4974170000000  0.3939450000000  0.5280590000000 1.0
C      1  0.5501450000000  0.5653530000000  0.5335330000000 1.0
C      1  0.4685660000000  0.4049750000000  0.5340940000000 1.0
C      1  0.4849360000000  0.6298750000000  0.5176830000000 1.0
C      1  0.5697960000000  0.5940560000000  0.5332580000000 1.0
C      1  0.5307200000000  0.5316740000000  0.4428020000000 1.0
C      1  0.5144560000000  0.5464580000000  0.4848300000000 1.0
C      1  0.5916400000000  0.4682260000000  0.5104210000000 1.0
C      1  0.5546720000000  0.4611410000000  0.4814150000000 1.0
C      1  0.5303720000000  0.4874730000000  0.4397460000000 1.0
C      1  0.4353310000000  0.4601670000000  0.5128940000000 1.0
C      1  0.4897250000000  0.4668720000000  0.5087900000000 1.0
C      1  0.4236240000000  0.4934810000000  0.5753360000000 1.0
C      1  0.4136100000000  0.5080800000000  0.5482030000000 1.0
C      1  0.3931380000000  0.5078400000000  0.4918070000000 1.0
C      1  0.4907650000000  0.5240220000000  0.5957590000000 1.0
C      1  0.6073050000000  0.5261480000000  0.4638420000000 1.0
C      1  0.5021310000000  0.4945210000000  0.3915760000000 1.0
C      1  0.4876120000000  0.4593260000000  0.4783580000000 1.0
C      1  0.5808980000000  0.4241410000000  0.4878790000000 1.0
C      1  0.4436160000000  0.5860890000000  0.5221820000000 1.0
C      1  0.4724260000000  0.5431910000000  0.5213710000000 1.0
C      1  0.4721520000000  0.4268370000000  0.4245080000000 1.0
C      1  0.5900870000000  0.5762440000000  0.4791110000000 1.0
C      1  0.5029160000000  0.4134280000000  0.4240570000000 1.0
C      1  0.5190370000000  0.4483840000000  0.5496000000000 1.0
C      1  0.4918870000000  0.5655590000000  0.4696480000000 1.0
C      1  0.4031880000000  0.4503310000000  0.4916920000000 1.0
C      1  0.5191280000000  0.6065440000000  0.4853790000000 1.0
C      1  0.4859480000000  0.4970040000000  0.6157050000000 1.0
C      1  0.3838490000000  0.4780800000000  0.4989330000000 1.0
C      1  0.4278750000000  0.4354480000000  0.4825380000000 1.0
C      1  0.5369280000000  0.4167300000000  0.5257560000000 1.0
C      1  0.4250110000000  0.5083650000000  0.4903270000000 1.0
C      1  0.5753580000000  0.5693160000000  0.5562530000000 1.0
C      1  0.4256850000000  0.4400700000000  0.5528390000000 1.0
C      1  0.4829760000000  0.5249460000000  0.4558060000000 1.0
C      1  0.5242980000000  0.5184490000000  0.5967600000000 1.0
C      1  0.4525060000000  0.5911450000000  0.4905850000000 1.0
C      1  0.4213460000000  0.5813210000000  0.4968540000000 1.0
C      1  0.4205130000000  0.5447900000000  0.5121990000000 1.0
C      1  0.5169810000000  0.5067130000000  0.4148920000000 1.0
C      1  0.5139400000000  0.4345350000000  0.4059420000000 1.0
C      1  0.5582900000000  0.4585060000000  0.4288090000000 1.0
C      1  0.4249210000000  0.4887100000000  0.5249140000000 1.0
C      1  0.4118340000000  0.4466540000000  0.4361410000000 1.0
C      1  0.5656710000000  0.4843050000000  0.4998080000000 1.0
C      1  0.5108130000000  0.5961090000000  0.5421230000000 1.0
C      1  0.5990080000000  0.5516770000000  0.5421440000000 1.0
C      1  0.4885040000000  0.4476960000000  0.3915270000000 1.0
C      1  0.4738830000000  0.5914400000000  0.4431090000000 1.0
C      1  0.4894690000000  0.4197840000000  0.4778420000000 1.0
C      1  0.6229860000000  0.5078440000000  0.5230060000000 1.0
C      1  0.4829750000000  0.5784490000000  0.4199530000000 1.0
C      1  0.3980760000000  0.5296020000000  0.4700200000000 1.0
C      1  0.5575340000000  0.5207290000000  0.4584800000000 1.0
C      1  0.4631360000000  0.4560330000000  0.4089460000000 1.0
C      1  0.4449360000000  0.4827070000000  0.4909290000000 1.0
C      1  0.4578360000000  0.5983740000000  0.5461870000000 1.0
C      1  0.5577880000000  0.4502660000000  0.5588490000000 1.0
C      1  0.6175430000000  0.4796110000000  0.5074500000000 1.0
C      1  0.5079290000000  0.5726170000000  0.5053400000000 1.0
C      1  0.4609860000000  0.4384490000000  0.4741470000000 1.0
C      1  0.5872460000000  0.5689040000000  0.5182490000000 1.0
C      1  0.5130760000000  0.5282840000000  0.5598530000000 1.0
C      1  0.5546020000000  0.5139760000000  0.4896590000000 1.0
C      1  0.4888290000000  0.6229290000000  0.4861390000000 1.0
C      1  0.4833980000000  0.5896900000000  0.4909060000000 1.0
C      1  0.5427350000000  0.4115500000000  0.4214320000000 1.0
C      1  0.4502630000000  0.4777330000000  0.4596760000000 1.0
C      1  0.5911480000000  0.4995320000000  0.4540550000000 1.0
C      1  0.4157260000000  0.5529780000000  0.4810650000000 1.0
C      1  0.4818530000000  0.4255970000000  0.5094510000000 1.0
C      1  0.4454120000000  0.5561990000000  0.5285170000000 1.0
C      1  0.5541770000000  0.4950300000000  0.5289820000000 1.0
C      1  0.5179690000000  0.4063310000000  0.5433820000000 1.0
C      1  0.5460080000000  0.5663590000000  0.5731780000000 1.0
C      1  0.4009980000000  0.5316520000000  0.5342150000000 1.0
C      1  0.5373990000000  0.5862000000000  0.4650040000000 1.0
C      1  0.4576890000000  0.5740930000000  0.5704210000000 1.0
C      1  0.4291680000000  0.4321900000000  0.4511390000000 1.0
C      1  0.4427380000000  0.5143450000000  0.4215540000000 1.0
C      1  0.4549650000000  0.4397030000000  0.5202150000000 1.0
C      1  0.4527000000000  0.4895040000000  0.5427260000000 1.0
C      1  0.5347090000000  0.5515410000000  0.4086770000000 1.0
C      1  0.5698330000000  0.5916210000000  0.4993460000000 1.0
C      1  0.5566020000000  0.5212660000000  0.5883420000000 1.0
C      1  0.4897740000000  0.5163140000000  0.5340480000000 1.0
C      1  0.4501090000000  0.5558440000000  0.4189950000000 1.0
C      1  0.5131800000000  0.5684540000000  0.4171710000000 1.0
C      1  0.5378740000000  0.5180800000000  0.5435580000000 1.0
C      1  0.5440870000000  0.5190470000000  0.4048310000000 1.0
END
