TITL C-2778425-5191-121 -0.00491622702814448 125000 -1098.89902779211 0 0 188 (C1) n - 1
REM
REM in /home/nfs/bkarasulu/CARBON/AIRSS/Generating-Clusters/REBO/Only-C1/SD-CG/HFTN-CG
REM
REM
REM
REM
REM
REM ./C.cell (11c1c37f851c82e70ff6c80c92926a4b)
REM
REM compiler GCC version 9.2.1 20190827 (Red Hat 9.2.1-1)
REM options -cpp -mtune=generic -march=x86-64 -g -O0 -fpre-include=/usr/include/finclude/math-vector-fortran.h
REM seed 837231809 -1840308787 54624160 658468002 -7362244 -340767787 1530589141 71460358 1948303564 -26655016 548559063 -1532311954 -1728371975 -966796082 556004739 -224313161 -2096863607 1639267043 -795101309 1561439902 1887012740 1156735933 495728134 -1227775135 -764365545 565049311 165098019 620114950 1748180720 299326369 -1660487467 899847546 2026321181
REM
CELL 1.54180   50.00000   50.00000   50.00000   90.00000   90.00000   90.00000
LATT -1
SFAC C  
C      1  0.4739600000000  0.5547020000000  0.5963240000000 1.0
C      1  0.4953050000000  0.5912610000000  0.5723060000000 1.0
C      1  0.5312970000000  0.5657270000000  0.4710960000000 1.0
C      1  0.4352480000000  0.4821060000000  0.4280700000000 1.0
C      1  0.4400530000000  0.5306910000000  0.5818810000000 1.0
C      1  0.4654910000000  0.5017820000000  0.4077060000000 1.0
C      1  0.6161780000000  0.4761070000000  0.4611630000000 1.0
C      1  0.4544440000000  0.4323230000000  0.5375940000000 1.0
C      1  0.5565720000000  0.5426320000000  0.4211070000000 1.0
C      1  0.5698570000000  0.4800460000000  0.4778420000000 1.0
C      1  0.4722120000000  0.4815100000000  0.5648060000000 1.0
C      1  0.4172080000000  0.4968470000000  0.5193950000000 1.0
C      1  0.4593330000000  0.4342410000000  0.5692300000000 1.0
C      1  0.4556730000000  0.4978000000000  0.5450710000000 1.0
C      1  0.4413450000000  0.5313410000000  0.4801390000000 1.0
C      1  0.4274790000000  0.4723580000000  0.5833070000000 1.0
C      1  0.5414440000000  0.5884300000000  0.4480820000000 1.0
C      1  0.5442430000000  0.5147810000000  0.4059860000000 1.0
C      1  0.4548730000000  0.4233260000000  0.4561820000000 1.0
C      1  0.5074190000000  0.3821130000000  0.5060220000000 1.0
C      1  0.4926070000000  0.4604530000000  0.5520630000000 1.0
C      1  0.4741490000000  0.5814640000000  0.4820980000000 1.0
C      1  0.5196460000000  0.5520710000000  0.5919100000000 1.0
C      1  0.4192680000000  0.4492340000000  0.4971180000000 1.0
C      1  0.4726740000000  0.5275850000000  0.5792760000000 1.0
C      1  0.4298510000000  0.5073340000000  0.5611330000000 1.0
C      1  0.5308560000000  0.3894770000000  0.5293300000000 1.0
C      1  0.5675380000000  0.5673170000000  0.4424270000000 1.0
C      1  0.5929840000000  0.5254330000000  0.5584070000000 1.0
C      1  0.4541920000000  0.4710900000000  0.4790650000000 1.0
C      1  0.4034850000000  0.4961040000000  0.5475950000000 1.0
C      1  0.5793810000000  0.5608780000000  0.4721460000000 1.0
C      1  0.5245400000000  0.4482620000000  0.4887020000000 1.0
C      1  0.5000080000000  0.4927880000000  0.4796820000000 1.0
C      1  0.4519160000000  0.5607360000000  0.5710240000000 1.0
C      1  0.6059540000000  0.4756840000000  0.5170610000000 1.0
C      1  0.5840380000000  0.4555480000000  0.4263190000000 1.0
C      1  0.5740200000000  0.4928520000000  0.4479700000000 1.0
C      1  0.4484090000000  0.4869310000000  0.5152050000000 1.0
C      1  0.5005780000000  0.4456760000000  0.5090910000000 1.0
C      1  0.4359830000000  0.5247740000000  0.5135340000000 1.0
C      1  0.5572290000000  0.5449370000000  0.5210800000000 1.0
C      1  0.4546580000000  0.5453060000000  0.4520550000000 1.0
C      1  0.5552450000000  0.4618770000000  0.4132510000000 1.0
C      1  0.5010390000000  0.4653660000000  0.4061880000000 1.0
C      1  0.4060330000000  0.5602520000000  0.4802520000000 1.0
C      1  0.5303590000000  0.4795180000000  0.4837470000000 1.0
C      1  0.4792300000000  0.4781620000000  0.4284190000000 1.0
C      1  0.5887980000000  0.4263920000000  0.4758920000000 1.0
C      1  0.5450750000000  0.5398060000000  0.5527040000000 1.0
C      1  0.6049080000000  0.5601820000000  0.4782840000000 1.0
C      1  0.4471420000000  0.6046360000000  0.5126050000000 1.0
C      1  0.4425150000000  0.5201100000000  0.4235870000000 1.0
C      1  0.4717350000000  0.5503310000000  0.4034100000000 1.0
C      1  0.4708300000000  0.5491870000000  0.4797240000000 1.0
C      1  0.5074370000000  0.4349030000000  0.5391180000000 1.0
C      1  0.4258100000000  0.5823080000000  0.4634400000000 1.0
C      1  0.4919610000000  0.5299690000000  0.5153980000000 1.0
C      1  0.5112630000000  0.5217550000000  0.4015160000000 1.0
C      1  0.5908920000000  0.4483610000000  0.5245110000000 1.0
C      1  0.5909600000000  0.5172090000000  0.4800300000000 1.0
C      1  0.5555220000000  0.5558730000000  0.4912670000000 1.0
C      1  0.5405550000000  0.4361480000000  0.5468010000000 1.0
C      1  0.5111420000000  0.4539360000000  0.4604250000000 1.0
C      1  0.5037890000000  0.5708800000000  0.4853870000000 1.0
C      1  0.4257410000000  0.5901070000000  0.5285820000000 1.0
C      1  0.5376170000000  0.3783590000000  0.4978490000000 1.0
C      1  0.4355090000000  0.4575340000000  0.4587620000000 1.0
C      1  0.5434020000000  0.5011350000000  0.5994620000000 1.0
C      1  0.4926880000000  0.5912940000000  0.4481660000000 1.0
C      1  0.5728850000000  0.5753880000000  0.5415580000000 1.0
C      1  0.4252530000000  0.4514660000000  0.3910460000000 1.0
C      1  0.4124060000000  0.5549580000000  0.4479380000000 1.0
C      1  0.5681320000000  0.4556650000000  0.5444480000000 1.0
C      1  0.4282940000000  0.5012400000000  0.5942420000000 1.0
C      1  0.5814270000000  0.5529100000000  0.5628920000000 1.0
C      1  0.4720740000000  0.5941400000000  0.5627080000000 1.0
C      1  0.5700090000000  0.4949450000000  0.5056810000000 1.0
C      1  0.5436480000000  0.4708650000000  0.5837260000000 1.0
C      1  0.5043250000000  0.4369940000000  0.4250200000000 1.0
C      1  0.5883590000000  0.5535610000000  0.5235380000000 1.0
C      1  0.5545000000000  0.4072820000000  0.5195320000000 1.0
C      1  0.4636000000000  0.4540430000000  0.4442240000000 1.0
C      1  0.5298810000000  0.4832120000000  0.4033550000000 1.0
C      1  0.4458630000000  0.5736280000000  0.4373250000000 1.0
C      1  0.5131730000000  0.5097170000000  0.5033490000000 1.0
C      1  0.5619950000000  0.5201590000000  0.4744600000000 1.0
C      1  0.5064940000000  0.4310700000000  0.5873290000000 1.0
C      1  0.4795680000000  0.5380490000000  0.4337100000000 1.0
C      1  0.5348070000000  0.4202440000000  0.5752100000000 1.0
C      1  0.3886610000000  0.5384560000000  0.4902730000000 1.0
C      1  0.4313290000000  0.5424140000000  0.5422060000000 1.0
C      1  0.4611840000000  0.5296500000000  0.5479520000000 1.0
C      1  0.4073510000000  0.4432240000000  0.4656710000000 1.0
C      1  0.6019820000000  0.4769150000000  0.4849850000000 1.0
C      1  0.4223310000000  0.5384310000000  0.4295990000000 1.0
C      1  0.5018710000000  0.4969750000000  0.5393440000000 1.0
C      1  0.3874070000000  0.5354860000000  0.5182060000000 1.0
C      1  0.5992020000000  0.4796360000000  0.4376370000000 1.0
C      1  0.5253850000000  0.5625590000000  0.5384230000000 1.0
C      1  0.4924670000000  0.4907270000000  0.6092880000000 1.0
C      1  0.5998420000000  0.5081100000000  0.5095910000000 1.0
C      1  0.4362790000000  0.4978120000000  0.4845510000000 1.0
C      1  0.4762870000000  0.4286480000000  0.4976260000000 1.0
C      1  0.4534450000000  0.4607120000000  0.5786610000000 1.0
C      1  0.4051770000000  0.4925130000000  0.4717310000000 1.0
C      1  0.4814860000000  0.4158400000000  0.5276180000000 1.0
C      1  0.5817420000000  0.4660850000000  0.5729290000000 1.0
C      1  0.5803450000000  0.4001780000000  0.5244010000000 1.0
C      1  0.5269460000000  0.4068460000000  0.4541750000000 1.0
C      1  0.4057210000000  0.4770420000000  0.4992740000000 1.0
C      1  0.4679350000000  0.5176100000000  0.5037870000000 1.0
C      1  0.4090510000000  0.4726310000000  0.4477970000000 1.0
C      1  0.4936470000000  0.5402320000000  0.5478380000000 1.0
C      1  0.4286310000000  0.4105060000000  0.4978800000000 1.0
C      1  0.6005220000000  0.4182450000000  0.5283680000000 1.0
C      1  0.4808950000000  0.4136190000000  0.4682090000000 1.0
C      1  0.4713930000000  0.4726440000000  0.3907450000000 1.0
C      1  0.5532040000000  0.4918660000000  0.4271640000000 1.0
C      1  0.5473040000000  0.5841380000000  0.5312060000000 1.0
C      1  0.4269780000000  0.5731580000000  0.5514630000000 1.0
C      1  0.4082650000000  0.4455950000000  0.5464760000000 1.0
C      1  0.5590950000000  0.4521840000000  0.4693050000000 1.0
C      1  0.6042640000000  0.4761890000000  0.5493750000000 1.0
C      1  0.4506320000000  0.5626240000000  0.5137810000000 1.0
C      1  0.5381500000000  0.5021200000000  0.4627660000000 1.0
C      1  0.4916520000000  0.4017200000000  0.5546530000000 1.0
C      1  0.4664370000000  0.4623090000000  0.5302640000000 1.0
C      1  0.5021360000000  0.4166950000000  0.4458330000000 1.0
C      1  0.5155930000000  0.6013290000000  0.4622050000000 1.0
C      1  0.5461910000000  0.3922350000000  0.4755260000000 1.0
C      1  0.5026720000000  0.5387360000000  0.4780260000000 1.0
C      1  0.4650760000000  0.5705250000000  0.5407730000000 1.0
C      1  0.5580950000000  0.4431990000000  0.5819110000000 1.0
C      1  0.4304260000000  0.4202330000000  0.4719440000000 1.0
C      1  0.4899570000000  0.6235300000000  0.4983400000000 1.0
C      1  0.5363570000000  0.5286540000000  0.5813290000000 1.0
C      1  0.4839140000000  0.5236790000000  0.3967320000000 1.0
C      1  0.5182580000000  0.5004240000000  0.5756250000000 1.0
C      1  0.5490310000000  0.5417380000000  0.4545550000000 1.0
C      1  0.3866230000000  0.5167770000000  0.4737690000000 1.0
C      1  0.4933050000000  0.5861400000000  0.5299000000000 1.0
C      1  0.6023010000000  0.5295750000000  0.5304430000000 1.0
C      1  0.4430770000000  0.4689480000000  0.4037900000000 1.0
C      1  0.4832980000000  0.4693360000000  0.4669180000000 1.0
C      1  0.6095120000000  0.5217590000000  0.4617190000000 1.0
C      1  0.5778340000000  0.4340540000000  0.4995570000000 1.0
C      1  0.4027900000000  0.5281180000000  0.5393800000000 1.0
C      1  0.4084000000000  0.4684840000000  0.5616580000000 1.0
C      1  0.4085890000000  0.4351210000000  0.3791320000000 1.0
C      1  0.5480870000000  0.5138460000000  0.5230290000000 1.0
C      1  0.5143780000000  0.5218860000000  0.4557150000000 1.0
C      1  0.4541720000000  0.5018500000000  0.4485190000000 1.0
C      1  0.4249090000000  0.5713810000000  0.5024970000000 1.0
C      1  0.5307970000000  0.5645520000000  0.4272930000000 1.0
C      1  0.5051060000000  0.4602530000000  0.5837110000000 1.0
C      1  0.5883350000000  0.4988530000000  0.5654450000000 1.0
C      1  0.4623400000000  0.5953300000000  0.4538930000000 1.0
C      1  0.5298190000000  0.4559600000000  0.4322020000000 1.0
C      1  0.4921110000000  0.5065760000000  0.4371080000000 1.0
C      1  0.5229140000000  0.5948530000000  0.5152410000000 1.0
C      1  0.4744240000000  0.6098320000000  0.5185900000000 1.0
C      1  0.4529750000000  0.4496940000000  0.5016380000000 1.0
C      1  0.4870100000000  0.5014420000000  0.5821800000000 1.0
C      1  0.4452470000000  0.5992610000000  0.4825720000000 1.0
C      1  0.5203360000000  0.5200820000000  0.5412680000000 1.0
C      1  0.4978600000000  0.5669620000000  0.4333220000000 1.0
C      1  0.5612570000000  0.4869410000000  0.5365370000000 1.0
C      1  0.5335950000000  0.4612610000000  0.5252290000000 1.0
C      1  0.5344000000000  0.4792400000000  0.5543690000000 1.0
C      1  0.4981330000000  0.5569140000000  0.6089130000000 1.0
C      1  0.5076720000000  0.4783350000000  0.5161670000000 1.0
C      1  0.5469900000000  0.4356360000000  0.5070840000000 1.0
C      1  0.5494850000000  0.4240520000000  0.4689390000000 1.0
C      1  0.4827730000000  0.4183320000000  0.5764440000000 1.0
C      1  0.4881020000000  0.3912090000000  0.4902950000000 1.0
C      1  0.5051240000000  0.5590510000000  0.5146490000000 1.0
C      1  0.5201420000000  0.3976180000000  0.5554060000000 1.0
C      1  0.5141050000000  0.6092310000000  0.4901310000000 1.0
C      1  0.5092000000000  0.5645630000000  0.5659110000000 1.0
C      1  0.5187570000000  0.5348050000000  0.4283640000000 1.0
C      1  0.4721650000000  0.5074240000000  0.4715720000000 1.0
C      1  0.4534190000000  0.5703690000000  0.4074930000000 1.0
C      1  0.5209100000000  0.4770370000000  0.6079210000000 1.0
C      1  0.4265310000000  0.4306460000000  0.5247600000000 1.0
C      1  0.5166340000000  0.4838460000000  0.4445440000000 1.0
C      1  0.5809510000000  0.4381270000000  0.4489940000000 1.0
C      1  0.5334110000000  0.5306260000000  0.4901090000000 1.0
END
