TITL C-2778423-5760-1112 -0.00172484223504095 125000 -872.888993429235 0 0 152 (C1) n - 1
REM
REM in /home/nfs/bkarasulu/CARBON/AIRSS/Generating-Clusters/REBO/Only-C1/SD-CG/HFTN-CG
REM
REM
REM
REM
REM
REM ./C.cell (11c1c37f851c82e70ff6c80c92926a4b)
REM
REM compiler GCC version 9.2.1 20190827 (Red Hat 9.2.1-1)
REM options -cpp -mtune=generic -march=x86-64 -g -O0 -fpre-include=/usr/include/finclude/math-vector-fortran.h
REM seed -1883687837 148337685 -1133981238 -451167510 370019772 -1548090268 344643479 478364906 1467381751 367440605 -778375562 -351169848 -528944414 1570767523 1821199769 1971077845 -1196265289 -1433199776 -1686385523 943719858 -1029299652 -898179243 138784022 -1637787722 -982098151 -1516118196 788585333 -728367560 1541173330 -387976112 -796405849 1923567865 424783981
REM
CELL 1.54180   50.00000   50.00000   50.00000   90.00000   90.00000   90.00000
LATT -1
SFAC C  
C      1  0.5443850000000  0.5767590000000  0.5253490000000 1.0
C      1  0.5067760000000  0.4960070000000  0.5169230000000 1.0
C      1  0.4984340000000  0.5391870000000  0.4537480000000 1.0
C      1  0.5923220000000  0.5339480000000  0.5487540000000 1.0
C      1  0.4604780000000  0.5933210000000  0.5008760000000 1.0
C      1  0.4952560000000  0.4085720000000  0.4555430000000 1.0
C      1  0.4217110000000  0.5391990000000  0.4492610000000 1.0
C      1  0.4928040000000  0.4526730000000  0.4852440000000 1.0
C      1  0.4294820000000  0.5618360000000  0.4714720000000 1.0
C      1  0.5499050000000  0.4621520000000  0.5700280000000 1.0
C      1  0.4760350000000  0.5641350000000  0.4603000000000 1.0
C      1  0.4986210000000  0.5345420000000  0.3936840000000 1.0
C      1  0.4754330000000  0.4552410000000  0.4491780000000 1.0
C      1  0.4295770000000  0.5839680000000  0.4914680000000 1.0
C      1  0.4388120000000  0.4879130000000  0.4574800000000 1.0
C      1  0.4420040000000  0.4583050000000  0.5198300000000 1.0
C      1  0.4398380000000  0.5343080000000  0.4873890000000 1.0
C      1  0.4654070000000  0.5281000000000  0.5271460000000 1.0
C      1  0.4234200000000  0.5128930000000  0.5410150000000 1.0
C      1  0.5859110000000  0.5617600000000  0.4624840000000 1.0
C      1  0.5022290000000  0.4373740000000  0.4496400000000 1.0
C      1  0.3927280000000  0.5124890000000  0.4969820000000 1.0
C      1  0.4661870000000  0.4040590000000  0.4560630000000 1.0
C      1  0.5367590000000  0.5597070000000  0.5685640000000 1.0
C      1  0.4450130000000  0.5293900000000  0.4356190000000 1.0
C      1  0.5672840000000  0.5641970000000  0.5043310000000 1.0
C      1  0.5675150000000  0.5048400000000  0.4658040000000 1.0
C      1  0.4885280000000  0.5811900000000  0.5128540000000 1.0
C      1  0.4313370000000  0.4447460000000  0.4360110000000 1.0
C      1  0.4682980000000  0.4336740000000  0.4732040000000 1.0
C      1  0.5879950000000  0.4745900000000  0.5146920000000 1.0
C      1  0.5440610000000  0.5834020000000  0.5524810000000 1.0
C      1  0.5542140000000  0.4776530000000  0.4628920000000 1.0
C      1  0.4493740000000  0.5678460000000  0.4455360000000 1.0
C      1  0.4571140000000  0.4495490000000  0.4242480000000 1.0
C      1  0.5526970000000  0.4618470000000  0.4262660000000 1.0
C      1  0.5062270000000  0.4647980000000  0.4066690000000 1.0
C      1  0.5557920000000  0.5015010000000  0.4251720000000 1.0
C      1  0.4781930000000  0.4489490000000  0.5361230000000 1.0
C      1  0.4704330000000  0.5389340000000  0.4821270000000 1.0
C      1  0.4913710000000  0.4021780000000  0.5049220000000 1.0
C      1  0.4492560000000  0.5446870000000  0.5523330000000 1.0
C      1  0.4348050000000  0.5335770000000  0.5170360000000 1.0
C      1  0.4712720000000  0.4884350000000  0.4555020000000 1.0
C      1  0.4280450000000  0.4605380000000  0.5512970000000 1.0
C      1  0.4630870000000  0.5752030000000  0.5561110000000 1.0
C      1  0.4811740000000  0.5518420000000  0.5407910000000 1.0
C      1  0.4394070000000  0.4117760000000  0.5422390000000 1.0
C      1  0.4415350000000  0.4015670000000  0.5196660000000 1.0
C      1  0.4518810000000  0.5936790000000  0.5342510000000 1.0
C      1  0.4376310000000  0.4353510000000  0.4986240000000 1.0
C      1  0.4225130000000  0.4845020000000  0.5295530000000 1.0
C      1  0.4798720000000  0.5577630000000  0.5802000000000 1.0
C      1  0.5186670000000  0.5207740000000  0.5938080000000 1.0
C      1  0.5444070000000  0.4917070000000  0.5438250000000 1.0
C      1  0.5416130000000  0.4127920000000  0.5097960000000 1.0
C      1  0.5983110000000  0.5443710000000  0.4889600000000 1.0
C      1  0.6048440000000  0.4767760000000  0.4785980000000 1.0
C      1  0.4913730000000  0.5724290000000  0.4155530000000 1.0
C      1  0.4604860000000  0.4819990000000  0.5434010000000 1.0
C      1  0.5130300000000  0.5539930000000  0.5887440000000 1.0
C      1  0.5817740000000  0.4444550000000  0.5130980000000 1.0
C      1  0.4923150000000  0.5072290000000  0.5636710000000 1.0
C      1  0.5499860000000  0.5386320000000  0.4898910000000 1.0
C      1  0.5595350000000  0.4918010000000  0.5807730000000 1.0
C      1  0.5430890000000  0.4348270000000  0.5525580000000 1.0
C      1  0.4257670000000  0.5906190000000  0.5200840000000 1.0
C      1  0.5489570000000  0.4252720000000  0.4626970000000 1.0
C      1  0.3930040000000  0.4711790000000  0.4643760000000 1.0
C      1  0.4820530000000  0.5899270000000  0.4750070000000 1.0
C      1  0.4723640000000  0.5504490000000  0.3993590000000 1.0
C      1  0.5160670000000  0.4203500000000  0.5587880000000 1.0
C      1  0.5048480000000  0.5085250000000  0.4789890000000 1.0
C      1  0.5111640000000  0.5469270000000  0.5496960000000 1.0
C      1  0.3830350000000  0.4974510000000  0.4701850000000 1.0
C      1  0.5072270000000  0.4320500000000  0.5053080000000 1.0
C      1  0.5235760000000  0.4832920000000  0.4908300000000 1.0
C      1  0.5903100000000  0.5283570000000  0.4604080000000 1.0
C      1  0.5092440000000  0.3986650000000  0.4780190000000 1.0
C      1  0.5367070000000  0.5437580000000  0.5191990000000 1.0
C      1  0.5248530000000  0.5035260000000  0.5647290000000 1.0
C      1  0.5784410000000  0.4837660000000  0.4317270000000 1.0
C      1  0.5499800000000  0.4409270000000  0.5138920000000 1.0
C      1  0.5355880000000  0.4619650000000  0.5326280000000 1.0
C      1  0.4463030000000  0.4454100000000  0.5967610000000 1.0
C      1  0.4622710000000  0.4117060000000  0.4981790000000 1.0
C      1  0.4811410000000  0.5039700000000  0.5347460000000 1.0
C      1  0.5696600000000  0.5205780000000  0.5680770000000 1.0
C      1  0.5684340000000  0.4480610000000  0.4521170000000 1.0
C      1  0.5236110000000  0.4817590000000  0.4562650000000 1.0
C      1  0.4310040000000  0.4357120000000  0.4653780000000 1.0
C      1  0.5052730000000  0.5073280000000  0.4463460000000 1.0
C      1  0.5162130000000  0.5554180000000  0.4766230000000 1.0
C      1  0.4516130000000  0.5695830000000  0.4182440000000 1.0
C      1  0.4673480000000  0.4337290000000  0.5813060000000 1.0
C      1  0.4192320000000  0.4697350000000  0.4482180000000 1.0
C      1  0.4140980000000  0.4858020000000  0.4985890000000 1.0
C      1  0.4024910000000  0.5192150000000  0.4592030000000 1.0
C      1  0.5770430000000  0.4848610000000  0.5523440000000 1.0
C      1  0.4839020000000  0.4833200000000  0.4866810000000 1.0
C      1  0.4512110000000  0.4877090000000  0.5721450000000 1.0
C      1  0.5524610000000  0.5408650000000  0.4573110000000 1.0
C      1  0.5593050000000  0.5715070000000  0.4519350000000 1.0
C      1  0.4017710000000  0.5273800000000  0.5202360000000 1.0
C      1  0.5287670000000  0.4890360000000  0.5949760000000 1.0
C      1  0.4850240000000  0.4936190000000  0.4240910000000 1.0
C      1  0.5166440000000  0.4073600000000  0.5272690000000 1.0
C      1  0.5502430000000  0.5385480000000  0.5492280000000 1.0
C      1  0.4324830000000  0.4652480000000  0.5833400000000 1.0
C      1  0.4943100000000  0.5501940000000  0.4999650000000 1.0
C      1  0.5390990000000  0.5107010000000  0.4796630000000 1.0
C      1  0.5367030000000  0.4061930000000  0.4823360000000 1.0
C      1  0.6096130000000  0.4871840000000  0.5271140000000 1.0
C      1  0.4760180000000  0.4663950000000  0.4089750000000 1.0
C      1  0.5039890000000  0.4697610000000  0.5384210000000 1.0
C      1  0.5719940000000  0.4519580000000  0.5451610000000 1.0
C      1  0.5208800000000  0.4577620000000  0.4347060000000 1.0
C      1  0.5078630000000  0.5299330000000  0.5204010000000 1.0
C      1  0.4697080000000  0.5251230000000  0.5800710000000 1.0
C      1  0.4394960000000  0.5174530000000  0.5683320000000 1.0
C      1  0.4866020000000  0.4222850000000  0.5475540000000 1.0
C      1  0.5914120000000  0.5517900000000  0.5214220000000 1.0
C      1  0.5864760000000  0.4543800000000  0.4803870000000 1.0
C      1  0.4316200000000  0.5213470000000  0.3884040000000 1.0
C      1  0.4689330000000  0.5221780000000  0.4535230000000 1.0
C      1  0.5103480000000  0.5923890000000  0.4896610000000 1.0
C      1  0.5629500000000  0.5154270000000  0.5289880000000 1.0
C      1  0.5092560000000  0.5061190000000  0.4068020000000 1.0
C      1  0.5148720000000  0.5641280000000  0.4269090000000 1.0
C      1  0.5282410000000  0.5717980000000  0.4508420000000 1.0
C      1  0.4981540000000  0.4378070000000  0.5823460000000 1.0
C      1  0.5462130000000  0.5257170000000  0.4343950000000 1.0
C      1  0.4270120000000  0.5086070000000  0.4769120000000 1.0
C      1  0.5225160000000  0.5355310000000  0.4178950000000 1.0
C      1  0.5530860000000  0.4560060000000  0.4877340000000 1.0
C      1  0.4792560000000  0.4872910000000  0.5869930000000 1.0
C      1  0.5951410000000  0.5036880000000  0.4833290000000 1.0
C      1  0.4899760000000  0.5346450000000  0.6037210000000 1.0
C      1  0.4141150000000  0.4565300000000  0.4856070000000 1.0
C      1  0.5024310000000  0.4689270000000  0.5958030000000 1.0
C      1  0.5238920000000  0.4456000000000  0.4737040000000 1.0
C      1  0.5044190000000  0.5795030000000  0.5576870000000 1.0
C      1  0.5178630000000  0.4615180000000  0.5680820000000 1.0
C      1  0.4486040000000  0.5312110000000  0.4077960000000 1.0
C      1  0.4945210000000  0.5936860000000  0.5397350000000 1.0
C      1  0.4711470000000  0.4723970000000  0.5124300000000 1.0
C      1  0.6006480000000  0.5055070000000  0.5479710000000 1.0
C      1  0.5338320000000  0.4846270000000  0.4083500000000 1.0
C      1  0.5656290000000  0.4895550000000  0.5100410000000 1.0
C      1  0.5378890000000  0.5766650000000  0.4919620000000 1.0
C      1  0.4507950000000  0.4381150000000  0.5531640000000 1.0
C      1  0.5918760000000  0.5194600000000  0.5115260000000 1.0
END
