TITL C-2778424-3986-1279 0.0033438385354126 125000 -579.755407977902 0 0 98 (C1) n - 1
REM
REM in /home/nfs/bkarasulu/CARBON/AIRSS/Generating-Clusters/REBO/Only-C1/SD-CG/HFTN-CG
REM
REM
REM
REM
REM
REM ./C.cell (11c1c37f851c82e70ff6c80c92926a4b)
REM
REM compiler GCC version 9.2.1 20190827 (Red Hat 9.2.1-1)
REM options -cpp -mtune=generic -march=x86-64 -g -O0 -fpre-include=/usr/include/finclude/math-vector-fortran.h
REM seed -1577506991 -1747036823 983761029 2056816178 1075821507 1548594665 405333346 -369318787 1039789002 1615566877 -1362347421 520568557 -2120380677 -1158646841 590151696 -909626742 -944755412 49198078 248473247 -707033652 -1668427588 102023549 -876131199 -1528056400 242777600 -1908862623 192078546 -1201543734 1852730488 1651847839 1049519178 484927546 142120905
REM
CELL 1.54180   50.00000   50.00000   50.00000   90.00000   90.00000   90.00000
LATT -1
SFAC C  
C      1  0.5881480000000  0.5132130000000  0.4588470000000 1.0
C      1  0.5134460000000  0.4649950000000  0.4216840000000 1.0
C      1  0.4169360000000  0.4972760000000  0.4634360000000 1.0
C      1  0.4292610000000  0.5352890000000  0.5070900000000 1.0
C      1  0.4739450000000  0.4196900000000  0.4644940000000 1.0
C      1  0.5065540000000  0.4330580000000  0.4619640000000 1.0
C      1  0.4868630000000  0.4745720000000  0.4949230000000 1.0
C      1  0.5809260000000  0.4568200000000  0.5049460000000 1.0
C      1  0.5181320000000  0.5883750000000  0.5281820000000 1.0
C      1  0.4781280000000  0.5509720000000  0.5703590000000 1.0
C      1  0.4586020000000  0.5195740000000  0.4850240000000 1.0
C      1  0.4685010000000  0.5404520000000  0.5330650000000 1.0
C      1  0.4492420000000  0.4327550000000  0.4845180000000 1.0
C      1  0.5082160000000  0.5216530000000  0.5788710000000 1.0
C      1  0.5653290000000  0.5313860000000  0.5483400000000 1.0
C      1  0.5140420000000  0.5154240000000  0.4157820000000 1.0
C      1  0.5128170000000  0.4508440000000  0.5422560000000 1.0
C      1  0.4503750000000  0.4495860000000  0.4266470000000 1.0
C      1  0.5046750000000  0.4394180000000  0.4286440000000 1.0
C      1  0.4652460000000  0.5653860000000  0.5186390000000 1.0
C      1  0.5027890000000  0.5542940000000  0.5561820000000 1.0
C      1  0.4767600000000  0.4718740000000  0.5776500000000 1.0
C      1  0.4280270000000  0.4662580000000  0.5171630000000 1.0
C      1  0.4709420000000  0.4952780000000  0.4247620000000 1.0
C      1  0.4743970000000  0.4206330000000  0.5461400000000 1.0
C      1  0.5264850000000  0.5535170000000  0.5106460000000 1.0
C      1  0.4250420000000  0.4535130000000  0.4432170000000 1.0
C      1  0.5042520000000  0.4222960000000  0.5076040000000 1.0
C      1  0.4837200000000  0.4577460000000  0.4690450000000 1.0
C      1  0.5924000000000  0.5152350000000  0.5353810000000 1.0
C      1  0.5272640000000  0.5598310000000  0.4601960000000 1.0
C      1  0.4505380000000  0.4483060000000  0.5135990000000 1.0
C      1  0.4846980000000  0.5021660000000  0.5893260000000 1.0
C      1  0.4407920000000  0.4888090000000  0.5818760000000 1.0
C      1  0.4875360000000  0.5714530000000  0.4860990000000 1.0
C      1  0.5606890000000  0.4647440000000  0.4609010000000 1.0
C      1  0.4185770000000  0.4831410000000  0.4373610000000 1.0
C      1  0.5338880000000  0.4501560000000  0.4730970000000 1.0
C      1  0.5363800000000  0.5694500000000  0.4846170000000 1.0
C      1  0.4470380000000  0.4802980000000  0.4235520000000 1.0
C      1  0.4745060000000  0.4409990000000  0.4401540000000 1.0
C      1  0.5695170000000  0.5349920000000  0.4677570000000 1.0
C      1  0.4997990000000  0.4253740000000  0.5350090000000 1.0
C      1  0.4967930000000  0.5228930000000  0.4740420000000 1.0
C      1  0.4151670000000  0.5076130000000  0.4949220000000 1.0
C      1  0.5467480000000  0.4911680000000  0.5089480000000 1.0
C      1  0.5588400000000  0.5657230000000  0.5075030000000 1.0
C      1  0.5267280000000  0.5560870000000  0.5715970000000 1.0
C      1  0.5077830000000  0.5449670000000  0.5288290000000 1.0
C      1  0.4884410000000  0.5198170000000  0.5192400000000 1.0
C      1  0.5462480000000  0.5792000000000  0.5335980000000 1.0
C      1  0.5163570000000  0.5164100000000  0.5001020000000 1.0
C      1  0.4817880000000  0.4329090000000  0.4932950000000 1.0
C      1  0.5412030000000  0.5266720000000  0.5715910000000 1.0
C      1  0.4929410000000  0.5822240000000  0.5146350000000 1.0
C      1  0.5442210000000  0.4515890000000  0.5371920000000 1.0
C      1  0.5282420000000  0.4260540000000  0.4947510000000 1.0
C      1  0.5254580000000  0.4787870000000  0.4854800000000 1.0
C      1  0.5231810000000  0.5010620000000  0.5298990000000 1.0
C      1  0.5945470000000  0.5147180000000  0.5068230000000 1.0
C      1  0.4421570000000  0.5602000000000  0.5008760000000 1.0
C      1  0.5334850000000  0.4992080000000  0.5582330000000 1.0
C      1  0.4514550000000  0.5442690000000  0.4544440000000 1.0
C      1  0.5319010000000  0.5132550000000  0.4424920000000 1.0
C      1  0.5123790000000  0.4726050000000  0.5166770000000 1.0
C      1  0.5342970000000  0.4881840000000  0.4205430000000 1.0
C      1  0.4931220000000  0.5013800000000  0.5567290000000 1.0
C      1  0.5264620000000  0.4796400000000  0.5758680000000 1.0
C      1  0.4454520000000  0.5660560000000  0.4725510000000 1.0
C      1  0.4382680000000  0.5195220000000  0.4645300000000 1.0
C      1  0.4344250000000  0.4855470000000  0.5427110000000 1.0
C      1  0.5815290000000  0.4990880000000  0.4353540000000 1.0
C      1  0.5132130000000  0.4977000000000  0.4642480000000 1.0
C      1  0.4167490000000  0.4742220000000  0.4888400000000 1.0
C      1  0.4261930000000  0.4487120000000  0.4712900000000 1.0
C      1  0.4694160000000  0.4988980000000  0.5056210000000 1.0
C      1  0.5602730000000  0.4803400000000  0.4370520000000 1.0
C      1  0.5436400000000  0.5389440000000  0.4507540000000 1.0
C      1  0.5940980000000  0.4974540000000  0.4823090000000 1.0
C      1  0.4483170000000  0.4623360000000  0.5636840000000 1.0
C      1  0.4981020000000  0.4857700000000  0.4373810000000 1.0
C      1  0.4401040000000  0.5043700000000  0.5170070000000 1.0
C      1  0.4815180000000  0.5385050000000  0.4474730000000 1.0
C      1  0.4992600000000  0.5615360000000  0.4595180000000 1.0
C      1  0.4560730000000  0.5339800000000  0.5594640000000 1.0
C      1  0.4740200000000  0.4623510000000  0.5211590000000 1.0
C      1  0.5065540000000  0.4621630000000  0.5692740000000 1.0
C      1  0.4864520000000  0.5210470000000  0.4227620000000 1.0
C      1  0.5600610000000  0.4661820000000  0.5210760000000 1.0
C      1  0.5571990000000  0.5222940000000  0.5182630000000 1.0
C      1  0.4756950000000  0.5439640000000  0.4865460000000 1.0
C      1  0.4520550000000  0.4336700000000  0.5542390000000 1.0
C      1  0.5827560000000  0.4702830000000  0.4800760000000 1.0
C      1  0.4405210000000  0.5117880000000  0.5637990000000 1.0
C      1  0.5777150000000  0.5422960000000  0.4987090000000 1.0
C      1  0.5439350000000  0.5249180000000  0.4879690000000 1.0
C      1  0.4797840000000  0.4767810000000  0.5436600000000 1.0
C      1  0.5512600000000  0.5615460000000  0.5553280000000 1.0
END
