TITL C-2778423-5760-1094 -0.00112011992138889 125000 -445.356693165604 0 0 79 (C1) n - 1
REM
REM in /home/nfs/bkarasulu/CARBON/AIRSS/Generating-Clusters/REBO/Only-C1/SD-CG/HFTN-CG
REM
REM
REM
REM
REM
REM ./C.cell (11c1c37f851c82e70ff6c80c92926a4b)
REM
REM compiler GCC version 9.2.1 20190827 (Red Hat 9.2.1-1)
REM options -cpp -mtune=generic -march=x86-64 -g -O0 -fpre-include=/usr/include/finclude/math-vector-fortran.h
REM seed 1119996714 297453478 1312590842 -881428476 -1569175394 1428095228 -1580710864 -265896880 -1726963245 -1920049172 809177308 57189745 1806730910 222929734 -1390000897 -1203184617 1176436422 122369719 -1730453666 -987843385 1823539204 1032781049 1687462861 1471261482 1256096457 1816473129 409252934 -828375295 -690246192 -505419042 -645391193 1894374434 -1266871952
REM
CELL 1.54180   50.00000   50.00000   50.00000   90.00000   90.00000   90.00000
LATT -1
SFAC C  
C      1  0.4336190000000  0.5332940000000  0.4739790000000 1.0
C      1  0.4870700000000  0.5705710000000  0.5341020000000 1.0
C      1  0.4642930000000  0.5569640000000  0.5187120000000 1.0
C      1  0.5781040000000  0.4825150000000  0.4689070000000 1.0
C      1  0.5318520000000  0.4961940000000  0.5195740000000 1.0
C      1  0.4619920000000  0.4986540000000  0.4433930000000 1.0
C      1  0.4971320000000  0.4678400000000  0.5271460000000 1.0
C      1  0.4553770000000  0.5285960000000  0.5354580000000 1.0
C      1  0.4276130000000  0.5085350000000  0.5339930000000 1.0
C      1  0.4537280000000  0.4478280000000  0.5414730000000 1.0
C      1  0.5489380000000  0.4638020000000  0.4352270000000 1.0
C      1  0.4565130000000  0.5253310000000  0.4410270000000 1.0
C      1  0.5565010000000  0.5174120000000  0.4423780000000 1.0
C      1  0.5390880000000  0.5859770000000  0.4845630000000 1.0
C      1  0.4253620000000  0.4855120000000  0.4835930000000 1.0
C      1  0.5062520000000  0.4942840000000  0.4990100000000 1.0
C      1  0.5308060000000  0.5533040000000  0.5265830000000 1.0
C      1  0.4435810000000  0.4794850000000  0.4485470000000 1.0
C      1  0.5423570000000  0.4937750000000  0.4259000000000 1.0
C      1  0.5286290000000  0.4535460000000  0.4522030000000 1.0
C      1  0.4554430000000  0.4422400000000  0.4565600000000 1.0
C      1  0.5569790000000  0.5146610000000  0.5591440000000 1.0
C      1  0.4700030000000  0.5465360000000  0.4631730000000 1.0
C      1  0.5323530000000  0.5374320000000  0.4475010000000 1.0
C      1  0.5394140000000  0.4986270000000  0.5762660000000 1.0
C      1  0.4845290000000  0.4426580000000  0.5445820000000 1.0
C      1  0.4313780000000  0.5353960000000  0.5134130000000 1.0
C      1  0.4924490000000  0.5579850000000  0.5579060000000 1.0
C      1  0.4998840000000  0.5197900000000  0.5209370000000 1.0
C      1  0.5150200000000  0.4759170000000  0.4178830000000 1.0
C      1  0.4696630000000  0.4800250000000  0.5592900000000 1.0
C      1  0.5532520000000  0.4959550000000  0.4968630000000 1.0
C      1  0.5071520000000  0.5738080000000  0.4874010000000 1.0
C      1  0.4815050000000  0.4963870000000  0.4782200000000 1.0
C      1  0.5127340000000  0.5122740000000  0.5765130000000 1.0
C      1  0.5612140000000  0.5600440000000  0.4829370000000 1.0
C      1  0.4924250000000  0.4913170000000  0.4487060000000 1.0
C      1  0.5649470000000  0.4715500000000  0.5472720000000 1.0
C      1  0.5305050000000  0.5582420000000  0.4676610000000 1.0
C      1  0.4287860000000  0.4568620000000  0.4688390000000 1.0
C      1  0.5200650000000  0.4274350000000  0.5044630000000 1.0
C      1  0.4562940000000  0.4861680000000  0.4954970000000 1.0
C      1  0.4309120000000  0.4488760000000  0.5194980000000 1.0
C      1  0.5734110000000  0.5097500000000  0.4637430000000 1.0
C      1  0.4876230000000  0.5282390000000  0.4838710000000 1.0
C      1  0.4931380000000  0.4291030000000  0.5146460000000 1.0
C      1  0.5162820000000  0.5324320000000  0.4946620000000 1.0
C      1  0.4497190000000  0.5559010000000  0.4376280000000 1.0
C      1  0.4579050000000  0.5243430000000  0.4942450000000 1.0
C      1  0.5052560000000  0.4930610000000  0.5496950000000 1.0
C      1  0.5187800000000  0.5062240000000  0.4472820000000 1.0
C      1  0.5093530000000  0.4676930000000  0.4781560000000 1.0
C      1  0.5742280000000  0.5287480000000  0.4879900000000 1.0
C      1  0.5358370000000  0.5221830000000  0.5378200000000 1.0
C      1  0.4992620000000  0.4612720000000  0.4402690000000 1.0
C      1  0.4543560000000  0.4793610000000  0.5287890000000 1.0
C      1  0.5342440000000  0.4695400000000  0.5638180000000 1.0
C      1  0.5285860000000  0.4664550000000  0.5321210000000 1.0
C      1  0.4799230000000  0.4647280000000  0.5022690000000 1.0
C      1  0.5344070000000  0.5116460000000  0.4769900000000 1.0
C      1  0.5403060000000  0.4392340000000  0.5217310000000 1.0
C      1  0.4769260000000  0.5093160000000  0.5421760000000 1.0
C      1  0.5609710000000  0.4647480000000  0.4923850000000 1.0
C      1  0.5076900000000  0.5326740000000  0.5518170000000 1.0
C      1  0.4760260000000  0.5662370000000  0.4878620000000 1.0
C      1  0.4396220000000  0.4384010000000  0.4936320000000 1.0
C      1  0.4424300000000  0.5605300000000  0.4926910000000 1.0
C      1  0.5467210000000  0.5390690000000  0.5032320000000 1.0
C      1  0.5768340000000  0.5089570000000  0.5156130000000 1.0
C      1  0.4998040000000  0.4642490000000  0.5662880000000 1.0
C      1  0.4426670000000  0.5001240000000  0.5605080000000 1.0
C      1  0.5106770000000  0.5715540000000  0.5186500000000 1.0
C      1  0.4833030000000  0.4493550000000  0.4655840000000 1.0
C      1  0.4704960000000  0.4351430000000  0.4928170000000 1.0
C      1  0.5360980000000  0.4485800000000  0.4831830000000 1.0
C      1  0.4225680000000  0.4816940000000  0.5161820000000 1.0
C      1  0.5751270000000  0.4989980000000  0.5428660000000 1.0
C      1  0.4177310000000  0.5116420000000  0.4688070000000 1.0
C      1  0.5659800000000  0.4552100000000  0.5236900000000 1.0
END
