TITL C-2778432-5617-325 -0.00375435977762385 125000 -842.872435246704 0 0 146 (C1) n - 1
REM
REM in /home/nfs/bkarasulu/CARBON/AIRSS/Generating-Clusters/REBO/Only-C1/SD-CG/HFTN-CG
REM
REM
REM
REM
REM
REM ./C.cell (11c1c37f851c82e70ff6c80c92926a4b)
REM
REM compiler GCC version 9.2.1 20190827 (Red Hat 9.2.1-1)
REM options -cpp -mtune=generic -march=x86-64 -g -O0 -fpre-include=/usr/include/finclude/math-vector-fortran.h
REM seed 2022805249 1189727296 -179864075 -421528714 1084466878 -1464302244 844252328 -538817759 1801426180 1461730771 -1304271506 924393937 -941409029 1396996686 1068695259 -597891059 -921583909 604682098 1281446167 -783025587 201240172 -1660433433 1489524677 57908459 2123993232 1154799746 -415203484 85070896 -1339834980 1789021446 -605906131 -1369257260 176291690
REM
CELL 1.54180   50.00000   50.00000   50.00000   90.00000   90.00000   90.00000
LATT -1
SFAC C  
C      1  0.4884250000000  0.4952400000000  0.4149010000000 1.0
C      1  0.4760630000000  0.5489550000000  0.4277260000000 1.0
C      1  0.4915510000000  0.5675570000000  0.4687020000000 1.0
C      1  0.4900150000000  0.4143310000000  0.4722020000000 1.0
C      1  0.4728070000000  0.5064940000000  0.5751180000000 1.0
C      1  0.4592570000000  0.5539370000000  0.5793500000000 1.0
C      1  0.5741130000000  0.5186560000000  0.5089590000000 1.0
C      1  0.4872620000000  0.4204590000000  0.4386920000000 1.0
C      1  0.4932200000000  0.5740150000000  0.4215590000000 1.0
C      1  0.4558500000000  0.4021790000000  0.5269120000000 1.0
C      1  0.4434050000000  0.4343070000000  0.4519640000000 1.0
C      1  0.4499970000000  0.4844410000000  0.4138940000000 1.0
C      1  0.5893730000000  0.5475650000000  0.4540670000000 1.0
C      1  0.5380940000000  0.5027380000000  0.4767230000000 1.0
C      1  0.5718790000000  0.4412620000000  0.4978770000000 1.0
C      1  0.5173840000000  0.5607190000000  0.5878070000000 1.0
C      1  0.5976810000000  0.4970830000000  0.5193370000000 1.0
C      1  0.5380970000000  0.5892380000000  0.5277630000000 1.0
C      1  0.4129370000000  0.5387450000000  0.5246730000000 1.0
C      1  0.5487120000000  0.5591230000000  0.5352210000000 1.0
C      1  0.5604580000000  0.4886300000000  0.5196980000000 1.0
C      1  0.5293050000000  0.5410420000000  0.5173750000000 1.0
C      1  0.5169400000000  0.5227090000000  0.4094880000000 1.0
C      1  0.4794710000000  0.5061230000000  0.6096070000000 1.0
C      1  0.4994520000000  0.5458590000000  0.4914510000000 1.0
C      1  0.5454560000000  0.4207220000000  0.4988600000000 1.0
C      1  0.5117210000000  0.4868380000000  0.4494720000000 1.0
C      1  0.4705440000000  0.4742840000000  0.6077460000000 1.0
C      1  0.4763040000000  0.5543710000000  0.5151520000000 1.0
C      1  0.5352740000000  0.4986190000000  0.3946310000000 1.0
C      1  0.4629100000000  0.4751840000000  0.4799030000000 1.0
C      1  0.5098250000000  0.4114710000000  0.5319390000000 1.0
C      1  0.5378820000000  0.4444980000000  0.5183950000000 1.0
C      1  0.5885470000000  0.4354710000000  0.5225650000000 1.0
C      1  0.4617620000000  0.4578340000000  0.4134550000000 1.0
C      1  0.5306420000000  0.5954290000000  0.4891780000000 1.0
C      1  0.5037200000000  0.4309890000000  0.5593530000000 1.0
C      1  0.5970690000000  0.5213650000000  0.4448400000000 1.0
C      1  0.5375180000000  0.4797630000000  0.5889930000000 1.0
C      1  0.4611690000000  0.5257830000000  0.4813510000000 1.0
C      1  0.5210790000000  0.4536330000000  0.5437650000000 1.0
C      1  0.4058770000000  0.5054900000000  0.5259720000000 1.0
C      1  0.5423230000000  0.5453690000000  0.5852500000000 1.0
C      1  0.4415550000000  0.5016490000000  0.5887200000000 1.0
C      1  0.5516460000000  0.5152430000000  0.4269600000000 1.0
C      1  0.5185870000000  0.4511510000000  0.5831060000000 1.0
C      1  0.4775520000000  0.5972730000000  0.4911050000000 1.0
C      1  0.5467340000000  0.4590150000000  0.5652530000000 1.0
C      1  0.5102080000000  0.6057200000000  0.5389980000000 1.0
C      1  0.5598180000000  0.4593850000000  0.5366980000000 1.0
C      1  0.5628120000000  0.5616840000000  0.4408320000000 1.0
C      1  0.4300250000000  0.5600580000000  0.5684510000000 1.0
C      1  0.4774810000000  0.4896790000000  0.4456290000000 1.0
C      1  0.4615560000000  0.4315510000000  0.5257470000000 1.0
C      1  0.4976200000000  0.5356950000000  0.5299090000000 1.0
C      1  0.4165540000000  0.4508460000000  0.4944000000000 1.0
C      1  0.5907860000000  0.5021000000000  0.4654260000000 1.0
C      1  0.4887510000000  0.4941710000000  0.4817340000000 1.0
C      1  0.5165960000000  0.4636340000000  0.4259900000000 1.0
C      1  0.5083860000000  0.5723120000000  0.5304170000000 1.0
C      1  0.5231590000000  0.4215390000000  0.4762070000000 1.0
C      1  0.4457810000000  0.4931660000000  0.4451440000000 1.0
C      1  0.5394520000000  0.5141480000000  0.5907770000000 1.0
C      1  0.5290510000000  0.4712740000000  0.3973460000000 1.0
C      1  0.5276650000000  0.5103580000000  0.5254710000000 1.0
C      1  0.4181740000000  0.5085800000000  0.5713240000000 1.0
C      1  0.5325480000000  0.5493120000000  0.4845460000000 1.0
C      1  0.5794620000000  0.4921220000000  0.5481040000000 1.0
C      1  0.4488870000000  0.4448120000000  0.5016510000000 1.0
C      1  0.4263000000000  0.5501500000000  0.4988340000000 1.0
C      1  0.5573490000000  0.4974890000000  0.5673450000000 1.0
C      1  0.5643770000000  0.5578700000000  0.4749580000000 1.0
C      1  0.4489510000000  0.5609300000000  0.4438290000000 1.0
C      1  0.5174050000000  0.4639330000000  0.5045490000000 1.0
C      1  0.5976140000000  0.4749150000000  0.4708160000000 1.0
C      1  0.5095340000000  0.5185770000000  0.4737060000000 1.0
C      1  0.4706950000000  0.3856640000000  0.5143200000000 1.0
C      1  0.5612390000000  0.4357340000000  0.4475170000000 1.0
C      1  0.5120190000000  0.4518100000000  0.4760980000000 1.0
C      1  0.4605570000000  0.5498950000000  0.5452760000000 1.0
C      1  0.4866750000000  0.4601580000000  0.4340300000000 1.0
C      1  0.5128950000000  0.5816840000000  0.4380030000000 1.0
C      1  0.4506880000000  0.5694520000000  0.5008780000000 1.0
C      1  0.5371520000000  0.4208510000000  0.4470530000000 1.0
C      1  0.4009320000000  0.4765960000000  0.4820950000000 1.0
C      1  0.4597450000000  0.5766320000000  0.4705430000000 1.0
C      1  0.4588960000000  0.5294130000000  0.5965190000000 1.0
C      1  0.5153920000000  0.4296000000000  0.4266980000000 1.0
C      1  0.5938140000000  0.4684550000000  0.5010760000000 1.0
C      1  0.4853060000000  0.4555620000000  0.4649850000000 1.0
C      1  0.4431280000000  0.4779150000000  0.5070700000000 1.0
C      1  0.4528820000000  0.5191690000000  0.5356350000000 1.0
C      1  0.4237770000000  0.5172290000000  0.4537100000000 1.0
C      1  0.4840260000000  0.5857050000000  0.5483830000000 1.0
C      1  0.4606100000000  0.4305800000000  0.4292300000000 1.0
C      1  0.4947470000000  0.3970700000000  0.5015940000000 1.0
C      1  0.4875480000000  0.4550860000000  0.5162570000000 1.0
C      1  0.5003130000000  0.4283980000000  0.5060420000000 1.0
C      1  0.4313180000000  0.4556480000000  0.5798870000000 1.0
C      1  0.4680040000000  0.5162330000000  0.5072860000000 1.0
C      1  0.5047730000000  0.5966060000000  0.5065410000000 1.0
C      1  0.4765570000000  0.5381450000000  0.4600460000000 1.0
C      1  0.5275090000000  0.4399790000000  0.3964890000000 1.0
C      1  0.5653620000000  0.5047580000000  0.3967770000000 1.0
C      1  0.4973310000000  0.5189150000000  0.5574530000000 1.0
C      1  0.4146990000000  0.4853650000000  0.4552450000000 1.0
C      1  0.4351620000000  0.4617780000000  0.4681270000000 1.0
C      1  0.5619810000000  0.4569050000000  0.4715990000000 1.0
C      1  0.4265560000000  0.5309130000000  0.5538030000000 1.0
C      1  0.4462250000000  0.4590180000000  0.5505620000000 1.0
C      1  0.5123610000000  0.5912820000000  0.4666940000000 1.0
C      1  0.5221530000000  0.5149470000000  0.4422850000000 1.0
C      1  0.4396730000000  0.5328740000000  0.4316370000000 1.0
C      1  0.4543610000000  0.5160480000000  0.4136000000000 1.0
C      1  0.5553440000000  0.5777570000000  0.5006480000000 1.0
C      1  0.4150750000000  0.4893490000000  0.5046550000000 1.0
C      1  0.5572070000000  0.5528060000000  0.5637110000000 1.0
C      1  0.5389570000000  0.5452200000000  0.4229580000000 1.0
C      1  0.5333760000000  0.4888310000000  0.5041110000000 1.0
C      1  0.5316760000000  0.5594940000000  0.4522930000000 1.0
C      1  0.4545640000000  0.4877700000000  0.5341180000000 1.0
C      1  0.4326390000000  0.5304060000000  0.4790460000000 1.0
C      1  0.5828670000000  0.5136330000000  0.4218930000000 1.0
C      1  0.4631550000000  0.4348100000000  0.4771490000000 1.0
C      1  0.4577180000000  0.5862810000000  0.5297900000000 1.0
C      1  0.4817030000000  0.4740910000000  0.5408400000000 1.0
C      1  0.5682390000000  0.5479630000000  0.5115930000000 1.0
C      1  0.4979720000000  0.4767410000000  0.5902240000000 1.0
C      1  0.4955480000000  0.5378970000000  0.5837070000000 1.0
C      1  0.4753810000000  0.4430470000000  0.5522570000000 1.0
C      1  0.5376330000000  0.4048890000000  0.5237970000000 1.0
C      1  0.5674420000000  0.5109070000000  0.4798540000000 1.0
C      1  0.5064670000000  0.4799960000000  0.5584440000000 1.0
C      1  0.5357430000000  0.4715890000000  0.4682000000000 1.0
C      1  0.5088080000000  0.5087140000000  0.5943750000000 1.0
C      1  0.5265520000000  0.5032160000000  0.5546430000000 1.0
C      1  0.5931160000000  0.4630860000000  0.5358350000000 1.0
C      1  0.4133270000000  0.4644660000000  0.5547370000000 1.0
C      1  0.4900260000000  0.4786290000000  0.3944680000000 1.0
C      1  0.4313150000000  0.5657220000000  0.5354990000000 1.0
C      1  0.4870130000000  0.5698090000000  0.5748700000000 1.0
C      1  0.4852080000000  0.5264270000000  0.4082840000000 1.0
C      1  0.4426010000000  0.4726200000000  0.5989420000000 1.0
C      1  0.5883620000000  0.4537920000000  0.4499260000000 1.0
C      1  0.4984830000000  0.5072640000000  0.5104250000000 1.0
C      1  0.4056750000000  0.4918470000000  0.5517890000000 1.0
END
