TITL C-2778430-5657-978 -0.00589582213341363 125000 -458.658936830033 0 0 82 (C1) n - 1
REM
REM in /home/nfs/bkarasulu/CARBON/AIRSS/Generating-Clusters/REBO/Only-C1/SD-CG/HFTN-CG
REM
REM
REM
REM
REM
REM ./C.cell (11c1c37f851c82e70ff6c80c92926a4b)
REM
REM compiler GCC version 9.2.1 20190827 (Red Hat 9.2.1-1)
REM options -cpp -mtune=generic -march=x86-64 -g -O0 -fpre-include=/usr/include/finclude/math-vector-fortran.h
REM seed 1355908487 -640604089 -1532245851 -1700669496 211611203 1618746326 1733547912 449316153 -1919260378 -1405915144 -1650745191 1217400478 1793403226 -1716797570 -1454217806 49701802 732551075 212509981 -1016354318 184484164 410185957 -881618905 -1578439567 -1220413126 -232407745 938108340 740769329 1586553184 1887042687 -201036577 -1221745799 1741247123 557583004
REM
CELL 1.54180   50.00000   50.00000   50.00000   90.00000   90.00000   90.00000
LATT -1
SFAC C  
C      1  0.4799080000000  0.4636940000000  0.4455980000000 1.0
C      1  0.5051010000000  0.5270260000000  0.4916800000000 1.0
C      1  0.4278560000000  0.5195360000000  0.5100940000000 1.0
C      1  0.4768110000000  0.5643470000000  0.4378980000000 1.0
C      1  0.4945240000000  0.4267620000000  0.4885560000000 1.0
C      1  0.4514390000000  0.4304430000000  0.5057360000000 1.0
C      1  0.5050610000000  0.4792160000000  0.5824720000000 1.0
C      1  0.5635360000000  0.4730800000000  0.5288780000000 1.0
C      1  0.5331190000000  0.4447410000000  0.4565530000000 1.0
C      1  0.4698650000000  0.4159270000000  0.4927940000000 1.0
C      1  0.5164000000000  0.4798400000000  0.4993810000000 1.0
C      1  0.5263570000000  0.5251950000000  0.4607500000000 1.0
C      1  0.4899360000000  0.5102760000000  0.4675890000000 1.0
C      1  0.4971030000000  0.4823350000000  0.4225040000000 1.0
C      1  0.5569840000000  0.5336410000000  0.4639470000000 1.0
C      1  0.5153780000000  0.4694370000000  0.4709890000000 1.0
C      1  0.5899910000000  0.4792820000000  0.5236270000000 1.0
C      1  0.4255380000000  0.4716850000000  0.4811260000000 1.0
C      1  0.4649780000000  0.5297000000000  0.4917980000000 1.0
C      1  0.5565510000000  0.5067550000000  0.4422850000000 1.0
C      1  0.4917310000000  0.4577580000000  0.5703590000000 1.0
C      1  0.5811810000000  0.5131270000000  0.5428580000000 1.0
C      1  0.5485340000000  0.4247730000000  0.4776060000000 1.0
C      1  0.4693600000000  0.4964310000000  0.4473210000000 1.0
C      1  0.4506250000000  0.4782180000000  0.5525240000000 1.0
C      1  0.4658190000000  0.4952820000000  0.5350020000000 1.0
C      1  0.4220240000000  0.4989490000000  0.4668400000000 1.0
C      1  0.5896120000000  0.5263310000000  0.5212620000000 1.0
C      1  0.4433460000000  0.5428860000000  0.4688070000000 1.0
C      1  0.5362870000000  0.5199440000000  0.4951010000000 1.0
C      1  0.5415650000000  0.5563600000000  0.5106620000000 1.0
C      1  0.5299020000000  0.4914520000000  0.4276210000000 1.0
C      1  0.4997130000000  0.4422410000000  0.4626500000000 1.0
C      1  0.5108770000000  0.4759340000000  0.5386100000000 1.0
C      1  0.4642470000000  0.4549980000000  0.5230770000000 1.0
C      1  0.4891910000000  0.5523080000000  0.5007180000000 1.0
C      1  0.4440040000000  0.5419200000000  0.4395900000000 1.0
C      1  0.4646520000000  0.4497600000000  0.5544490000000 1.0
C      1  0.4895010000000  0.4692060000000  0.5165540000000 1.0
C      1  0.5417870000000  0.5222500000000  0.5719490000000 1.0
C      1  0.5649460000000  0.5367310000000  0.5023790000000 1.0
C      1  0.4570140000000  0.5677150000000  0.4828900000000 1.0
C      1  0.5509070000000  0.5079300000000  0.5444250000000 1.0
C      1  0.4240390000000  0.5230440000000  0.4824900000000 1.0
C      1  0.5221910000000  0.5513840000000  0.5285670000000 1.0
C      1  0.4546580000000  0.4972510000000  0.4904830000000 1.0
C      1  0.5338120000000  0.4754880000000  0.5784270000000 1.0
C      1  0.4941980000000  0.5158650000000  0.4229800000000 1.0
C      1  0.5586530000000  0.4413960000000  0.5323360000000 1.0
C      1  0.4322640000000  0.4901550000000  0.5143580000000 1.0
C      1  0.5143780000000  0.5269670000000  0.4372930000000 1.0
C      1  0.5529330000000  0.4718080000000  0.4839070000000 1.0
C      1  0.4542640000000  0.4734520000000  0.4658910000000 1.0
C      1  0.4813340000000  0.5233310000000  0.5629750000000 1.0
C      1  0.5383560000000  0.4705750000000  0.5504080000000 1.0
C      1  0.5100520000000  0.5633690000000  0.4759680000000 1.0
C      1  0.5382570000000  0.5571840000000  0.4807330000000 1.0
C      1  0.4717760000000  0.5342940000000  0.4213460000000 1.0
C      1  0.5977990000000  0.5400690000000  0.4941370000000 1.0
C      1  0.5210630000000  0.5232260000000  0.5893690000000 1.0
C      1  0.4535900000000  0.5265440000000  0.5566950000000 1.0
C      1  0.5178190000000  0.5044930000000  0.5453720000000 1.0
C      1  0.4857700000000  0.4944990000000  0.4970530000000 1.0
C      1  0.4752840000000  0.5225570000000  0.5234810000000 1.0
C      1  0.4330630000000  0.4580030000000  0.5096720000000 1.0
C      1  0.4816090000000  0.5693310000000  0.4653680000000 1.0
C      1  0.5019190000000  0.5304090000000  0.5381790000000 1.0
C      1  0.4867980000000  0.5686960000000  0.5228460000000 1.0
C      1  0.4492510000000  0.5669730000000  0.5097150000000 1.0
C      1  0.4465890000000  0.5395710000000  0.5260220000000 1.0
C      1  0.5084530000000  0.4905690000000  0.4526830000000 1.0
C      1  0.4954830000000  0.4395510000000  0.5423890000000 1.0
C      1  0.5489150000000  0.4741140000000  0.4499330000000 1.0
C      1  0.5393470000000  0.4260350000000  0.5289920000000 1.0
C      1  0.4529760000000  0.5623990000000  0.4147500000000 1.0
C      1  0.5127720000000  0.4365410000000  0.5132140000000 1.0
C      1  0.5630230000000  0.5013660000000  0.4750870000000 1.0
C      1  0.4375900000000  0.5012140000000  0.4425930000000 1.0
C      1  0.4384020000000  0.5029300000000  0.5634370000000 1.0
C      1  0.5401090000000  0.4479490000000  0.4956780000000 1.0
C      1  0.5405780000000  0.4938910000000  0.5147620000000 1.0
C      1  0.4973710000000  0.5080850000000  0.5829020000000 1.0
END
