TITL C-2778429-3646-860 -0.000598939862462387 125000 -665.013539272785 0 0 113 (C1) n - 1
REM
REM in /home/nfs/bkarasulu/CARBON/AIRSS/Generating-Clusters/REBO/Only-C1/SD-CG/HFTN-CG
REM
REM
REM
REM
REM
REM ./C.cell (11c1c37f851c82e70ff6c80c92926a4b)
REM
REM compiler GCC version 9.2.1 20190827 (Red Hat 9.2.1-1)
REM options -cpp -mtune=generic -march=x86-64 -g -O0 -fpre-include=/usr/include/finclude/math-vector-fortran.h
REM seed 1257466088 98152884 -492527925 100716507 2021849694 -2085069226 -1606239920 2030503348 -416744829 -558080651 1478642773 -118198110 1829427727 2108945185 -1013445362 1553730094 -1499574657 -328295653 -1056683175 279186888 1499688632 500873463 -383255100 -196194240 252077804 1496263029 1030010501 1324746766 -142429376 186841958 543891375 -1159432596 -486559429
REM
CELL 1.54180   50.00000   50.00000   50.00000   90.00000   90.00000   90.00000
LATT -1
SFAC C  
C      1  0.4511930000000  0.5045770000000  0.4932030000000 1.0
C      1  0.4723240000000  0.4510570000000  0.4939320000000 1.0
C      1  0.4262450000000  0.5010650000000  0.5241940000000 1.0
C      1  0.5730510000000  0.5118110000000  0.5515530000000 1.0
C      1  0.4576360000000  0.5090530000000  0.4282790000000 1.0
C      1  0.4831360000000  0.4862360000000  0.4488340000000 1.0
C      1  0.4563350000000  0.5193560000000  0.5716120000000 1.0
C      1  0.4758140000000  0.4704370000000  0.5219380000000 1.0
C      1  0.5036940000000  0.4014490000000  0.4556710000000 1.0
C      1  0.5332660000000  0.5168980000000  0.4615400000000 1.0
C      1  0.4162150000000  0.5429330000000  0.4855150000000 1.0
C      1  0.4504270000000  0.4483420000000  0.5272370000000 1.0
C      1  0.5292870000000  0.4606240000000  0.5465020000000 1.0
C      1  0.4930440000000  0.5420360000000  0.4996360000000 1.0
C      1  0.5915390000000  0.5128970000000  0.5309690000000 1.0
C      1  0.5070750000000  0.4044880000000  0.5123240000000 1.0
C      1  0.5211220000000  0.5986520000000  0.5737810000000 1.0
C      1  0.5336390000000  0.4396990000000  0.5798640000000 1.0
C      1  0.5249940000000  0.4761290000000  0.4153830000000 1.0
C      1  0.5046730000000  0.4956850000000  0.4893420000000 1.0
C      1  0.5542300000000  0.5676210000000  0.5418300000000 1.0
C      1  0.5236950000000  0.5496940000000  0.4332550000000 1.0
C      1  0.5044750000000  0.4231830000000  0.5746090000000 1.0
C      1  0.5823220000000  0.5249500000000  0.5019530000000 1.0
C      1  0.5079880000000  0.5105540000000  0.4523620000000 1.0
C      1  0.4870730000000  0.4019020000000  0.4779770000000 1.0
C      1  0.5198400000000  0.5787600000000  0.4739960000000 1.0
C      1  0.5184540000000  0.4471930000000  0.4799960000000 1.0
C      1  0.4795200000000  0.4971450000000  0.5366370000000 1.0
C      1  0.4097150000000  0.4531280000000  0.4918780000000 1.0
C      1  0.4247820000000  0.5319250000000  0.5158030000000 1.0
C      1  0.4609950000000  0.4196470000000  0.5289620000000 1.0
C      1  0.5700760000000  0.5458420000000  0.5214460000000 1.0
C      1  0.4781790000000  0.5914060000000  0.5531370000000 1.0
C      1  0.5780880000000  0.5332160000000  0.4711220000000 1.0
C      1  0.5520600000000  0.5346450000000  0.5482710000000 1.0
C      1  0.5015670000000  0.4676480000000  0.5017580000000 1.0
C      1  0.4675990000000  0.4945300000000  0.5652420000000 1.0
C      1  0.4330940000000  0.5672280000000  0.4747790000000 1.0
C      1  0.5489810000000  0.5403680000000  0.4681020000000 1.0
C      1  0.4526270000000  0.4619150000000  0.4104850000000 1.0
C      1  0.4280960000000  0.4435690000000  0.4730740000000 1.0
C      1  0.4781460000000  0.4187260000000  0.5535520000000 1.0
C      1  0.4499230000000  0.5531530000000  0.4494920000000 1.0
C      1  0.4801270000000  0.4471800000000  0.5705650000000 1.0
C      1  0.5727750000000  0.4362160000000  0.5211650000000 1.0
C      1  0.5440870000000  0.5656010000000  0.4795600000000 1.0
C      1  0.5797690000000  0.4532480000000  0.4604780000000 1.0
C      1  0.5743890000000  0.4794160000000  0.4520700000000 1.0
C      1  0.4634960000000  0.5842330000000  0.5281950000000 1.0
C      1  0.4934460000000  0.5969400000000  0.5793670000000 1.0
C      1  0.4855090000000  0.5709510000000  0.5066900000000 1.0
C      1  0.4169200000000  0.4951470000000  0.4527560000000 1.0
C      1  0.4100260000000  0.4799400000000  0.5112300000000 1.0
C      1  0.5863100000000  0.4996740000000  0.4363500000000 1.0
C      1  0.5528480000000  0.4171190000000  0.5270100000000 1.0
C      1  0.5089060000000  0.4626510000000  0.5739200000000 1.0
C      1  0.4593220000000  0.4677940000000  0.4460290000000 1.0
C      1  0.4727370000000  0.5330320000000  0.4753850000000 1.0
C      1  0.5752770000000  0.5258510000000  0.4416990000000 1.0
C      1  0.5246890000000  0.5259300000000  0.5562030000000 1.0
C      1  0.4411510000000  0.4790620000000  0.5398480000000 1.0
C      1  0.5653180000000  0.4420080000000  0.4823010000000 1.0
C      1  0.4729670000000  0.4012700000000  0.5087310000000 1.0
C      1  0.5102830000000  0.4717640000000  0.4444990000000 1.0
C      1  0.5015460000000  0.5344800000000  0.4211520000000 1.0
C      1  0.4784940000000  0.5705400000000  0.4480720000000 1.0
C      1  0.4804820000000  0.5265380000000  0.4433930000000 1.0
C      1  0.4317360000000  0.4804900000000  0.4389050000000 1.0
C      1  0.5471410000000  0.4196710000000  0.4795800000000 1.0
C      1  0.5107570000000  0.5122050000000  0.4060740000000 1.0
C      1  0.4638140000000  0.5798820000000  0.5790390000000 1.0
C      1  0.5519330000000  0.4911430000000  0.4673320000000 1.0
C      1  0.5076350000000  0.4852210000000  0.5941030000000 1.0
C      1  0.4545030000000  0.5353260000000  0.5494130000000 1.0
C      1  0.5245210000000  0.4780390000000  0.4709640000000 1.0
C      1  0.5337340000000  0.5908190000000  0.5501550000000 1.0
C      1  0.4777650000000  0.5007740000000  0.4760310000000 1.0
C      1  0.4194460000000  0.4509520000000  0.5218510000000 1.0
C      1  0.4576430000000  0.5884210000000  0.4637080000000 1.0
C      1  0.4408360000000  0.5264480000000  0.4461500000000 1.0
C      1  0.4581080000000  0.4664970000000  0.5657960000000 1.0
C      1  0.5340570000000  0.4268480000000  0.5482740000000 1.0
C      1  0.5396180000000  0.5069350000000  0.4130340000000 1.0
C      1  0.5379870000000  0.4080550000000  0.5040990000000 1.0
C      1  0.5079070000000  0.4094280000000  0.5433220000000 1.0
C      1  0.5610040000000  0.4601790000000  0.5075630000000 1.0
C      1  0.4282300000000  0.5155220000000  0.4743520000000 1.0
C      1  0.5099010000000  0.5112630000000  0.6001520000000 1.0
C      1  0.4531240000000  0.5433770000000  0.4998130000000 1.0
C      1  0.4943810000000  0.4873870000000  0.4048570000000 1.0
C      1  0.5584480000000  0.5064560000000  0.4931730000000 1.0
C      1  0.4529380000000  0.5758320000000  0.4994670000000 1.0
C      1  0.4670790000000  0.4876350000000  0.4122300000000 1.0
C      1  0.5495060000000  0.5312720000000  0.4280340000000 1.0
C      1  0.5296590000000  0.5896010000000  0.5196730000000 1.0
C      1  0.4953050000000  0.4296230000000  0.4927920000000 1.0
C      1  0.5544800000000  0.5715700000000  0.5074990000000 1.0
C      1  0.4202170000000  0.5525980000000  0.5394760000000 1.0
C      1  0.5089920000000  0.5878680000000  0.4994390000000 1.0
C      1  0.5257310000000  0.4246350000000  0.4555020000000 1.0
C      1  0.5124070000000  0.5214430000000  0.5048890000000 1.0
C      1  0.5175730000000  0.5311710000000  0.5830760000000 1.0
C      1  0.5251670000000  0.4458230000000  0.4313770000000 1.0
C      1  0.4618150000000  0.5191480000000  0.5221560000000 1.0
C      1  0.5650240000000  0.4902760000000  0.5681940000000 1.0
C      1  0.4542260000000  0.4508990000000  0.4699540000000 1.0
C      1  0.4477590000000  0.5660640000000  0.5522530000000 1.0
C      1  0.5397010000000  0.4748370000000  0.5215080000000 1.0
C      1  0.5484730000000  0.4695670000000  0.5725610000000 1.0
C      1  0.5075890000000  0.5693340000000  0.4498890000000 1.0
C      1  0.5082650000000  0.5091830000000  0.5424080000000 1.0
C      1  0.5367560000000  0.5023290000000  0.5121820000000 1.0
END
