TITL C-2778422-5617-389 0.00467991007702268 125000 -1086.7557449417 0 0 185 (C1) n - 1
REM
REM in /home/nfs/bkarasulu/CARBON/AIRSS/Generating-Clusters/REBO/Only-C1/SD-CG/HFTN-CG
REM
REM
REM
REM
REM
REM ./C.cell (11c1c37f851c82e70ff6c80c92926a4b)
REM
REM compiler GCC version 9.2.1 20190827 (Red Hat 9.2.1-1)
REM options -cpp -mtune=generic -march=x86-64 -g -O0 -fpre-include=/usr/include/finclude/math-vector-fortran.h
REM seed 1529919999 -1431026325 596196991 -909105013 437673448 -848418230 -263153042 329191903 -431703643 390490771 262486279 226459386 -935911106 -1743224607 -182704734 -1323430031 -1721140632 1117413289 -692428079 -1456143106 783692091 -1578740233 -1292845301 1064858932 -2106937637 -1128796313 -1423840958 739769674 777873485 -1666284403 -141854595 2063670826 -1857968477
REM
CELL 1.54180   50.00000   50.00000   50.00000   90.00000   90.00000   90.00000
LATT -1
SFAC C  
C      1  0.5540220000000  0.5441620000000  0.4266470000000 1.0
C      1  0.5459180000000  0.5760080000000  0.5968660000000 1.0
C      1  0.5120130000000  0.5272330000000  0.4931100000000 1.0
C      1  0.5314180000000  0.4326570000000  0.5771870000000 1.0
C      1  0.5077810000000  0.5739360000000  0.4197870000000 1.0
C      1  0.5559330000000  0.4708380000000  0.6003710000000 1.0
C      1  0.5417290000000  0.5591260000000  0.4513590000000 1.0
C      1  0.5855990000000  0.5712080000000  0.4888090000000 1.0
C      1  0.4753870000000  0.4280920000000  0.4194570000000 1.0
C      1  0.5113000000000  0.4712390000000  0.6080070000000 1.0
C      1  0.4893860000000  0.4752700000000  0.4823270000000 1.0
C      1  0.5523600000000  0.5007630000000  0.4697500000000 1.0
C      1  0.4135740000000  0.4566250000000  0.4657360000000 1.0
C      1  0.5075760000000  0.5188600000000  0.5224680000000 1.0
C      1  0.5648140000000  0.4440670000000  0.5081320000000 1.0
C      1  0.4758120000000  0.5136790000000  0.5333290000000 1.0
C      1  0.5435090000000  0.6191510000000  0.5209240000000 1.0
C      1  0.4548350000000  0.4997330000000  0.4453790000000 1.0
C      1  0.4756700000000  0.6103490000000  0.5260800000000 1.0
C      1  0.5238540000000  0.5517870000000  0.4125980000000 1.0
C      1  0.4511970000000  0.4240570000000  0.4369320000000 1.0
C      1  0.5600410000000  0.5832770000000  0.5527670000000 1.0
C      1  0.5141140000000  0.4940070000000  0.5847710000000 1.0
C      1  0.4239710000000  0.5463580000000  0.5367400000000 1.0
C      1  0.5370320000000  0.5483260000000  0.4834320000000 1.0
C      1  0.5417900000000  0.4905760000000  0.3885140000000 1.0
C      1  0.5450340000000  0.4670740000000  0.5447910000000 1.0
C      1  0.4404450000000  0.5104810000000  0.5921260000000 1.0
C      1  0.5002970000000  0.5664820000000  0.4761110000000 1.0
C      1  0.4469930000000  0.5977110000000  0.4830230000000 1.0
C      1  0.5238280000000  0.5352020000000  0.5465200000000 1.0
C      1  0.5293720000000  0.5137020000000  0.4330540000000 1.0
C      1  0.4713680000000  0.5272780000000  0.4031970000000 1.0
C      1  0.4914540000000  0.4551350000000  0.4544990000000 1.0
C      1  0.5027040000000  0.5825900000000  0.5359340000000 1.0
C      1  0.4550060000000  0.5534180000000  0.4176700000000 1.0
C      1  0.5106240000000  0.5539000000000  0.4541880000000 1.0
C      1  0.4687340000000  0.4361250000000  0.4913030000000 1.0
C      1  0.5969540000000  0.5209140000000  0.5147050000000 1.0
C      1  0.4365330000000  0.5710650000000  0.4391910000000 1.0
C      1  0.4388150000000  0.4614040000000  0.4439250000000 1.0
C      1  0.5061290000000  0.4816850000000  0.5590900000000 1.0
C      1  0.4510390000000  0.5863650000000  0.5592500000000 1.0
C      1  0.4357220000000  0.4779880000000  0.4178610000000 1.0
C      1  0.5615850000000  0.5926870000000  0.4822920000000 1.0
C      1  0.5765170000000  0.5441070000000  0.4727760000000 1.0
C      1  0.4731470000000  0.4296070000000  0.4609030000000 1.0
C      1  0.4706240000000  0.4721220000000  0.4373020000000 1.0
C      1  0.4329680000000  0.5774760000000  0.5390790000000 1.0
C      1  0.4724830000000  0.5663910000000  0.5737960000000 1.0
C      1  0.4877280000000  0.4013340000000  0.4597970000000 1.0
C      1  0.4339960000000  0.4448200000000  0.5417040000000 1.0
C      1  0.5284140000000  0.4185540000000  0.4358700000000 1.0
C      1  0.5488950000000  0.4411740000000  0.4264090000000 1.0
C      1  0.4601410000000  0.4788920000000  0.4999400000000 1.0
C      1  0.5746960000000  0.4422370000000  0.4471710000000 1.0
C      1  0.5564250000000  0.6085700000000  0.5423830000000 1.0
C      1  0.4763460000000  0.5198740000000  0.4530530000000 1.0
C      1  0.4909490000000  0.4319830000000  0.5085940000000 1.0
C      1  0.3932230000000  0.4789220000000  0.4808680000000 1.0
C      1  0.4615310000000  0.5267930000000  0.4915490000000 1.0
C      1  0.5237130000000  0.3895900000000  0.5284430000000 1.0
C      1  0.4059360000000  0.5191750000000  0.4435530000000 1.0
C      1  0.5216100000000  0.4631980000000  0.4825650000000 1.0
C      1  0.5113940000000  0.4017800000000  0.4810530000000 1.0
C      1  0.4510590000000  0.4776670000000  0.4712420000000 1.0
C      1  0.5152360000000  0.4494610000000  0.4307760000000 1.0
C      1  0.4384280000000  0.5277960000000  0.4063520000000 1.0
C      1  0.4262590000000  0.4152200000000  0.4456390000000 1.0
C      1  0.4363250000000  0.5608860000000  0.4940320000000 1.0
C      1  0.4712330000000  0.5364380000000  0.5898780000000 1.0
C      1  0.4544750000000  0.4250780000000  0.5550270000000 1.0
C      1  0.5236530000000  0.4330870000000  0.4861290000000 1.0
C      1  0.4755710000000  0.3850970000000  0.4844000000000 1.0
C      1  0.5568510000000  0.4250430000000  0.5554660000000 1.0
C      1  0.4993990000000  0.5779610000000  0.5636860000000 1.0
C      1  0.4698290000000  0.4025020000000  0.5489970000000 1.0
C      1  0.5807360000000  0.5253950000000  0.4359820000000 1.0
C      1  0.4426780000000  0.5507360000000  0.4657940000000 1.0
C      1  0.5236460000000  0.5146880000000  0.4666540000000 1.0
C      1  0.4091930000000  0.5120850000000  0.4961660000000 1.0
C      1  0.5402410000000  0.4587010000000  0.4010710000000 1.0
C      1  0.4589470000000  0.5544580000000  0.5198700000000 1.0
C      1  0.5014680000000  0.5299430000000  0.4372880000000 1.0
C      1  0.5654590000000  0.5451610000000  0.5111810000000 1.0
C      1  0.4998660000000  0.4862240000000  0.4308070000000 1.0
C      1  0.5592900000000  0.4128430000000  0.5044750000000 1.0
C      1  0.4552180000000  0.5883490000000  0.4569750000000 1.0
C      1  0.5789490000000  0.4961250000000  0.4196380000000 1.0
C      1  0.4287360000000  0.4937910000000  0.5416060000000 1.0
C      1  0.6031560000000  0.5418080000000  0.4922040000000 1.0
C      1  0.5326120000000  0.4384000000000  0.5376820000000 1.0
C      1  0.5753660000000  0.4749120000000  0.5555080000000 1.0
C      1  0.4427400000000  0.4440300000000  0.5089130000000 1.0
C      1  0.5469170000000  0.4873710000000  0.5202710000000 1.0
C      1  0.3990460000000  0.5463300000000  0.5182250000000 1.0
C      1  0.4430330000000  0.4780500000000  0.5833760000000 1.0
C      1  0.4850730000000  0.5827760000000  0.4430590000000 1.0
C      1  0.5085060000000  0.4944460000000  0.3899500000000 1.0
C      1  0.5813100000000  0.5419640000000  0.5366870000000 1.0
C      1  0.3871280000000  0.5088280000000  0.4699300000000 1.0
C      1  0.5251720000000  0.5774100000000  0.5789120000000 1.0
C      1  0.5374260000000  0.4124160000000  0.4641560000000 1.0
C      1  0.4580440000000  0.4740040000000  0.3997220000000 1.0
C      1  0.4462120000000  0.5240730000000  0.5221150000000 1.0
C      1  0.5536500000000  0.5151310000000  0.4088720000000 1.0
C      1  0.5572280000000  0.5236210000000  0.4881920000000 1.0
C      1  0.5131000000000  0.3815210000000  0.5558280000000 1.0
C      1  0.4659680000000  0.5085620000000  0.5714500000000 1.0
C      1  0.5308550000000  0.6051680000000  0.4446490000000 1.0
C      1  0.4287820000000  0.5084020000000  0.4272540000000 1.0
C      1  0.5653650000000  0.5495610000000  0.5904230000000 1.0
C      1  0.5403710000000  0.5152170000000  0.5637440000000 1.0
C      1  0.5340980000000  0.4519590000000  0.6029680000000 1.0
C      1  0.4392100000000  0.5877790000000  0.5117420000000 1.0
C      1  0.3919250000000  0.5076050000000  0.5243360000000 1.0
C      1  0.3990590000000  0.5395700000000  0.4689630000000 1.0
C      1  0.4927050000000  0.3982040000000  0.5659530000000 1.0
C      1  0.5064000000000  0.6010030000000  0.4566980000000 1.0
C      1  0.4919760000000  0.5336720000000  0.5559520000000 1.0
C      1  0.5505970000000  0.4733100000000  0.4529890000000 1.0
C      1  0.5507430000000  0.5882190000000  0.4534360000000 1.0
C      1  0.4679320000000  0.4606420000000  0.5241150000000 1.0
C      1  0.5731810000000  0.4720170000000  0.4326330000000 1.0
C      1  0.5318350000000  0.4842350000000  0.4203140000000 1.0
C      1  0.5713610000000  0.5081730000000  0.5616960000000 1.0
C      1  0.5337950000000  0.5623380000000  0.5508440000000 1.0
C      1  0.4707110000000  0.3936280000000  0.5220810000000 1.0
C      1  0.5314120000000  0.5803850000000  0.5250190000000 1.0
C      1  0.5053430000000  0.5256720000000  0.4035110000000 1.0
C      1  0.4792540000000  0.4958290000000  0.4053590000000 1.0
C      1  0.4124820000000  0.4621900000000  0.5235960000000 1.0
C      1  0.4770140000000  0.4511120000000  0.4024400000000 1.0
C      1  0.5707740000000  0.5042800000000  0.5287750000000 1.0
C      1  0.4337180000000  0.5204930000000  0.4746900000000 1.0
C      1  0.5820650000000  0.4781850000000  0.4830560000000 1.0
C      1  0.5108740000000  0.4511280000000  0.5578300000000 1.0
C      1  0.5843560000000  0.5251530000000  0.5805850000000 1.0
C      1  0.5161370000000  0.4889870000000  0.5281360000000 1.0
C      1  0.4218110000000  0.4901000000000  0.4656830000000 1.0
C      1  0.5483740000000  0.5707230000000  0.5032300000000 1.0
C      1  0.4638420000000  0.6104460000000  0.5506900000000 1.0
C      1  0.4329040000000  0.5286920000000  0.5644050000000 1.0
C      1  0.5511240000000  0.4701670000000  0.4952670000000 1.0
C      1  0.4873180000000  0.5864340000000  0.5078340000000 1.0
C      1  0.4333490000000  0.4719860000000  0.5580220000000 1.0
C      1  0.4999290000000  0.4588820000000  0.5271320000000 1.0
C      1  0.3917410000000  0.4795780000000  0.5113040000000 1.0
C      1  0.4304280000000  0.4893990000000  0.5102980000000 1.0
C      1  0.6005000000000  0.4875000000000  0.5081140000000 1.0
C      1  0.5527330000000  0.4030220000000  0.5300520000000 1.0
C      1  0.4999160000000  0.4209160000000  0.5812280000000 1.0
C      1  0.5663850000000  0.4234250000000  0.4739770000000 1.0
C      1  0.4068890000000  0.5127600000000  0.5490210000000 1.0
C      1  0.4499280000000  0.3967880000000  0.4981930000000 1.0
C      1  0.4797450000000  0.4405950000000  0.5836950000000 1.0
C      1  0.4702850000000  0.5524500000000  0.4478160000000 1.0
C      1  0.5105770000000  0.5966890000000  0.4876260000000 1.0
C      1  0.5107430000000  0.5247480000000  0.5825620000000 1.0
C      1  0.4654740000000  0.4647980000000  0.5947530000000 1.0
C      1  0.5201550000000  0.4216130000000  0.5167950000000 1.0
C      1  0.5782860000000  0.4461150000000  0.5391550000000 1.0
C      1  0.4969830000000  0.4139390000000  0.4320080000000 1.0
C      1  0.5833490000000  0.5000840000000  0.4591870000000 1.0
C      1  0.5371150000000  0.6083960000000  0.4969910000000 1.0
C      1  0.4604090000000  0.5450600000000  0.5525410000000 1.0
C      1  0.5007830000000  0.3875950000000  0.5073940000000 1.0
C      1  0.4068760000000  0.5518310000000  0.4923710000000 1.0
C      1  0.4696120000000  0.4554930000000  0.5560880000000 1.0
C      1  0.5725460000000  0.5564790000000  0.5588230000000 1.0
C      1  0.5061560000000  0.4616530000000  0.4000810000000 1.0
C      1  0.6033220000000  0.5274090000000  0.4613290000000 1.0
C      1  0.5185830000000  0.4840280000000  0.4573480000000 1.0
C      1  0.4698650000000  0.5097320000000  0.6102560000000 1.0
C      1  0.4760110000000  0.5577550000000  0.4930950000000 1.0
C      1  0.4868260000000  0.5091870000000  0.4812660000000 1.0
C      1  0.5336740000000  0.5383560000000  0.5955430000000 1.0
C      1  0.5467970000000  0.4938540000000  0.5893450000000 1.0
C      1  0.4761210000000  0.4872690000000  0.5527130000000 1.0
C      1  0.5898620000000  0.4469640000000  0.4773990000000 1.0
C      1  0.4326650000000  0.4190340000000  0.4930040000000 1.0
C      1  0.6005420000000  0.4912750000000  0.5409140000000 1.0
C      1  0.5962980000000  0.4536160000000  0.5107030000000 1.0
C      1  0.4827270000000  0.4828330000000  0.6095380000000 1.0
C      1  0.4176780000000  0.4266420000000  0.4702290000000 1.0
END
