TITL C-2778424-3986-51 0.0031220809961885 125000 -799.997736517113 0 0 139 (C1) n - 1
REM
REM in /home/nfs/bkarasulu/CARBON/AIRSS/Generating-Clusters/REBO/Only-C1/SD-CG/HFTN-CG
REM
REM
REM
REM
REM
REM ./C.cell (11c1c37f851c82e70ff6c80c92926a4b)
REM
REM compiler GCC version 9.2.1 20190827 (Red Hat 9.2.1-1)
REM options -cpp -mtune=generic -march=x86-64 -g -O0 -fpre-include=/usr/include/finclude/math-vector-fortran.h
REM seed -394803635 1433145185 1794296272 -274239450 1356758969 574074982 1963138842 2098564717 710599626 1687535924 1357613927 -1647509440 378601494 -621468502 -769236654 -1685846781 1837395435 -1990521709 -1710510597 -1599228636 -1786359154 -1943351648 1048786923 268264730 201871675 1882633373 -1138875096 -803662622 -221853902 -1607513420 224998496 -1212498432 -1649370341
REM
CELL 1.54180   50.00000   50.00000   50.00000   90.00000   90.00000   90.00000
LATT -1
SFAC C  
C      1  0.5140870000000  0.4972520000000  0.4525660000000 1.0
C      1  0.5557580000000  0.4678220000000  0.5615710000000 1.0
C      1  0.5541360000000  0.4889060000000  0.4612580000000 1.0
C      1  0.5229720000000  0.4507470000000  0.5464450000000 1.0
C      1  0.4708470000000  0.4491620000000  0.4658850000000 1.0
C      1  0.4628940000000  0.4295980000000  0.5605950000000 1.0
C      1  0.5046650000000  0.5433530000000  0.4140220000000 1.0
C      1  0.4933800000000  0.4185770000000  0.5993560000000 1.0
C      1  0.4729770000000  0.5276540000000  0.4360490000000 1.0
C      1  0.5705460000000  0.5554280000000  0.5293080000000 1.0
C      1  0.5089180000000  0.5186700000000  0.5800870000000 1.0
C      1  0.4756350000000  0.4136260000000  0.5384480000000 1.0
C      1  0.5642000000000  0.5425880000000  0.4920360000000 1.0
C      1  0.4301820000000  0.5467790000000  0.5391280000000 1.0
C      1  0.5823550000000  0.4946810000000  0.4436180000000 1.0
C      1  0.5444250000000  0.5627560000000  0.4996270000000 1.0
C      1  0.4147860000000  0.4838940000000  0.4610180000000 1.0
C      1  0.5658710000000  0.5097520000000  0.4932930000000 1.0
C      1  0.4520120000000  0.4809890000000  0.5239750000000 1.0
C      1  0.4228270000000  0.5452910000000  0.4555410000000 1.0
C      1  0.4913130000000  0.5784930000000  0.4511780000000 1.0
C      1  0.5778050000000  0.4464340000000  0.4827780000000 1.0
C      1  0.4764410000000  0.4279340000000  0.4894170000000 1.0
C      1  0.5406390000000  0.5660360000000  0.4617470000000 1.0
C      1  0.4265910000000  0.5563120000000  0.4875300000000 1.0
C      1  0.5538150000000  0.4952280000000  0.5156600000000 1.0
C      1  0.4260390000000  0.5150950000000  0.5810900000000 1.0
C      1  0.5449240000000  0.4288560000000  0.4959980000000 1.0
C      1  0.4842370000000  0.5005480000000  0.5869600000000 1.0
C      1  0.4793400000000  0.5871830000000  0.4796610000000 1.0
C      1  0.5165370000000  0.4048840000000  0.4655220000000 1.0
C      1  0.4404880000000  0.4361970000000  0.4673780000000 1.0
C      1  0.5095930000000  0.6045790000000  0.4601640000000 1.0
C      1  0.4084160000000  0.5275670000000  0.4923770000000 1.0
C      1  0.5936760000000  0.5403710000000  0.4745690000000 1.0
C      1  0.4624910000000  0.4772190000000  0.4747500000000 1.0
C      1  0.5287940000000  0.4057330000000  0.5239590000000 1.0
C      1  0.4747210000000  0.5364090000000  0.4895150000000 1.0
C      1  0.5272670000000  0.4870660000000  0.4810830000000 1.0
C      1  0.4198320000000  0.5380940000000  0.5642230000000 1.0
C      1  0.5683020000000  0.4634300000000  0.4437240000000 1.0
C      1  0.4989550000000  0.5164320000000  0.4072740000000 1.0
C      1  0.5192060000000  0.5505980000000  0.5119520000000 1.0
C      1  0.5019230000000  0.5973720000000  0.4991030000000 1.0
C      1  0.4734260000000  0.5895730000000  0.5393700000000 1.0
C      1  0.4623790000000  0.4128410000000  0.5141900000000 1.0
C      1  0.4459590000000  0.5579130000000  0.4339140000000 1.0
C      1  0.5073890000000  0.4325350000000  0.4381370000000 1.0
C      1  0.5325130000000  0.4761620000000  0.5758010000000 1.0
C      1  0.4938940000000  0.4696030000000  0.4513310000000 1.0
C      1  0.5297290000000  0.4478460000000  0.5197830000000 1.0
C      1  0.4662100000000  0.4692710000000  0.4317250000000 1.0
C      1  0.4050160000000  0.5165170000000  0.4601340000000 1.0
C      1  0.5455310000000  0.5196550000000  0.4678990000000 1.0
C      1  0.4419210000000  0.5232380000000  0.4712650000000 1.0
C      1  0.5115450000000  0.5423970000000  0.5631380000000 1.0
C      1  0.4796080000000  0.5600950000000  0.4282370000000 1.0
C      1  0.5257570000000  0.4577050000000  0.4525040000000 1.0
C      1  0.5601090000000  0.5132490000000  0.4301580000000 1.0
C      1  0.5035940000000  0.4932210000000  0.5314790000000 1.0
C      1  0.5525590000000  0.5835700000000  0.5218780000000 1.0
C      1  0.4621340000000  0.5476990000000  0.4617290000000 1.0
C      1  0.5603160000000  0.5442940000000  0.5550100000000 1.0
C      1  0.4882870000000  0.4084560000000  0.4652730000000 1.0
C      1  0.4433780000000  0.4737850000000  0.5633830000000 1.0
C      1  0.5767210000000  0.4206600000000  0.5049290000000 1.0
C      1  0.5047840000000  0.4175690000000  0.5338990000000 1.0
C      1  0.6027090000000  0.5134060000000  0.4610130000000 1.0
C      1  0.4032730000000  0.4936230000000  0.4915740000000 1.0
C      1  0.4375070000000  0.4868080000000  0.4264330000000 1.0
C      1  0.5396170000000  0.5867060000000  0.5526690000000 1.0
C      1  0.5048860000000  0.5316560000000  0.4935840000000 1.0
C      1  0.5667400000000  0.4950140000000  0.5454380000000 1.0
C      1  0.4055670000000  0.4765640000000  0.5178590000000 1.0
C      1  0.5159180000000  0.5286870000000  0.4656530000000 1.0
C      1  0.4878750000000  0.4874320000000  0.4863360000000 1.0
C      1  0.5095510000000  0.4641350000000  0.4984380000000 1.0
C      1  0.4995320000000  0.5907060000000  0.5488120000000 1.0
C      1  0.5562690000000  0.5174070000000  0.5637840000000 1.0
C      1  0.4812120000000  0.4697200000000  0.6009840000000 1.0
C      1  0.5248880000000  0.5360280000000  0.5383830000000 1.0
C      1  0.6033230000000  0.4900450000000  0.5303500000000 1.0
C      1  0.5363250000000  0.4989360000000  0.4268910000000 1.0
C      1  0.4357900000000  0.4875570000000  0.4880250000000 1.0
C      1  0.4016530000000  0.4915560000000  0.5441980000000 1.0
C      1  0.5935100000000  0.4682490000000  0.4833590000000 1.0
C      1  0.5336810000000  0.5047850000000  0.5789490000000 1.0
C      1  0.6034760000000  0.5127890000000  0.5209300000000 1.0
C      1  0.4747440000000  0.5072930000000  0.5236860000000 1.0
C      1  0.4603230000000  0.4117930000000  0.4566430000000 1.0
C      1  0.5906760000000  0.4959230000000  0.4826840000000 1.0
C      1  0.4379470000000  0.5035530000000  0.4019640000000 1.0
C      1  0.5584660000000  0.4383160000000  0.4396030000000 1.0
C      1  0.4384170000000  0.4486740000000  0.5470020000000 1.0
C      1  0.4155680000000  0.5569950000000  0.5182980000000 1.0
C      1  0.5225160000000  0.5995360000000  0.5261650000000 1.0
C      1  0.4746780000000  0.4783190000000  0.5629150000000 1.0
C      1  0.4614000000000  0.5384320000000  0.5294380000000 1.0
C      1  0.5205020000000  0.4726330000000  0.4222170000000 1.0
C      1  0.4142910000000  0.4133570000000  0.5017780000000 1.0
C      1  0.4560870000000  0.5215180000000  0.5558600000000 1.0
C      1  0.4303040000000  0.4570040000000  0.5173550000000 1.0
C      1  0.4370760000000  0.4614330000000  0.4483490000000 1.0
C      1  0.5846370000000  0.4661290000000  0.5436050000000 1.0
C      1  0.5350440000000  0.5982010000000  0.4681120000000 1.0
C      1  0.5361700000000  0.4200250000000  0.4443740000000 1.0
C      1  0.4524580000000  0.5129970000000  0.5000500000000 1.0
C      1  0.5319490000000  0.5507770000000  0.4249640000000 1.0
C      1  0.4906650000000  0.4421190000000  0.5149420000000 1.0
C      1  0.5088790000000  0.5037910000000  0.5019890000000 1.0
C      1  0.4198500000000  0.4897140000000  0.5677400000000 1.0
C      1  0.5518830000000  0.4668980000000  0.5051910000000 1.0
C      1  0.4917520000000  0.4835680000000  0.4141090000000 1.0
C      1  0.4506170000000  0.4991360000000  0.4528450000000 1.0
C      1  0.5277260000000  0.4036100000000  0.4917310000000 1.0
C      1  0.4978590000000  0.5708940000000  0.5141130000000 1.0
C      1  0.5453280000000  0.4524720000000  0.4745090000000 1.0
C      1  0.4547820000000  0.5723460000000  0.4911360000000 1.0
C      1  0.5062250000000  0.5698870000000  0.5668340000000 1.0
C      1  0.4796050000000  0.5120790000000  0.4656160000000 1.0
C      1  0.4282040000000  0.4352310000000  0.4955230000000 1.0
C      1  0.5459480000000  0.5655360000000  0.5685220000000 1.0
C      1  0.5693370000000  0.4466520000000  0.5246390000000 1.0
C      1  0.4571170000000  0.5156780000000  0.5850590000000 1.0
C      1  0.5644440000000  0.5846310000000  0.4758440000000 1.0
C      1  0.4302030000000  0.4215330000000  0.5657920000000 1.0
C      1  0.5733570000000  0.5578020000000  0.4563700000000 1.0
C      1  0.5041510000000  0.4622830000000  0.5693720000000 1.0
C      1  0.4822440000000  0.4688210000000  0.5314300000000 1.0
C      1  0.4105160000000  0.5157380000000  0.5236400000000 1.0
C      1  0.4817120000000  0.4412860000000  0.5822520000000 1.0
C      1  0.5558390000000  0.4159840000000  0.5318230000000 1.0
C      1  0.5307260000000  0.5080630000000  0.5346910000000 1.0
C      1  0.5576260000000  0.5412190000000  0.4322200000000 1.0
C      1  0.5924960000000  0.5391770000000  0.5089520000000 1.0
C      1  0.4373180000000  0.5073580000000  0.5364570000000 1.0
C      1  0.4678580000000  0.5650940000000  0.5182680000000 1.0
C      1  0.4680360000000  0.5080390000000  0.4119930000000 1.0
C      1  0.5135660000000  0.5552000000000  0.4510750000000 1.0
END
