TITL C-2778434-4341-589 0.00142829445933612 125000 -653.712538653962 0 0 111 (C1) n - 1
REM
REM in /home/nfs/bkarasulu/CARBON/AIRSS/Generating-Clusters/REBO/Only-C1/SD-CG/HFTN-CG
REM
REM
REM
REM
REM
REM ./C.cell (11c1c37f851c82e70ff6c80c92926a4b)
REM
REM compiler GCC version 9.2.1 20190827 (Red Hat 9.2.1-1)
REM options -cpp -mtune=generic -march=x86-64 -g -O0 -fpre-include=/usr/include/finclude/math-vector-fortran.h
REM seed 596868871 187490123 1737438576 -215340758 -601574589 -778213275 -1355579782 -446088353 -1831577603 -345170699 1440124205 733969075 1254765306 1174431088 -1644442372 -1957611888 -2085590477 860619089 1611064357 735299571 1311298903 -897533070 432579396 709150274 -813745816 -542566923 393149987 1374871214 763446680 317409755 712581046 1045314474 -237502566
REM
CELL 1.54180   50.00000   50.00000   50.00000   90.00000   90.00000   90.00000
LATT -1
SFAC C  
C      1  0.5145730000000  0.4732410000000  0.5293530000000 1.0
C      1  0.5527850000000  0.4853370000000  0.4682780000000 1.0
C      1  0.4732460000000  0.4395480000000  0.4396930000000 1.0
C      1  0.5144280000000  0.5628080000000  0.4428120000000 1.0
C      1  0.5433800000000  0.5501060000000  0.4951810000000 1.0
C      1  0.4745980000000  0.5102210000000  0.4941650000000 1.0
C      1  0.4266220000000  0.5104200000000  0.5513020000000 1.0
C      1  0.4333210000000  0.4726150000000  0.5243040000000 1.0
C      1  0.4508390000000  0.5636950000000  0.5382280000000 1.0
C      1  0.5551720000000  0.5604690000000  0.5200050000000 1.0
C      1  0.4398130000000  0.5315690000000  0.4148380000000 1.0
C      1  0.5375050000000  0.5785580000000  0.5386250000000 1.0
C      1  0.4417720000000  0.5231680000000  0.5129280000000 1.0
C      1  0.4794120000000  0.5923650000000  0.5128970000000 1.0
C      1  0.4865340000000  0.5594150000000  0.5694540000000 1.0
C      1  0.5430690000000  0.4677790000000  0.5746450000000 1.0
C      1  0.4839160000000  0.4481210000000  0.5327360000000 1.0
C      1  0.5393790000000  0.5612120000000  0.5673230000000 1.0
C      1  0.5442920000000  0.4987950000000  0.5739220000000 1.0
C      1  0.5664330000000  0.5089590000000  0.4506900000000 1.0
C      1  0.4791500000000  0.4362970000000  0.5079700000000 1.0
C      1  0.5006180000000  0.5416200000000  0.4024800000000 1.0
C      1  0.5182340000000  0.4157590000000  0.4825530000000 1.0
C      1  0.5043720000000  0.4649350000000  0.4611880000000 1.0
C      1  0.4974130000000  0.5522860000000  0.4819700000000 1.0
C      1  0.5350260000000  0.5393880000000  0.5424430000000 1.0
C      1  0.4758260000000  0.4831350000000  0.4628870000000 1.0
C      1  0.4270360000000  0.5449650000000  0.4910470000000 1.0
C      1  0.5033130000000  0.5087130000000  0.4996780000000 1.0
C      1  0.5064830000000  0.5334190000000  0.5307830000000 1.0
C      1  0.5398630000000  0.5494980000000  0.4449210000000 1.0
C      1  0.4114540000000  0.4922620000000  0.4971860000000 1.0
C      1  0.4421520000000  0.4213690000000  0.5077000000000 1.0
C      1  0.5883140000000  0.4757110000000  0.4539010000000 1.0
C      1  0.4886330000000  0.4963120000000  0.5854370000000 1.0
C      1  0.4602930000000  0.4664270000000  0.5585530000000 1.0
C      1  0.4442220000000  0.4450950000000  0.5396790000000 1.0
C      1  0.4211590000000  0.4449580000000  0.5127610000000 1.0
C      1  0.5480100000000  0.4413490000000  0.5170000000000 1.0
C      1  0.5637890000000  0.5009450000000  0.5491710000000 1.0
C      1  0.5643320000000  0.4567000000000  0.5583770000000 1.0
C      1  0.4858780000000  0.5294590000000  0.5768660000000 1.0
C      1  0.5058940000000  0.5696770000000  0.5475250000000 1.0
C      1  0.4510120000000  0.5810330000000  0.5151040000000 1.0
C      1  0.4550450000000  0.5542870000000  0.4138900000000 1.0
C      1  0.4498240000000  0.4934510000000  0.5080030000000 1.0
C      1  0.5740220000000  0.4761700000000  0.5394160000000 1.0
C      1  0.4830740000000  0.5115350000000  0.5413500000000 1.0
C      1  0.4651090000000  0.5712770000000  0.4684200000000 1.0
C      1  0.4209990000000  0.5132630000000  0.4802680000000 1.0
C      1  0.4640580000000  0.5359980000000  0.5281390000000 1.0
C      1  0.5954770000000  0.5036320000000  0.4441590000000 1.0
C      1  0.4774860000000  0.5150740000000  0.4504360000000 1.0
C      1  0.4869170000000  0.5599580000000  0.5216080000000 1.0
C      1  0.5582570000000  0.4666010000000  0.4408360000000 1.0
C      1  0.4509660000000  0.4568760000000  0.4458550000000 1.0
C      1  0.5183290000000  0.4857860000000  0.5048880000000 1.0
C      1  0.5667660000000  0.4174810000000  0.4471360000000 1.0
C      1  0.4289210000000  0.4564580000000  0.4642920000000 1.0
C      1  0.6162720000000  0.5161780000000  0.4331780000000 1.0
C      1  0.5355100000000  0.5062520000000  0.4148090000000 1.0
C      1  0.5152900000000  0.5139550000000  0.5811900000000 1.0
C      1  0.5013170000000  0.4358970000000  0.4339320000000 1.0
C      1  0.4556150000000  0.4470620000000  0.4925030000000 1.0
C      1  0.5285450000000  0.4714730000000  0.4809220000000 1.0
C      1  0.5821270000000  0.5452120000000  0.5270590000000 1.0
C      1  0.5085250000000  0.5150210000000  0.4089110000000 1.0
C      1  0.4121430000000  0.5364400000000  0.5204380000000 1.0
C      1  0.4429420000000  0.4892470000000  0.5693810000000 1.0
C      1  0.4554800000000  0.4851360000000  0.4356950000000 1.0
C      1  0.5518620000000  0.5588200000000  0.5970270000000 1.0
C      1  0.4852560000000  0.4358310000000  0.5644590000000 1.0
C      1  0.5402050000000  0.4769540000000  0.4177410000000 1.0
C      1  0.4925050000000  0.5822450000000  0.4565660000000 1.0
C      1  0.5522470000000  0.5547240000000  0.4700680000000 1.0
C      1  0.4149180000000  0.4979700000000  0.5284340000000 1.0
C      1  0.5821600000000  0.4738630000000  0.5124700000000 1.0
C      1  0.4502900000000  0.5139040000000  0.4703520000000 1.0
C      1  0.4167600000000  0.4648860000000  0.4887450000000 1.0
C      1  0.5183060000000  0.4547840000000  0.5742270000000 1.0
C      1  0.4578380000000  0.5178990000000  0.5631260000000 1.0
C      1  0.4824960000000  0.5540550000000  0.4207440000000 1.0
C      1  0.5165490000000  0.5368960000000  0.4985500000000 1.0
C      1  0.5807640000000  0.4754040000000  0.4849020000000 1.0
C      1  0.6083020000000  0.5482850000000  0.5232530000000 1.0
C      1  0.5214350000000  0.4352210000000  0.4593950000000 1.0
C      1  0.5487220000000  0.5238550000000  0.4337200000000 1.0
C      1  0.5124310000000  0.5904080000000  0.5204850000000 1.0
C      1  0.5502330000000  0.4379620000000  0.4489750000000 1.0
C      1  0.4609840000000  0.5696470000000  0.5642890000000 1.0
C      1  0.4888400000000  0.5430760000000  0.4501870000000 1.0
C      1  0.5624160000000  0.5257620000000  0.5379920000000 1.0
C      1  0.5110570000000  0.4037570000000  0.5334320000000 1.0
C      1  0.4434750000000  0.5060770000000  0.4229590000000 1.0
C      1  0.5005180000000  0.5835230000000  0.4892000000000 1.0
C      1  0.4422850000000  0.5710320000000  0.4896390000000 1.0
C      1  0.5444010000000  0.4457670000000  0.4903490000000 1.0
C      1  0.4569110000000  0.4143980000000  0.5329420000000 1.0
C      1  0.5164300000000  0.4283270000000  0.5538300000000 1.0
C      1  0.5294070000000  0.4506310000000  0.5360420000000 1.0
C      1  0.5417870000000  0.5313300000000  0.5836550000000 1.0
C      1  0.4861010000000  0.4810620000000  0.5412900000000 1.0
C      1  0.4825690000000  0.4098350000000  0.5439000000000 1.0
C      1  0.4878610000000  0.4667310000000  0.5784870000000 1.0
C      1  0.4585870000000  0.4739350000000  0.4855470000000 1.0
C      1  0.4910210000000  0.5007010000000  0.4262860000000 1.0
C      1  0.5162420000000  0.4574550000000  0.4134330000000 1.0
C      1  0.4995110000000  0.4754720000000  0.4317540000000 1.0
C      1  0.4666510000000  0.5403780000000  0.4829110000000 1.0
C      1  0.5259310000000  0.4024850000000  0.5090710000000 1.0
C      1  0.4911530000000  0.4152160000000  0.4942940000000 1.0
END
