TITL C-2778424-3986-1436 0.000608487929958173 125000 -188.232141617388 0 0 35 (C1) n - 1
REM
REM in /home/nfs/bkarasulu/CARBON/AIRSS/Generating-Clusters/REBO/Only-C1/SD-CG/HFTN-CG
REM
REM
REM
REM
REM
REM ./C.cell (11c1c37f851c82e70ff6c80c92926a4b)
REM
REM compiler GCC version 9.2.1 20190827 (Red Hat 9.2.1-1)
REM options -cpp -mtune=generic -march=x86-64 -g -O0 -fpre-include=/usr/include/finclude/math-vector-fortran.h
REM seed 1390684898 -1824226829 872053596 -1888038492 822055995 853823592 231636578 1883804880 -1080663979 -2086670756 -768509708 -1146402049 -1394794058 987901200 -2095269217 173104562 623422859 -1182421434 1092473572 1315606009 1945271904 1468108764 1575413062 987134338 68450438 -1084041095 860200548 -2130887910 564734966 -2142284044 -814334897 1975782243 945139465
REM
CELL 1.54180   50.00000   50.00000   50.00000   90.00000   90.00000   90.00000
LATT -1
SFAC C  
C      1  0.4532100000000  0.4669370000000  0.4545000000000 1.0
C      1  0.5002380000000  0.5208470000000  0.5557270000000 1.0
C      1  0.4593900000000  0.5376770000000  0.5293020000000 1.0
C      1  0.5005830000000  0.4616670000000  0.5301300000000 1.0
C      1  0.5424260000000  0.4822670000000  0.5446500000000 1.0
C      1  0.4882030000000  0.4962840000000  0.5635880000000 1.0
C      1  0.4895480000000  0.4448720000000  0.5107980000000 1.0
C      1  0.4180800000000  0.5161660000000  0.4936300000000 1.0
C      1  0.5084130000000  0.5642740000000  0.4694880000000 1.0
C      1  0.5474550000000  0.4622590000000  0.4417530000000 1.0
C      1  0.5239530000000  0.4769250000000  0.5239460000000 1.0
C      1  0.5356440000000  0.5236030000000  0.5119450000000 1.0
C      1  0.4495190000000  0.4499170000000  0.4287990000000 1.0
C      1  0.4869730000000  0.4709730000000  0.5532410000000 1.0
C      1  0.4439870000000  0.5089090000000  0.4888840000000 1.0
C      1  0.4787680000000  0.4366810000000  0.4877520000000 1.0
C      1  0.5501010000000  0.4507110000000  0.4876890000000 1.0
C      1  0.5033730000000  0.5313250000000  0.4733930000000 1.0
C      1  0.4899500000000  0.5325790000000  0.5318050000000 1.0
C      1  0.4642910000000  0.5200350000000  0.5042770000000 1.0
C      1  0.5359520000000  0.5509760000000  0.5728510000000 1.0
C      1  0.5218830000000  0.4985770000000  0.5033210000000 1.0
C      1  0.5421110000000  0.4677380000000  0.4679340000000 1.0
C      1  0.5440940000000  0.5746940000000  0.5804670000000 1.0
C      1  0.4972070000000  0.5200820000000  0.5015010000000 1.0
C      1  0.5217190000000  0.5124880000000  0.4302310000000 1.0
C      1  0.5283250000000  0.4910060000000  0.4745770000000 1.0
C      1  0.4668060000000  0.4390300000000  0.4629230000000 1.0
C      1  0.5187330000000  0.5109110000000  0.4575350000000 1.0
C      1  0.5446350000000  0.5035210000000  0.5617120000000 1.0
C      1  0.5245970000000  0.5853830000000  0.4732350000000 1.0
C      1  0.4619810000000  0.4228380000000  0.4356690000000 1.0
C      1  0.4493400000000  0.4895930000000  0.4693580000000 1.0
C      1  0.4812070000000  0.5524790000000  0.4586320000000 1.0
C      1  0.5273030000000  0.5257770000000  0.5647590000000 1.0
END
