TITL C-2778422-5617-1089 -0.0324692734084073 125000 -305.550578387349 0 0 53 (C1) n - 1
REM
REM in /home/nfs/bkarasulu/CARBON/AIRSS/Generating-Clusters/REBO/Only-C1/SD-CG/HFTN-CG
REM
REM
REM
REM
REM
REM ./C.cell (11c1c37f851c82e70ff6c80c92926a4b)
REM
REM compiler GCC version 9.2.1 20190827 (Red Hat 9.2.1-1)
REM options -cpp -mtune=generic -march=x86-64 -g -O0 -fpre-include=/usr/include/finclude/math-vector-fortran.h
REM seed -576117000 -1135037032 -1014776625 366295004 675135561 -2128199907 979815524 -1028469099 50917459 -1057047004 1983834660 -1874186908 1485379367 -1711495071 365265834 -41126651 -2062104353 639435922 1230970134 -251320708 -1852130515 -753051875 2088946074 869436206 -444609243 -1316918818 1492925041 1031223151 -1039105901 -52975172 -1678885452 -4357024 417714565
REM
CELL 1.54180   50.00000   50.00000   50.00000   90.00000   90.00000   90.00000
LATT -1
SFAC C  
C      1  0.4749060000000  0.4697180000000  0.5240530000000 1.0
C      1  0.5780930000000  0.4866610000000  0.5173000000000 1.0
C      1  0.4848990000000  0.5303010000000  0.5447600000000 1.0
C      1  0.4898880000000  0.4439890000000  0.5290880000000 1.0
C      1  0.4706880000000  0.5118120000000  0.4864960000000 1.0
C      1  0.5472520000000  0.5373720000000  0.4810080000000 1.0
C      1  0.4128800000000  0.4804390000000  0.5035930000000 1.0
C      1  0.4649080000000  0.4874900000000  0.5465230000000 1.0
C      1  0.4974690000000  0.5627730000000  0.4919360000000 1.0
C      1  0.5119030000000  0.4871720000000  0.5531230000000 1.0
C      1  0.5074680000000  0.4439030000000  0.4801730000000 1.0
C      1  0.4304610000000  0.5176400000000  0.4646590000000 1.0
C      1  0.4881570000000  0.5024240000000  0.5551350000000 1.0
C      1  0.5556870000000  0.5129950000000  0.4417200000000 1.0
C      1  0.4325930000000  0.4448830000000  0.4758300000000 1.0
C      1  0.4435540000000  0.4933300000000  0.4637970000000 1.0
C      1  0.4214120000000  0.4963090000000  0.5250020000000 1.0
C      1  0.5411370000000  0.5079920000000  0.4872610000000 1.0
C      1  0.4960850000000  0.4301730000000  0.5023420000000 1.0
C      1  0.5576140000000  0.4884660000000  0.4565040000000 1.0
C      1  0.5361120000000  0.4457350000000  0.4782500000000 1.0
C      1  0.3866880000000  0.4732300000000  0.4986840000000 1.0
C      1  0.5070100000000  0.5373180000000  0.5111180000000 1.0
C      1  0.4347080000000  0.5380600000000  0.4833510000000 1.0
C      1  0.5345900000000  0.5032570000000  0.5397770000000 1.0
C      1  0.4998170000000  0.5885950000000  0.5087030000000 1.0
C      1  0.5114570000000  0.5487320000000  0.5426600000000 1.0
C      1  0.4992470000000  0.4316540000000  0.5593790000000 1.0
C      1  0.5770640000000  0.4621180000000  0.4972680000000 1.0
C      1  0.5190410000000  0.5080260000000  0.5116800000000 1.0
C      1  0.5459890000000  0.4620830000000  0.4560910000000 1.0
C      1  0.5357820000000  0.5314900000000  0.5533660000000 1.0
C      1  0.5686640000000  0.4922990000000  0.4857690000000 1.0
C      1  0.5522290000000  0.4470430000000  0.5028050000000 1.0
C      1  0.4630790000000  0.4802270000000  0.4960150000000 1.0
C      1  0.5122270000000  0.4953170000000  0.4746160000000 1.0
C      1  0.5266550000000  0.5549520000000  0.4424970000000 1.0
C      1  0.5163260000000  0.4572710000000  0.5448590000000 1.0
C      1  0.4949170000000  0.4663940000000  0.4692350000000 1.0
C      1  0.4754710000000  0.4910590000000  0.4597470000000 1.0
C      1  0.4986180000000  0.5395060000000  0.4428560000000 1.0
C      1  0.4958440000000  0.4868850000000  0.5033890000000 1.0
C      1  0.4441910000000  0.5061870000000  0.5380480000000 1.0
C      1  0.4577800000000  0.5332940000000  0.5002210000000 1.0
C      1  0.5487540000000  0.5391110000000  0.4524950000000 1.0
C      1  0.4968040000000  0.5138010000000  0.4516800000000 1.0
C      1  0.5426730000000  0.4568150000000  0.5292810000000 1.0
C      1  0.5563400000000  0.4823940000000  0.5352920000000 1.0
C      1  0.4349770000000  0.4711050000000  0.4851490000000 1.0
C      1  0.4593260000000  0.5305440000000  0.5294330000000 1.0
C      1  0.5222800000000  0.5723310000000  0.5217150000000 1.0
C      1  0.5027080000000  0.5632100000000  0.4643410000000 1.0
C      1  0.5355780000000  0.5541110000000  0.4999260000000 1.0
END
