TITL C-2778425-5191-983 -0.145989912015021 125000 -698.475534209244 0 0 122 (C1) n - 1
REM
REM in /home/nfs/bkarasulu/CARBON/AIRSS/Generating-Clusters/REBO/Only-C1/SD-CG/HFTN-CG
REM
REM
REM
REM
REM
REM ./C.cell (11c1c37f851c82e70ff6c80c92926a4b)
REM
REM compiler GCC version 9.2.1 20190827 (Red Hat 9.2.1-1)
REM options -cpp -mtune=generic -march=x86-64 -g -O0 -fpre-include=/usr/include/finclude/math-vector-fortran.h
REM seed 1467213962 389809069 361394591 89041452 -2033845003 -1377414226 2101454463 53838550 -1983164135 498999290 956037378 1128630077 1904788639 1435374250 376761673 -1102124020 -1527264661 -1830277412 -972218077 -769149790 1658932986 675658456 1464154331 -494100693 1188626123 -147904175 -218447276 -1348582842 -1263308311 -784692848 -1777547669 -1885040153 1497082653
REM
CELL 1.54180   50.00000   50.00000   50.00000   90.00000   90.00000   90.00000
LATT -1
SFAC C  
C      1  0.4544000000000  0.5223040000000  0.5368780000000 1.0
C      1  0.5071240000000  0.4644000000000  0.5497180000000 1.0
C      1  0.5451720000000  0.5951710000000  0.4819210000000 1.0
C      1  0.5101130000000  0.4485880000000  0.4242290000000 1.0
C      1  0.5711840000000  0.5172310000000  0.5527280000000 1.0
C      1  0.4504170000000  0.4834750000000  0.4993570000000 1.0
C      1  0.4503270000000  0.5339970000000  0.5093640000000 1.0
C      1  0.5106560000000  0.5335130000000  0.5135230000000 1.0
C      1  0.5112960000000  0.5090680000000  0.4124100000000 1.0
C      1  0.5523680000000  0.4898290000000  0.5610990000000 1.0
C      1  0.5187650000000  0.4205890000000  0.5544160000000 1.0
C      1  0.5155250000000  0.5120570000000  0.4656170000000 1.0
C      1  0.5135890000000  0.5986490000000  0.4732630000000 1.0
C      1  0.5254380000000  0.4298680000000  0.4477690000000 1.0
C      1  0.4787390000000  0.5374290000000  0.5866570000000 1.0
C      1  0.5084340000000  0.5003980000000  0.5199670000000 1.0
C      1  0.5648840000000  0.4269380000000  0.5157220000000 1.0
C      1  0.4517400000000  0.4912610000000  0.5276170000000 1.0
C      1  0.5559540000000  0.5660340000000  0.4572930000000 1.0
C      1  0.4711180000000  0.4289740000000  0.4559360000000 1.0
C      1  0.5491590000000  0.4974650000000  0.4136780000000 1.0
C      1  0.5084640000000  0.5521860000000  0.4851000000000 1.0
C      1  0.4966630000000  0.5018450000000  0.4905020000000 1.0
C      1  0.4988400000000  0.5877030000000  0.5004720000000 1.0
C      1  0.4204680000000  0.4757610000000  0.4901850000000 1.0
C      1  0.5864960000000  0.5464190000000  0.4725150000000 1.0
C      1  0.5470770000000  0.5027160000000  0.5907970000000 1.0
C      1  0.5522640000000  0.5014580000000  0.5217480000000 1.0
C      1  0.4469600000000  0.5231170000000  0.5672940000000 1.0
C      1  0.4018640000000  0.5318500000000  0.5202720000000 1.0
C      1  0.5661960000000  0.4890650000000  0.4397880000000 1.0
C      1  0.4934750000000  0.5486370000000  0.5580880000000 1.0
C      1  0.4769430000000  0.5289000000000  0.4922570000000 1.0
C      1  0.4446260000000  0.4490160000000  0.4502830000000 1.0
C      1  0.5532880000000  0.5406990000000  0.4806930000000 1.0
C      1  0.5440460000000  0.5116650000000  0.4773930000000 1.0
C      1  0.4660400000000  0.5075110000000  0.5914320000000 1.0
C      1  0.4704840000000  0.4648350000000  0.4874720000000 1.0
C      1  0.5358410000000  0.4308580000000  0.4787630000000 1.0
C      1  0.4432710000000  0.4900690000000  0.5725250000000 1.0
C      1  0.4695310000000  0.4267910000000  0.4900570000000 1.0
C      1  0.5375110000000  0.5284470000000  0.5342570000000 1.0
C      1  0.5694250000000  0.5404750000000  0.4428360000000 1.0
C      1  0.5077520000000  0.5584920000000  0.4516660000000 1.0
C      1  0.5748640000000  0.5271760000000  0.5202410000000 1.0
C      1  0.5210630000000  0.4695990000000  0.4477560000000 1.0
C      1  0.5558200000000  0.4475120000000  0.5363650000000 1.0
C      1  0.5715380000000  0.4663630000000  0.4897150000000 1.0
C      1  0.4608930000000  0.5822730000000  0.5295920000000 1.0
C      1  0.4871030000000  0.5816620000000  0.4629140000000 1.0
C      1  0.5475690000000  0.4888770000000  0.4959360000000 1.0
C      1  0.4845300000000  0.5271410000000  0.4122560000000 1.0
C      1  0.4799060000000  0.4133240000000  0.5196690000000 1.0
C      1  0.4260920000000  0.4499200000000  0.4716550000000 1.0
C      1  0.5126780000000  0.5406100000000  0.4263190000000 1.0
C      1  0.5099140000000  0.3884920000000  0.4905800000000 1.0
C      1  0.4501840000000  0.5734730000000  0.5540140000000 1.0
C      1  0.5502920000000  0.4577210000000  0.5612280000000 1.0
C      1  0.4435410000000  0.5213080000000  0.4370120000000 1.0
C      1  0.4827050000000  0.4949050000000  0.5414020000000 1.0
C      1  0.4563170000000  0.5438260000000  0.4578810000000 1.0
C      1  0.4217560000000  0.5002370000000  0.4471460000000 1.0
C      1  0.4796370000000  0.4502400000000  0.4300510000000 1.0
C      1  0.4529300000000  0.5545510000000  0.5726670000000 1.0
C      1  0.5284700000000  0.5737490000000  0.5004140000000 1.0
C      1  0.5057760000000  0.4737830000000  0.4760150000000 1.0
C      1  0.4642170000000  0.4409630000000  0.5270110000000 1.0
C      1  0.5515240000000  0.4663100000000  0.4494860000000 1.0
C      1  0.5866450000000  0.4887570000000  0.5040930000000 1.0
C      1  0.4987560000000  0.4422600000000  0.4996160000000 1.0
C      1  0.5300700000000  0.5076000000000  0.4402590000000 1.0
C      1  0.5709340000000  0.5124530000000  0.4587230000000 1.0
C      1  0.4396140000000  0.4414280000000  0.4973680000000 1.0
C      1  0.4603020000000  0.5723390000000  0.4684050000000 1.0
C      1  0.4081940000000  0.4865510000000  0.4274180000000 1.0
C      1  0.5292660000000  0.4412560000000  0.5732050000000 1.0
C      1  0.4031650000000  0.5104760000000  0.5372090000000 1.0
C      1  0.5071370000000  0.5714920000000  0.5447430000000 1.0
C      1  0.5226070000000  0.4905240000000  0.5461640000000 1.0
C      1  0.4735400000000  0.4773610000000  0.5667170000000 1.0
C      1  0.4692520000000  0.4460960000000  0.5595190000000 1.0
C      1  0.4071330000000  0.5285100000000  0.4877880000000 1.0
C      1  0.4479900000000  0.4983050000000  0.4693070000000 1.0
C      1  0.5339020000000  0.5619710000000  0.5292620000000 1.0
C      1  0.5287180000000  0.4439780000000  0.5157750000000 1.0
C      1  0.5579270000000  0.4385060000000  0.4465170000000 1.0
C      1  0.5056700000000  0.4588490000000  0.5810480000000 1.0
C      1  0.5287220000000  0.4706750000000  0.4086320000000 1.0
C      1  0.4087750000000  0.4994140000000  0.4759890000000 1.0
C      1  0.4761580000000  0.4988330000000  0.4521820000000 1.0
C      1  0.4980140000000  0.4859570000000  0.4307460000000 1.0
C      1  0.5206040000000  0.4899090000000  0.6013690000000 1.0
C      1  0.4394910000000  0.4616810000000  0.5538300000000 1.0
C      1  0.4855060000000  0.5266990000000  0.4613330000000 1.0
C      1  0.5613760000000  0.5539830000000  0.5109910000000 1.0
C      1  0.4792440000000  0.5602650000000  0.5010780000000 1.0
C      1  0.4905690000000  0.4214780000000  0.5493140000000 1.0
C      1  0.5453290000000  0.5306400000000  0.4220280000000 1.0
C      1  0.5820910000000  0.4906890000000  0.5344470000000 1.0
C      1  0.4391090000000  0.5271160000000  0.4789440000000 1.0
C      1  0.4484380000000  0.5728730000000  0.5003760000000 1.0
C      1  0.4211270000000  0.4865100000000  0.5394860000000 1.0
C      1  0.5118650000000  0.5032940000000  0.5731050000000 1.0
C      1  0.4671740000000  0.4799010000000  0.4183380000000 1.0
C      1  0.4235700000000  0.5531780000000  0.5048880000000 1.0
C      1  0.4994700000000  0.4414820000000  0.4662120000000 1.0
C      1  0.4288450000000  0.4583720000000  0.5216170000000 1.0
C      1  0.5329190000000  0.5765450000000  0.4461410000000 1.0
C      1  0.4886720000000  0.5871490000000  0.5290460000000 1.0
C      1  0.5722150000000  0.5748140000000  0.4861030000000 1.0
C      1  0.5252750000000  0.4086930000000  0.4975000000000 1.0
C      1  0.4881730000000  0.4825980000000  0.5964880000000 1.0
C      1  0.5642010000000  0.4393810000000  0.4899340000000 1.0
C      1  0.4713350000000  0.4686470000000  0.4563670000000 1.0
C      1  0.4925950000000  0.4555080000000  0.5284770000000 1.0
C      1  0.5852110000000  0.5168970000000  0.4894240000000 1.0
C      1  0.4861910000000  0.5288340000000  0.5364180000000 1.0
C      1  0.5426350000000  0.5278470000000  0.5679400000000 1.0
C      1  0.5118680000000  0.5342710000000  0.5793440000000 1.0
C      1  0.5317200000000  0.4627070000000  0.4900860000000 1.0
C      1  0.5361030000000  0.4136760000000  0.5286350000000 1.0
C      1  0.4613400000000  0.5110010000000  0.4171770000000 1.0
END
