TITL C-2778422-5617-77 0.156775747872646 125000 -763.498120726249 0 0 135 (C1) n - 1
REM
REM in /home/nfs/bkarasulu/CARBON/AIRSS/Generating-Clusters/REBO/Only-C1/SD-CG/HFTN-CG
REM
REM
REM
REM
REM
REM ./C.cell (11c1c37f851c82e70ff6c80c92926a4b)
REM
REM compiler GCC version 9.2.1 20190827 (Red Hat 9.2.1-1)
REM options -cpp -mtune=generic -march=x86-64 -g -O0 -fpre-include=/usr/include/finclude/math-vector-fortran.h
REM seed -2061641504 2043557395 1214153365 943051654 -2022082169 1873492439 -1785126826 1722136566 1240196626 -1475379516 -1168123172 -1813608140 -525163901 -1519425197 1130753774 617198874 -1216686570 -1656710946 1490461108 1463423725 -700941939 -27901450 -1871274526 -262661502 2001347934 -1435815192 1003732153 1480182137 1519288993 -244091063 -1601783353 1910913933 -626094528
REM
CELL 1.54180   50.00000   50.00000   50.00000   90.00000   90.00000   90.00000
LATT -1
SFAC C  
C      1  0.5595960000000  0.5681050000000  0.5407480000000 1.0
C      1  0.4819530000000  0.5255170000000  0.5006600000000 1.0
C      1  0.5262620000000  0.5700390000000  0.4794930000000 1.0
C      1  0.5064770000000  0.5371350000000  0.4670510000000 1.0
C      1  0.5160500000000  0.5416180000000  0.4144570000000 1.0
C      1  0.4747880000000  0.4001010000000  0.5047150000000 1.0
C      1  0.5021350000000  0.4440210000000  0.5716810000000 1.0
C      1  0.4400730000000  0.4362320000000  0.5495740000000 1.0
C      1  0.5005040000000  0.5917300000000  0.4859170000000 1.0
C      1  0.5701770000000  0.5023640000000  0.5490900000000 1.0
C      1  0.4035410000000  0.5450990000000  0.4494970000000 1.0
C      1  0.5666980000000  0.5282600000000  0.5195190000000 1.0
C      1  0.4164010000000  0.5306410000000  0.5228170000000 1.0
C      1  0.5304110000000  0.5009650000000  0.4756430000000 1.0
C      1  0.4819190000000  0.4193270000000  0.4608080000000 1.0
C      1  0.5570560000000  0.5831060000000  0.4728290000000 1.0
C      1  0.4563770000000  0.4884760000000  0.5844900000000 1.0
C      1  0.4592090000000  0.4849580000000  0.4182240000000 1.0
C      1  0.5123330000000  0.5530980000000  0.5230620000000 1.0
C      1  0.5021700000000  0.4072620000000  0.4857650000000 1.0
C      1  0.5105250000000  0.5381210000000  0.5822990000000 1.0
C      1  0.4544170000000  0.4652250000000  0.4776260000000 1.0
C      1  0.5886140000000  0.4951020000000  0.5212440000000 1.0
C      1  0.4084080000000  0.5052690000000  0.5077530000000 1.0
C      1  0.4685000000000  0.4471040000000  0.5237760000000 1.0
C      1  0.5406390000000  0.5787520000000  0.4437420000000 1.0
C      1  0.4156080000000  0.4946260000000  0.4572520000000 1.0
C      1  0.5711640000000  0.5421200000000  0.5487500000000 1.0
C      1  0.5146700000000  0.5077280000000  0.4129130000000 1.0
C      1  0.5093190000000  0.5839620000000  0.4538690000000 1.0
C      1  0.5188320000000  0.4673390000000  0.5560110000000 1.0
C      1  0.5004520000000  0.4824350000000  0.5797310000000 1.0
C      1  0.5081730000000  0.4296200000000  0.4431310000000 1.0
C      1  0.5021760000000  0.4529150000000  0.4683250000000 1.0
C      1  0.4621290000000  0.4033310000000  0.5547340000000 1.0
C      1  0.4421760000000  0.4492650000000  0.4347700000000 1.0
C      1  0.5260350000000  0.4122320000000  0.5102040000000 1.0
C      1  0.5222790000000  0.4922210000000  0.6015380000000 1.0
C      1  0.5465390000000  0.5135970000000  0.4486710000000 1.0
C      1  0.5772410000000  0.4712090000000  0.5420460000000 1.0
C      1  0.4056400000000  0.4384400000000  0.5101450000000 1.0
C      1  0.4359510000000  0.5183390000000  0.4817090000000 1.0
C      1  0.5777560000000  0.4461310000000  0.4989600000000 1.0
C      1  0.5404900000000  0.4598170000000  0.5020810000000 1.0
C      1  0.4640870000000  0.5282520000000  0.4562110000000 1.0
C      1  0.5495320000000  0.4713670000000  0.5625230000000 1.0
C      1  0.5501270000000  0.5048420000000  0.5032430000000 1.0
C      1  0.4529770000000  0.5171430000000  0.5429180000000 1.0
C      1  0.4054420000000  0.4880910000000  0.4840530000000 1.0
C      1  0.4761450000000  0.4581280000000  0.4537860000000 1.0
C      1  0.5379960000000  0.5731350000000  0.5593050000000 1.0
C      1  0.5359060000000  0.5377580000000  0.5306630000000 1.0
C      1  0.4792630000000  0.4760100000000  0.5294920000000 1.0
C      1  0.4905670000000  0.5077150000000  0.4350990000000 1.0
C      1  0.5199130000000  0.5099820000000  0.5740400000000 1.0
C      1  0.4584500000000  0.5429140000000  0.5588510000000 1.0
C      1  0.4523160000000  0.5381200000000  0.4947700000000 1.0
C      1  0.5113610000000  0.4741050000000  0.4176190000000 1.0
C      1  0.4772060000000  0.5378900000000  0.5847480000000 1.0
C      1  0.5578270000000  0.4394920000000  0.4464870000000 1.0
C      1  0.4324960000000  0.4978040000000  0.5619680000000 1.0
C      1  0.4658510000000  0.4966330000000  0.4559010000000 1.0
C      1  0.3820350000000  0.4287760000000  0.5200840000000 1.0
C      1  0.4493410000000  0.5332940000000  0.4281920000000 1.0
C      1  0.5090370000000  0.5838080000000  0.5479610000000 1.0
C      1  0.5378800000000  0.5515660000000  0.5790390000000 1.0
C      1  0.4439030000000  0.4928470000000  0.5209220000000 1.0
C      1  0.5405660000000  0.4906850000000  0.4251190000000 1.0
C      1  0.4824710000000  0.4648520000000  0.4220750000000 1.0
C      1  0.4756480000000  0.4599410000000  0.5862480000000 1.0
C      1  0.5006570000000  0.4612100000000  0.4993930000000 1.0
C      1  0.5157360000000  0.5237120000000  0.4962650000000 1.0
C      1  0.4779330000000  0.4198810000000  0.5391470000000 1.0
C      1  0.4558430000000  0.5100470000000  0.4071680000000 1.0
C      1  0.4510790000000  0.5717390000000  0.4695130000000 1.0
C      1  0.4857500000000  0.5393370000000  0.5377530000000 1.0
C      1  0.5811130000000  0.5649830000000  0.4860300000000 1.0
C      1  0.5442310000000  0.5981190000000  0.5007340000000 1.0
C      1  0.5171350000000  0.5858560000000  0.5148910000000 1.0
C      1  0.4688200000000  0.4830050000000  0.5553140000000 1.0
C      1  0.5643100000000  0.5367900000000  0.4326780000000 1.0
C      1  0.4307110000000  0.4267500000000  0.5205670000000 1.0
C      1  0.4564400000000  0.4329930000000  0.4776030000000 1.0
C      1  0.5312810000000  0.4344870000000  0.4881050000000 1.0
C      1  0.4543190000000  0.4382010000000  0.5726960000000 1.0
C      1  0.4405510000000  0.4634830000000  0.5324250000000 1.0
C      1  0.4861850000000  0.5581270000000  0.5019920000000 1.0
C      1  0.5596250000000  0.5317580000000  0.5740410000000 1.0
C      1  0.5072370000000  0.4117960000000  0.5349890000000 1.0
C      1  0.5234780000000  0.5011870000000  0.5211550000000 1.0
C      1  0.5202070000000  0.5324070000000  0.4456350000000 1.0
C      1  0.4673650000000  0.5145730000000  0.5985340000000 1.0
C      1  0.4700020000000  0.4342600000000  0.4322470000000 1.0
C      1  0.4543060000000  0.5663800000000  0.5397890000000 1.0
C      1  0.5313580000000  0.4493270000000  0.4272900000000 1.0
C      1  0.4396130000000  0.4804710000000  0.4440160000000 1.0
C      1  0.5997300000000  0.5456220000000  0.4894040000000 1.0
C      1  0.5371870000000  0.5109200000000  0.5484200000000 1.0
C      1  0.5093020000000  0.4189830000000  0.5638830000000 1.0
C      1  0.5851140000000  0.4807680000000  0.4414560000000 1.0
C      1  0.5049500000000  0.4916870000000  0.4598560000000 1.0
C      1  0.5109720000000  0.4747680000000  0.5267270000000 1.0
C      1  0.5859360000000  0.4776520000000  0.4948120000000 1.0
C      1  0.5579320000000  0.4995180000000  0.5801420000000 1.0
C      1  0.5277810000000  0.4671570000000  0.4547770000000 1.0
C      1  0.4784740000000  0.5537050000000  0.4688410000000 1.0
C      1  0.5575800000000  0.5696230000000  0.5102790000000 1.0
C      1  0.4246490000000  0.5266390000000  0.4508190000000 1.0
C      1  0.4829320000000  0.5387360000000  0.4229320000000 1.0
C      1  0.5512030000000  0.4554010000000  0.5320880000000 1.0
C      1  0.5950330000000  0.5250400000000  0.5064220000000 1.0
C      1  0.4799650000000  0.5083410000000  0.5265850000000 1.0
C      1  0.4809250000000  0.5781310000000  0.5294570000000 1.0
C      1  0.5636750000000  0.5226790000000  0.4776650000000 1.0
C      1  0.5565550000000  0.4264830000000  0.5169240000000 1.0
C      1  0.4444000000000  0.4927220000000  0.4911650000000 1.0
C      1  0.4147120000000  0.4857900000000  0.5352560000000 1.0
C      1  0.4503190000000  0.4178900000000  0.5012650000000 1.0
C      1  0.4146050000000  0.5244840000000  0.5504440000000 1.0
C      1  0.4725810000000  0.5952230000000  0.5033920000000 1.0
C      1  0.4875690000000  0.4322300000000  0.5026340000000 1.0
C      1  0.5343250000000  0.4282200000000  0.4609710000000 1.0
C      1  0.5764630000000  0.4510920000000  0.4667450000000 1.0
C      1  0.5676120000000  0.4765950000000  0.4240790000000 1.0
C      1  0.4887030000000  0.5667780000000  0.4392220000000 1.0
C      1  0.4047550000000  0.4602620000000  0.4917380000000 1.0
C      1  0.5425960000000  0.5447720000000  0.4923350000000 1.0
C      1  0.4473490000000  0.5816990000000  0.4948420000000 1.0
C      1  0.5506860000000  0.4667780000000  0.4748120000000 1.0
C      1  0.5857420000000  0.5204860000000  0.4447350000000 1.0
C      1  0.4944910000000  0.5588420000000  0.5628910000000 1.0
C      1  0.5445920000000  0.5566390000000  0.4252950000000 1.0
C      1  0.5846010000000  0.4969660000000  0.4696320000000 1.0
C      1  0.4361110000000  0.5574550000000  0.5154870000000 1.0
C      1  0.4824020000000  0.4842380000000  0.4829590000000 1.0
END
