TITL C-2778437-8639-465 0.0045573714986425 125000 -934.724976181578 0 0 164 (C1) n - 1
REM
REM in /home/nfs/bkarasulu/CARBON/AIRSS/Generating-Clusters/REBO/Only-C1/SD-CG/HFTN-CG
REM
REM
REM
REM
REM
REM ./C.cell (11c1c37f851c82e70ff6c80c92926a4b)
REM
REM compiler GCC version 9.2.1 20190827 (Red Hat 9.2.1-1)
REM options -cpp -mtune=generic -march=x86-64 -g -O0 -fpre-include=/usr/include/finclude/math-vector-fortran.h
REM seed 1830579764 149528247 -957844290 171463081 -42980822 -1481132333 -1373198968 -2076565897 413802975 1550156988 -1804681528 1476191551 1299834428 -638804727 -1473183237 1672413850 -1730470264 -1452558079 -927844329 -736057976 -634273344 1965461742 -185085573 2100634351 1510514112 86894283 1581390726 -2095664802 1568869302 611549250 -1701370810 -1361577111 -447563506
REM
CELL 1.54180   50.00000   50.00000   50.00000   90.00000   90.00000   90.00000
LATT -1
SFAC C  
C      1  0.5762650000000  0.4531170000000  0.5631830000000 1.0
C      1  0.4334490000000  0.5477910000000  0.4538920000000 1.0
C      1  0.4956010000000  0.4785220000000  0.4770830000000 1.0
C      1  0.3959990000000  0.4435130000000  0.4821510000000 1.0
C      1  0.5203730000000  0.5181360000000  0.4180210000000 1.0
C      1  0.4030050000000  0.4921780000000  0.5305780000000 1.0
C      1  0.5377960000000  0.5243040000000  0.5559670000000 1.0
C      1  0.4856800000000  0.4219040000000  0.5721640000000 1.0
C      1  0.5288650000000  0.5572350000000  0.4329800000000 1.0
C      1  0.4937290000000  0.4230430000000  0.5332450000000 1.0
C      1  0.5863340000000  0.4820430000000  0.4582600000000 1.0
C      1  0.4388930000000  0.4226040000000  0.5269090000000 1.0
C      1  0.5761880000000  0.4812300000000  0.5521210000000 1.0
C      1  0.5277230000000  0.4085870000000  0.4416440000000 1.0
C      1  0.5376690000000  0.3974300000000  0.4972260000000 1.0
C      1  0.4648200000000  0.4745000000000  0.4710270000000 1.0
C      1  0.5741550000000  0.4127980000000  0.5313560000000 1.0
C      1  0.4533840000000  0.5032250000000  0.4576420000000 1.0
C      1  0.5570340000000  0.4874610000000  0.3996750000000 1.0
C      1  0.4939600000000  0.4652580000000  0.4370540000000 1.0
C      1  0.4535020000000  0.5295060000000  0.4386420000000 1.0
C      1  0.4692280000000  0.4735880000000  0.5728080000000 1.0
C      1  0.5297380000000  0.5531920000000  0.5865660000000 1.0
C      1  0.4935990000000  0.5527290000000  0.4525270000000 1.0
C      1  0.4272710000000  0.5022300000000  0.4257870000000 1.0
C      1  0.5339550000000  0.4874560000000  0.4246980000000 1.0
C      1  0.6042610000000  0.5240060000000  0.5070740000000 1.0
C      1  0.4468290000000  0.5595000000000  0.4813160000000 1.0
C      1  0.5658630000000  0.5115840000000  0.5395520000000 1.0
C      1  0.5397140000000  0.4928620000000  0.5157870000000 1.0
C      1  0.5024640000000  0.5465820000000  0.4141320000000 1.0
C      1  0.5767550000000  0.5294320000000  0.4038170000000 1.0
C      1  0.5585220000000  0.5457510000000  0.4241800000000 1.0
C      1  0.5047420000000  0.5045040000000  0.6003460000000 1.0
C      1  0.5641150000000  0.5370730000000  0.4631920000000 1.0
C      1  0.4486320000000  0.5441400000000  0.5531790000000 1.0
C      1  0.4881040000000  0.6019390000000  0.5197720000000 1.0
C      1  0.4343780000000  0.5775920000000  0.5321890000000 1.0
C      1  0.5031310000000  0.4867300000000  0.3993850000000 1.0
C      1  0.6062300000000  0.4430370000000  0.5039100000000 1.0
C      1  0.4630440000000  0.4347690000000  0.5086430000000 1.0
C      1  0.5765950000000  0.5046890000000  0.5767840000000 1.0
C      1  0.5104770000000  0.4307840000000  0.4257590000000 1.0
C      1  0.4067210000000  0.4946660000000  0.4967770000000 1.0
C      1  0.5296970000000  0.5025200000000  0.3889870000000 1.0
C      1  0.5039220000000  0.5269290000000  0.5222860000000 1.0
C      1  0.5119570000000  0.4729370000000  0.6002290000000 1.0
C      1  0.4595200000000  0.4429330000000  0.5660790000000 1.0
C      1  0.4640570000000  0.4181630000000  0.5453970000000 1.0
C      1  0.4270910000000  0.4453710000000  0.4682320000000 1.0
C      1  0.5178570000000  0.5522910000000  0.5061330000000 1.0
C      1  0.5931280000000  0.4194050000000  0.5089650000000 1.0
C      1  0.4907860000000  0.4375100000000  0.4530410000000 1.0
C      1  0.4850520000000  0.5087770000000  0.4692770000000 1.0
C      1  0.4843280000000  0.5213610000000  0.5412430000000 1.0
C      1  0.5097720000000  0.5975880000000  0.4327930000000 1.0
C      1  0.5013900000000  0.5445200000000  0.5728660000000 1.0
C      1  0.4777490000000  0.5223420000000  0.6051020000000 1.0
C      1  0.5375960000000  0.5872200000000  0.4477960000000 1.0
C      1  0.4742900000000  0.5298990000000  0.4167210000000 1.0
C      1  0.5641070000000  0.5132280000000  0.4291370000000 1.0
C      1  0.4221870000000  0.5321340000000  0.4191100000000 1.0
C      1  0.5007600000000  0.5227110000000  0.4457460000000 1.0
C      1  0.4471770000000  0.4839610000000  0.4130450000000 1.0
C      1  0.5327530000000  0.5505230000000  0.4651860000000 1.0
C      1  0.5383610000000  0.4221790000000  0.5756720000000 1.0
C      1  0.4988450000000  0.5108310000000  0.5689110000000 1.0
C      1  0.5394370000000  0.5800800000000  0.5247050000000 1.0
C      1  0.4649130000000  0.5948550000000  0.4750140000000 1.0
C      1  0.5729350000000  0.4803400000000  0.4289780000000 1.0
C      1  0.4049500000000  0.5344120000000  0.4936170000000 1.0
C      1  0.4391580000000  0.4877430000000  0.5950040000000 1.0
C      1  0.4820550000000  0.4003230000000  0.4810440000000 1.0
C      1  0.5951330000000  0.5287380000000  0.4838450000000 1.0
C      1  0.4154480000000  0.4386810000000  0.5390120000000 1.0
C      1  0.5403700000000  0.5043830000000  0.4499380000000 1.0
C      1  0.5095360000000  0.4338130000000  0.4780490000000 1.0
C      1  0.4529400000000  0.5703920000000  0.4272670000000 1.0
C      1  0.5558890000000  0.5703810000000  0.4810760000000 1.0
C      1  0.5593400000000  0.4379920000000  0.5832080000000 1.0
C      1  0.4240610000000  0.4363710000000  0.5001030000000 1.0
C      1  0.5029920000000  0.4507150000000  0.5511780000000 1.0
C      1  0.4575980000000  0.5355360000000  0.5031640000000 1.0
C      1  0.5496880000000  0.4833380000000  0.4739360000000 1.0
C      1  0.5035510000000  0.4527040000000  0.4006710000000 1.0
C      1  0.5481720000000  0.5427400000000  0.5138180000000 1.0
C      1  0.4668960000000  0.5546530000000  0.5299920000000 1.0
C      1  0.4900720000000  0.4957870000000  0.4302570000000 1.0
C      1  0.4485330000000  0.4533010000000  0.4279770000000 1.0
C      1  0.4561360000000  0.5089430000000  0.5925730000000 1.0
C      1  0.5599230000000  0.5800680000000  0.5059890000000 1.0
C      1  0.4854660000000  0.4581110000000  0.5163480000000 1.0
C      1  0.4044240000000  0.5439080000000  0.4430100000000 1.0
C      1  0.4356800000000  0.4749480000000  0.5661810000000 1.0
C      1  0.4925940000000  0.4832050000000  0.5499300000000 1.0
C      1  0.5666990000000  0.4151170000000  0.4921880000000 1.0
C      1  0.5418040000000  0.4346440000000  0.5046460000000 1.0
C      1  0.4961200000000  0.5608090000000  0.5464490000000 1.0
C      1  0.4635720000000  0.4228650000000  0.4815410000000 1.0
C      1  0.5650120000000  0.4768110000000  0.5201810000000 1.0
C      1  0.4547150000000  0.5834360000000  0.5555030000000 1.0
C      1  0.5591450000000  0.4396290000000  0.4696240000000 1.0
C      1  0.4198350000000  0.5475610000000  0.5405590000000 1.0
C      1  0.4196980000000  0.4983050000000  0.4571820000000 1.0
C      1  0.5247420000000  0.3983540000000  0.5290480000000 1.0
C      1  0.5150550000000  0.4126750000000  0.5576300000000 1.0
C      1  0.5286630000000  0.5556610000000  0.5458960000000 1.0
C      1  0.5736690000000  0.5077950000000  0.4713450000000 1.0
C      1  0.4322540000000  0.5158760000000  0.4908070000000 1.0
C      1  0.5481950000000  0.5181830000000  0.4997590000000 1.0
C      1  0.4781820000000  0.5495310000000  0.5930020000000 1.0
C      1  0.5926480000000  0.5008210000000  0.5215570000000 1.0
C      1  0.4938380000000  0.5753120000000  0.4270030000000 1.0
C      1  0.4014060000000  0.5239460000000  0.5429440000000 1.0
C      1  0.4595470000000  0.5152870000000  0.5634630000000 1.0
C      1  0.4404840000000  0.5555340000000  0.4112230000000 1.0
C      1  0.5137560000000  0.4991350000000  0.4958940000000 1.0
C      1  0.5681380000000  0.4543980000000  0.4994770000000 1.0
C      1  0.4452000000000  0.4844950000000  0.4939590000000 1.0
C      1  0.5296650000000  0.5200460000000  0.4741520000000 1.0
C      1  0.5621920000000  0.5512650000000  0.5401160000000 1.0
C      1  0.4895130000000  0.4900860000000  0.5169760000000 1.0
C      1  0.4438410000000  0.5864230000000  0.5005610000000 1.0
C      1  0.3868560000000  0.5169510000000  0.5135590000000 1.0
C      1  0.4661750000000  0.5701160000000  0.4550780000000 1.0
C      1  0.4575430000000  0.4456530000000  0.4578610000000 1.0
C      1  0.5760820000000  0.5341800000000  0.5620150000000 1.0
C      1  0.5643030000000  0.5676720000000  0.4480230000000 1.0
C      1  0.6033700000000  0.4745060000000  0.5102910000000 1.0
C      1  0.5139570000000  0.6062290000000  0.4633020000000 1.0
C      1  0.5542830000000  0.4995280000000  0.5938010000000 1.0
C      1  0.4524310000000  0.4928200000000  0.5422450000000 1.0
C      1  0.5247770000000  0.4632920000000  0.4830620000000 1.0
C      1  0.4562100000000  0.5621010000000  0.5788880000000 1.0
C      1  0.5620900000000  0.4351740000000  0.5434910000000 1.0
C      1  0.4089770000000  0.4737970000000  0.4733350000000 1.0
C      1  0.4584070000000  0.4597280000000  0.5370480000000 1.0
C      1  0.4942680000000  0.6021590000000  0.4859560000000 1.0
C      1  0.4730950000000  0.5015550000000  0.4021440000000 1.0
C      1  0.4615210000000  0.5029990000000  0.5142320000000 1.0
C      1  0.4929610000000  0.5604240000000  0.4843570000000 1.0
C      1  0.4747150000000  0.5744220000000  0.5070540000000 1.0
C      1  0.5385030000000  0.4752300000000  0.5875440000000 1.0
C      1  0.4838970000000  0.5918330000000  0.5486630000000 1.0
C      1  0.5558850000000  0.3921680000000  0.5250400000000 1.0
C      1  0.5255640000000  0.4593350000000  0.4331210000000 1.0
C      1  0.4032960000000  0.5237500000000  0.4645000000000 1.0
C      1  0.5534160000000  0.4617580000000  0.4483500000000 1.0
C      1  0.5350980000000  0.4728080000000  0.5592450000000 1.0
C      1  0.4181270000000  0.4688360000000  0.5417310000000 1.0
C      1  0.4966860000000  0.4178670000000  0.5032760000000 1.0
C      1  0.4199380000000  0.5577030000000  0.5083780000000 1.0
C      1  0.5158410000000  0.4512390000000  0.5134410000000 1.0
C      1  0.5131510000000  0.5852390000000  0.5081850000000 1.0
C      1  0.5342920000000  0.4164130000000  0.4692600000000 1.0
C      1  0.5298690000000  0.4960210000000  0.5440780000000 1.0
C      1  0.4936260000000  0.4532460000000  0.5838320000000 1.0
C      1  0.4882480000000  0.5293560000000  0.4921550000000 1.0
C      1  0.4350690000000  0.4626030000000  0.5137250000000 1.0
C      1  0.4734790000000  0.4625040000000  0.4099800000000 1.0
C      1  0.5940160000000  0.4631670000000  0.4793540000000 1.0
C      1  0.5344080000000  0.4469660000000  0.5416780000000 1.0
C      1  0.4970950000000  0.6091910000000  0.5698820000000 1.0
C      1  0.5318220000000  0.5204420000000  0.5893130000000 1.0
END
