TITL C-2778422-5617-645 -0.000858318142769338 125000 -1119.89358931654 0 0 195 (C1) n - 1
REM
REM in /home/nfs/bkarasulu/CARBON/AIRSS/Generating-Clusters/REBO/Only-C1/SD-CG/HFTN-CG
REM
REM
REM
REM
REM
REM ./C.cell (11c1c37f851c82e70ff6c80c92926a4b)
REM
REM compiler GCC version 9.2.1 20190827 (Red Hat 9.2.1-1)
REM options -cpp -mtune=generic -march=x86-64 -g -O0 -fpre-include=/usr/include/finclude/math-vector-fortran.h
REM seed 345281779 1581769184 -1399855715 1149123109 627748153 1527091534 -1634727055 1289020884 -2065657649 1034096205 308114481 -415785445 39410064 -426087686 1128492257 1138014238 295445008 -632255441 1830644978 -993393355 2116818923 -353952455 -360893723 -1472850806 -2078329369 2101742756 970001137 -552129021 1167272266 856868424 36236579 1103247596 -327032123
REM
CELL 1.54180   50.00000   50.00000   50.00000   90.00000   90.00000   90.00000
LATT -1
SFAC C  
C      1  0.6032760000000  0.4924670000000  0.4519740000000 1.0
C      1  0.4915790000000  0.6117400000000  0.4931590000000 1.0
C      1  0.4802180000000  0.5554450000000  0.5018430000000 1.0
C      1  0.5403650000000  0.4128610000000  0.5426040000000 1.0
C      1  0.6137950000000  0.4369500000000  0.5380830000000 1.0
C      1  0.4694670000000  0.4568170000000  0.4844990000000 1.0
C      1  0.4599130000000  0.5344670000000  0.4048620000000 1.0
C      1  0.5070170000000  0.4190740000000  0.5213920000000 1.0
C      1  0.4863400000000  0.5600610000000  0.4363080000000 1.0
C      1  0.5119190000000  0.5935840000000  0.5599950000000 1.0
C      1  0.4961450000000  0.4826460000000  0.5594780000000 1.0
C      1  0.4797300000000  0.4654030000000  0.4199940000000 1.0
C      1  0.5681750000000  0.4385650000000  0.4307990000000 1.0
C      1  0.4249870000000  0.4138310000000  0.5046920000000 1.0
C      1  0.5248540000000  0.5182170000000  0.4040210000000 1.0
C      1  0.4954070000000  0.5314810000000  0.4826480000000 1.0
C      1  0.5001050000000  0.3916470000000  0.5064970000000 1.0
C      1  0.4743700000000  0.4401060000000  0.5118100000000 1.0
C      1  0.5163970000000  0.4510980000000  0.5157490000000 1.0
C      1  0.4149450000000  0.5353250000000  0.5004020000000 1.0
C      1  0.4646780000000  0.5562400000000  0.5774570000000 1.0
C      1  0.5106580000000  0.5787010000000  0.4610710000000 1.0
C      1  0.5371190000000  0.5379600000000  0.5416730000000 1.0
C      1  0.5887970000000  0.5372050000000  0.5744760000000 1.0
C      1  0.4013410000000  0.5602780000000  0.4724920000000 1.0
C      1  0.5734690000000  0.5173490000000  0.4648340000000 1.0
C      1  0.5205340000000  0.4990090000000  0.5706720000000 1.0
C      1  0.4863580000000  0.5136230000000  0.5561940000000 1.0
C      1  0.4424200000000  0.5403780000000  0.5325170000000 1.0
C      1  0.4659580000000  0.5380820000000  0.5506590000000 1.0
C      1  0.5230230000000  0.5400350000000  0.6000550000000 1.0
C      1  0.4748170000000  0.4889990000000  0.4745890000000 1.0
C      1  0.4100680000000  0.5453690000000  0.5385800000000 1.0
C      1  0.5139450000000  0.3906160000000  0.4823100000000 1.0
C      1  0.5029680000000  0.5520760000000  0.5564970000000 1.0
C      1  0.5257990000000  0.6045910000000  0.5305450000000 1.0
C      1  0.5599250000000  0.4540800000000  0.4660460000000 1.0
C      1  0.4697820000000  0.4897180000000  0.5068760000000 1.0
C      1  0.5368710000000  0.4438890000000  0.5404450000000 1.0
C      1  0.5844480000000  0.4681310000000  0.4372200000000 1.0
C      1  0.4623350000000  0.5262570000000  0.4815880000000 1.0
C      1  0.5964720000000  0.5067180000000  0.4964320000000 1.0
C      1  0.5283660000000  0.4527240000000  0.5886440000000 1.0
C      1  0.4492780000000  0.4747680000000  0.5801840000000 1.0
C      1  0.4095160000000  0.4955200000000  0.4327050000000 1.0
C      1  0.4968110000000  0.3995020000000  0.4609780000000 1.0
C      1  0.4596890000000  0.4925670000000  0.4377560000000 1.0
C      1  0.4394190000000  0.5895410000000  0.4653940000000 1.0
C      1  0.5349840000000  0.5138740000000  0.5199710000000 1.0
C      1  0.5376550000000  0.5042170000000  0.4537350000000 1.0
C      1  0.5503350000000  0.4623550000000  0.3974510000000 1.0
C      1  0.4376810000000  0.5444540000000  0.4266360000000 1.0
C      1  0.4639720000000  0.5989200000000  0.4851720000000 1.0
C      1  0.4199490000000  0.4720710000000  0.5627040000000 1.0
C      1  0.5798460000000  0.5567400000000  0.4668030000000 1.0
C      1  0.3900650000000  0.4710100000000  0.5146540000000 1.0
C      1  0.5183180000000  0.5488280000000  0.4689590000000 1.0
C      1  0.5373750000000  0.5912910000000  0.5013630000000 1.0
C      1  0.4970830000000  0.4312210000000  0.5877970000000 1.0
C      1  0.4317480000000  0.4438530000000  0.4618620000000 1.0
C      1  0.6044780000000  0.5512210000000  0.5175330000000 1.0
C      1  0.4056590000000  0.4417470000000  0.5071140000000 1.0
C      1  0.5020550000000  0.4126550000000  0.5528820000000 1.0
C      1  0.4263100000000  0.4375790000000  0.4313260000000 1.0
C      1  0.5637900000000  0.5549840000000  0.5494590000000 1.0
C      1  0.5336750000000  0.4963110000000  0.4257790000000 1.0
C      1  0.4391590000000  0.5335260000000  0.5797300000000 1.0
C      1  0.5274110000000  0.4224600000000  0.5727980000000 1.0
C      1  0.4573370000000  0.5027970000000  0.4059350000000 1.0
C      1  0.5484580000000  0.4893580000000  0.5623690000000 1.0
C      1  0.5904200000000  0.4457050000000  0.4622410000000 1.0
C      1  0.4927250000000  0.5832670000000  0.5338750000000 1.0
C      1  0.4975530000000  0.4802170000000  0.6047270000000 1.0
C      1  0.5427860000000  0.4025180000000  0.4841000000000 1.0
C      1  0.6080810000000  0.4457920000000  0.5096350000000 1.0
C      1  0.4738060000000  0.5180770000000  0.5849760000000 1.0
C      1  0.5609840000000  0.5240040000000  0.4915210000000 1.0
C      1  0.3866500000000  0.5445420000000  0.4937260000000 1.0
C      1  0.4494120000000  0.5746540000000  0.4377120000000 1.0
C      1  0.5551880000000  0.4822820000000  0.4683200000000 1.0
C      1  0.5088470000000  0.4769560000000  0.4229520000000 1.0
C      1  0.4055900000000  0.4999050000000  0.5611400000000 1.0
C      1  0.4309950000000  0.4723450000000  0.5088120000000 1.0
C      1  0.5503080000000  0.5682070000000  0.4542980000000 1.0
C      1  0.5683800000000  0.5405410000000  0.5972180000000 1.0
C      1  0.4960810000000  0.6128400000000  0.5208740000000 1.0
C      1  0.5707280000000  0.5098480000000  0.4317040000000 1.0
C      1  0.4417740000000  0.4194210000000  0.4756520000000 1.0
C      1  0.5776140000000  0.4825400000000  0.4876740000000 1.0
C      1  0.4256900000000  0.5713930000000  0.4824640000000 1.0
C      1  0.4683480000000  0.4824090000000  0.5402840000000 1.0
C      1  0.4766790000000  0.5806960000000  0.4589330000000 1.0
C      1  0.4923230000000  0.5241300000000  0.4066510000000 1.0
C      1  0.4087100000000  0.5249610000000  0.4238850000000 1.0
C      1  0.5371960000000  0.4511240000000  0.4334240000000 1.0
C      1  0.5561720000000  0.4216820000000  0.4594100000000 1.0
C      1  0.5179200000000  0.5868810000000  0.4118950000000 1.0
C      1  0.4895730000000  0.5422330000000  0.5288490000000 1.0
C      1  0.4751270000000  0.4870360000000  0.3867000000000 1.0
C      1  0.4746060000000  0.4102040000000  0.5733210000000 1.0
C      1  0.4336030000000  0.5015430000000  0.4667040000000 1.0
C      1  0.5144480000000  0.4233560000000  0.4506410000000 1.0
C      1  0.4637320000000  0.4618160000000  0.3837490000000 1.0
C      1  0.4733120000000  0.3873770000000  0.5168940000000 1.0
C      1  0.5356330000000  0.5860250000000  0.5775780000000 1.0
C      1  0.5549850000000  0.4595480000000  0.5612920000000 1.0
C      1  0.5503430000000  0.4048020000000  0.5175780000000 1.0
C      1  0.4451970000000  0.5033660000000  0.5651640000000 1.0
C      1  0.3698480000000  0.5231080000000  0.4849100000000 1.0
C      1  0.5867670000000  0.5730380000000  0.5026320000000 1.0
C      1  0.5566690000000  0.5739720000000  0.5720380000000 1.0
C      1  0.4639710000000  0.5736210000000  0.5332910000000 1.0
C      1  0.5801500000000  0.4526230000000  0.5691690000000 1.0
C      1  0.4735520000000  0.5141730000000  0.4540600000000 1.0
C      1  0.4519110000000  0.3943870000000  0.4969390000000 1.0
C      1  0.5030250000000  0.5272710000000  0.6235240000000 1.0
C      1  0.4397010000000  0.4952740000000  0.5325380000000 1.0
C      1  0.5000240000000  0.4382730000000  0.4264770000000 1.0
C      1  0.5024210000000  0.5127040000000  0.5261970000000 1.0
C      1  0.5646900000000  0.5535510000000  0.5173320000000 1.0
C      1  0.4298170000000  0.5717450000000  0.5289610000000 1.0
C      1  0.4358920000000  0.4423440000000  0.5592480000000 1.0
C      1  0.4054570000000  0.5438580000000  0.4496610000000 1.0
C      1  0.5028020000000  0.5642640000000  0.5858910000000 1.0
C      1  0.5016630000000  0.5003060000000  0.3862200000000 1.0
C      1  0.4651780000000  0.4411780000000  0.5663630000000 1.0
C      1  0.4858370000000  0.5329850000000  0.4352530000000 1.0
C      1  0.5771300000000  0.4541520000000  0.5023950000000 1.0
C      1  0.4920750000000  0.5755320000000  0.4096390000000 1.0
C      1  0.5209690000000  0.5285170000000  0.5694200000000 1.0
C      1  0.5169360000000  0.4705380000000  0.4876880000000 1.0
C      1  0.5305800000000  0.4841500000000  0.5988340000000 1.0
C      1  0.5811240000000  0.5027700000000  0.5438590000000 1.0
C      1  0.4421080000000  0.4740200000000  0.4576770000000 1.0
C      1  0.4343660000000  0.5254040000000  0.4532890000000 1.0
C      1  0.4616330000000  0.5682790000000  0.4065320000000 1.0
C      1  0.6180440000000  0.4812530000000  0.4746360000000 1.0
C      1  0.4959800000000  0.4275440000000  0.4894810000000 1.0
C      1  0.3963630000000  0.5143050000000  0.5346360000000 1.0
C      1  0.4460610000000  0.5500230000000  0.4997320000000 1.0
C      1  0.4122660000000  0.4637450000000  0.4815470000000 1.0
C      1  0.4774850000000  0.4597440000000  0.5920510000000 1.0
C      1  0.4446590000000  0.4469350000000  0.5141440000000 1.0
C      1  0.5455120000000  0.5355840000000  0.4566090000000 1.0
C      1  0.5525790000000  0.4922480000000  0.5308080000000 1.0
C      1  0.4662240000000  0.4364510000000  0.4307650000000 1.0
C      1  0.5120360000000  0.5674600000000  0.5032090000000 1.0
C      1  0.5147440000000  0.6005210000000  0.4810970000000 1.0
C      1  0.4802840000000  0.5859580000000  0.5712770000000 1.0
C      1  0.4900950000000  0.4651760000000  0.4587160000000 1.0
C      1  0.4851380000000  0.4464520000000  0.5402310000000 1.0
C      1  0.3950110000000  0.4978550000000  0.5119600000000 1.0
C      1  0.4161750000000  0.5050320000000  0.4919210000000 1.0
C      1  0.4672000000000  0.3981400000000  0.4669710000000 1.0
C      1  0.4733910000000  0.3973040000000  0.5429240000000 1.0
C      1  0.5535050000000  0.4317200000000  0.4978520000000 1.0
C      1  0.3774150000000  0.5009520000000  0.4706330000000 1.0
C      1  0.6037530000000  0.4828010000000  0.5397160000000 1.0
C      1  0.4611680000000  0.6029110000000  0.5484310000000 1.0
C      1  0.5257180000000  0.4383050000000  0.4792670000000 1.0
C      1  0.5616230000000  0.4810390000000  0.4174350000000 1.0
C      1  0.4834750000000  0.5446840000000  0.6031770000000 1.0
C      1  0.5217490000000  0.5653930000000  0.5334800000000 1.0
C      1  0.5784700000000  0.5433200000000  0.4353410000000 1.0
C      1  0.6119590000000  0.4799730000000  0.5083050000000 1.0
C      1  0.3981390000000  0.4850910000000  0.4590950000000 1.0
C      1  0.5536920000000  0.4638550000000  0.5215170000000 1.0
C      1  0.5216560000000  0.4521110000000  0.4037780000000 1.0
C      1  0.6112330000000  0.4527760000000  0.4790820000000 1.0
C      1  0.5712650000000  0.5083460000000  0.5747780000000 1.0
C      1  0.5999960000000  0.5383320000000  0.4861270000000 1.0
C      1  0.5301260000000  0.5835740000000  0.4359160000000 1.0
C      1  0.4039470000000  0.4558950000000  0.5384610000000 1.0
C      1  0.4132020000000  0.5290820000000  0.5671310000000 1.0
C      1  0.5396430000000  0.5492260000000  0.4953630000000 1.0
C      1  0.5336270000000  0.5109350000000  0.4857280000000 1.0
C      1  0.5614210000000  0.5806010000000  0.4839250000000 1.0
C      1  0.5964360000000  0.5452390000000  0.5449180000000 1.0
C      1  0.5774550000000  0.5218550000000  0.5188920000000 1.0
C      1  0.4865500000000  0.5055100000000  0.6100250000000 1.0
C      1  0.4456370000000  0.5102320000000  0.5037040000000 1.0
C      1  0.5058440000000  0.5017650000000  0.4956580000000 1.0
C      1  0.4454280000000  0.4525760000000  0.4091320000000 1.0
C      1  0.5460140000000  0.5146050000000  0.5971810000000 1.0
C      1  0.4316410000000  0.4286090000000  0.5342590000000 1.0
C      1  0.4491300000000  0.5970210000000  0.5158610000000 1.0
C      1  0.5206850000000  0.4682750000000  0.4538230000000 1.0
C      1  0.5519060000000  0.5325720000000  0.4165500000000 1.0
C      1  0.5411520000000  0.4171640000000  0.4303970000000 1.0
C      1  0.6022380000000  0.5264330000000  0.4537740000000 1.0
C      1  0.6038340000000  0.4581730000000  0.5547170000000 1.0
C      1  0.5050240000000  0.4539370000000  0.5639190000000 1.0
C      1  0.4943430000000  0.4732720000000  0.5208410000000 1.0
C      1  0.4777180000000  0.4345810000000  0.4613050000000 1.0
C      1  0.4339130000000  0.4820660000000  0.4194580000000 1.0
END
