TITL C-2778437-8639-206 2.95931659239978e-05 125000 -276.986908078217 0 0 50 (C1) n - 1
REM
REM in /home/nfs/bkarasulu/CARBON/AIRSS/Generating-Clusters/REBO/Only-C1/SD-CG/HFTN-CG
REM
REM
REM
REM
REM
REM ./C.cell (11c1c37f851c82e70ff6c80c92926a4b)
REM
REM compiler GCC version 9.2.1 20190827 (Red Hat 9.2.1-1)
REM options -cpp -mtune=generic -march=x86-64 -g -O0 -fpre-include=/usr/include/finclude/math-vector-fortran.h
REM seed 1438801443 -670476296 341321101 869168704 -1604064897 -1730147067 732039975 1205116945 -1305293645 162093721 1545622472 -1607886650 -389648848 -1818084983 845208972 -392474493 448126823 -1015428315 -1418714047 -1716763658 -987309509 2024946582 -1290687781 -1573587928 -248100796 -716109620 1937776659 -1443465727 -91518030 667795775 -2051696225 -1692739382 -1912992325
REM
CELL 1.54180   50.00000   50.00000   50.00000   90.00000   90.00000   90.00000
LATT -1
SFAC C  
C      1  0.4841510000000  0.4891530000000  0.4660790000000 1.0
C      1  0.4434530000000  0.4895060000000  0.5377110000000 1.0
C      1  0.4392470000000  0.4694950000000  0.5191640000000 1.0
C      1  0.5556880000000  0.4736220000000  0.5448380000000 1.0
C      1  0.5366150000000  0.5200630000000  0.5336470000000 1.0
C      1  0.4955210000000  0.5076510000000  0.5625420000000 1.0
C      1  0.5023550000000  0.4809700000000  0.5441480000000 1.0
C      1  0.5475930000000  0.5054040000000  0.4848230000000 1.0
C      1  0.4423690000000  0.5009100000000  0.4729230000000 1.0
C      1  0.4867040000000  0.5408650000000  0.4487280000000 1.0
C      1  0.4723060000000  0.4425500000000  0.4628620000000 1.0
C      1  0.4772930000000  0.5012140000000  0.4363770000000 1.0
C      1  0.4244380000000  0.4406760000000  0.5257340000000 1.0
C      1  0.5136860000000  0.4366550000000  0.5091250000000 1.0
C      1  0.5282930000000  0.5582940000000  0.5411370000000 1.0
C      1  0.4579310000000  0.5112180000000  0.4939420000000 1.0
C      1  0.5285740000000  0.4819370000000  0.5286690000000 1.0
C      1  0.4990530000000  0.5468800000000  0.5563270000000 1.0
C      1  0.4876790000000  0.5212850000000  0.4692610000000 1.0
C      1  0.4841690000000  0.4947170000000  0.4995800000000 1.0
C      1  0.4382290000000  0.4769760000000  0.4603930000000 1.0
C      1  0.5270610000000  0.5706410000000  0.4962030000000 1.0
C      1  0.5238130000000  0.5084250000000  0.4238590000000 1.0
C      1  0.5411960000000  0.5553270000000  0.5156110000000 1.0
C      1  0.5647240000000  0.4485020000000  0.5367920000000 1.0
C      1  0.4899140000000  0.4448260000000  0.5112780000000 1.0
C      1  0.5107310000000  0.5786190000000  0.5580780000000 1.0
C      1  0.5104950000000  0.5528440000000  0.4406110000000 1.0
C      1  0.5538720000000  0.5215380000000  0.5629450000000 1.0
C      1  0.4939780000000  0.5075400000000  0.4186480000000 1.0
C      1  0.5325680000000  0.4818500000000  0.4389950000000 1.0
C      1  0.5219740000000  0.4603580000000  0.4537180000000 1.0
C      1  0.5391360000000  0.4532640000000  0.5148920000000 1.0
C      1  0.4356100000000  0.4463000000000  0.4962860000000 1.0
C      1  0.5322280000000  0.5363670000000  0.4377680000000 1.0
C      1  0.5219460000000  0.5246680000000  0.5626510000000 1.0
C      1  0.4486670000000  0.5185130000000  0.5444710000000 1.0
C      1  0.5419070000000  0.5095890000000  0.4553110000000 1.0
C      1  0.5463410000000  0.4783140000000  0.4930380000000 1.0
C      1  0.4527420000000  0.5343760000000  0.5080050000000 1.0
C      1  0.5395010000000  0.4545550000000  0.4751830000000 1.0
C      1  0.4707820000000  0.4862740000000  0.5527510000000 1.0
C      1  0.5026610000000  0.5590480000000  0.4912280000000 1.0
C      1  0.4716710000000  0.5293810000000  0.5535720000000 1.0
C      1  0.4813960000000  0.4718730000000  0.5209490000000 1.0
C      1  0.4937800000000  0.4609820000000  0.4600470000000 1.0
C      1  0.5130510000000  0.5076220000000  0.5122660000000 1.0
C      1  0.4995710000000  0.5307780000000  0.4923970000000 1.0
C      1  0.4459160000000  0.4513390000000  0.4704310000000 1.0
C      1  0.5474220000000  0.5262460000000  0.5040060000000 1.0
END
