TITL C-2778423-5760-1046 0.00310906359479649 125000 -829.417528046182 0 0 144 (C1) n - 1
REM
REM in /home/nfs/bkarasulu/CARBON/AIRSS/Generating-Clusters/REBO/Only-C1/SD-CG/HFTN-CG
REM
REM
REM
REM
REM
REM ./C.cell (11c1c37f851c82e70ff6c80c92926a4b)
REM
REM compiler GCC version 9.2.1 20190827 (Red Hat 9.2.1-1)
REM options -cpp -mtune=generic -march=x86-64 -g -O0 -fpre-include=/usr/include/finclude/math-vector-fortran.h
REM seed 1975547123 -1352852355 -442802006 -129684527 -1983475750 -2075379346 -1499600166 1213087958 510753456 -1677917632 2040856811 -570341969 386362401 1087601347 1939762026 536322120 -1103221105 1537501509 1885063568 621692722 -2139274709 -2147479512 -1150530016 2102184009 271470832 2022210393 -1609598834 -264885873 -896364229 769910576 89405105 1393158304 -986169199
REM
CELL 1.54180   50.00000   50.00000   50.00000   90.00000   90.00000   90.00000
LATT -1
SFAC C  
C      1  0.4730830000000  0.4234170000000  0.5859720000000 1.0
C      1  0.5215770000000  0.4468030000000  0.4813440000000 1.0
C      1  0.4999170000000  0.4407650000000  0.5070290000000 1.0
C      1  0.5099250000000  0.4862940000000  0.6152280000000 1.0
C      1  0.4411800000000  0.4428350000000  0.5514240000000 1.0
C      1  0.4970360000000  0.5314700000000  0.5584490000000 1.0
C      1  0.5858100000000  0.5018940000000  0.5137240000000 1.0
C      1  0.4188150000000  0.5187330000000  0.4544500000000 1.0
C      1  0.4323820000000  0.4961250000000  0.5035980000000 1.0
C      1  0.5217030000000  0.5825540000000  0.4556370000000 1.0
C      1  0.4719520000000  0.4243820000000  0.4953380000000 1.0
C      1  0.4740490000000  0.4456580000000  0.5288140000000 1.0
C      1  0.4941670000000  0.4791480000000  0.5461190000000 1.0
C      1  0.5812740000000  0.5466930000000  0.4899190000000 1.0
C      1  0.5013980000000  0.5035260000000  0.4172040000000 1.0
C      1  0.4863300000000  0.5440270000000  0.4512800000000 1.0
C      1  0.5149880000000  0.5112580000000  0.5794880000000 1.0
C      1  0.4611280000000  0.4772610000000  0.4251240000000 1.0
C      1  0.4739220000000  0.5487300000000  0.4803470000000 1.0
C      1  0.5112310000000  0.5304490000000  0.4685530000000 1.0
C      1  0.5634730000000  0.3905470000000  0.5159300000000 1.0
C      1  0.4099520000000  0.5490050000000  0.5356450000000 1.0
C      1  0.5347890000000  0.5372540000000  0.5692700000000 1.0
C      1  0.4208510000000  0.4689250000000  0.4533890000000 1.0
C      1  0.5522780000000  0.5088100000000  0.5687270000000 1.0
C      1  0.4888630000000  0.5912120000000  0.4536790000000 1.0
C      1  0.4643160000000  0.4771530000000  0.5335570000000 1.0
C      1  0.4140790000000  0.4436050000000  0.4753550000000 1.0
C      1  0.4710760000000  0.4639720000000  0.4852780000000 1.0
C      1  0.5301110000000  0.4998670000000  0.4148490000000 1.0
C      1  0.4535270000000  0.5545280000000  0.5307600000000 1.0
C      1  0.5417470000000  0.5286540000000  0.4104430000000 1.0
C      1  0.5169670000000  0.5651220000000  0.5667790000000 1.0
C      1  0.4391630000000  0.5440240000000  0.4611910000000 1.0
C      1  0.4876390000000  0.4609680000000  0.4108360000000 1.0
C      1  0.5414770000000  0.4301950000000  0.5558410000000 1.0
C      1  0.6148110000000  0.5008330000000  0.4954890000000 1.0
C      1  0.4633810000000  0.5147370000000  0.5967760000000 1.0
C      1  0.5153130000000  0.4398970000000  0.5359310000000 1.0
C      1  0.4794650000000  0.4706700000000  0.5738410000000 1.0
C      1  0.5186540000000  0.4774320000000  0.5773260000000 1.0
C      1  0.4899800000000  0.4557100000000  0.4420300000000 1.0
C      1  0.5086870000000  0.5087740000000  0.5404950000000 1.0
C      1  0.4918970000000  0.4500960000000  0.4691550000000 1.0
C      1  0.5386310000000  0.4225760000000  0.4405100000000 1.0
C      1  0.4104300000000  0.5590560000000  0.5081290000000 1.0
C      1  0.5790060000000  0.5109760000000  0.5644710000000 1.0
C      1  0.4501840000000  0.4548420000000  0.4454690000000 1.0
C      1  0.5265290000000  0.5067550000000  0.5115880000000 1.0
C      1  0.5528840000000  0.5707570000000  0.4552720000000 1.0
C      1  0.4481450000000  0.5499330000000  0.4994440000000 1.0
C      1  0.5459100000000  0.4539260000000  0.4354690000000 1.0
C      1  0.4545460000000  0.4897190000000  0.5797060000000 1.0
C      1  0.4269000000000  0.4179640000000  0.4614260000000 1.0
C      1  0.4521230000000  0.4250340000000  0.4516690000000 1.0
C      1  0.5001800000000  0.4256370000000  0.5886290000000 1.0
C      1  0.5619960000000  0.5397790000000  0.4558020000000 1.0
C      1  0.5662060000000  0.4504100000000  0.5317790000000 1.0
C      1  0.4314960000000  0.5802080000000  0.5037620000000 1.0
C      1  0.4584750000000  0.5162670000000  0.4568960000000 1.0
C      1  0.4746780000000  0.5312740000000  0.5256570000000 1.0
C      1  0.4584320000000  0.5913330000000  0.4979980000000 1.0
C      1  0.4562360000000  0.4830290000000  0.4643380000000 1.0
C      1  0.5466200000000  0.4929530000000  0.4433390000000 1.0
C      1  0.5886250000000  0.5220120000000  0.4465960000000 1.0
C      1  0.5547490000000  0.5157290000000  0.5163040000000 1.0
C      1  0.5854350000000  0.5223580000000  0.5389230000000 1.0
C      1  0.5283280000000  0.5807280000000  0.5455950000000 1.0
C      1  0.4835770000000  0.5267870000000  0.4123270000000 1.0
C      1  0.4348210000000  0.5198690000000  0.5464840000000 1.0
C      1  0.4845290000000  0.4776740000000  0.5075150000000 1.0
C      1  0.5629980000000  0.5667920000000  0.4851420000000 1.0
C      1  0.4884460000000  0.5066000000000  0.4645690000000 1.0
C      1  0.4327010000000  0.5841290000000  0.4331430000000 1.0
C      1  0.5795230000000  0.4684020000000  0.5118260000000 1.0
C      1  0.5691760000000  0.5274260000000  0.4187810000000 1.0
C      1  0.5379940000000  0.4708410000000  0.4071860000000 1.0
C      1  0.4882390000000  0.5675680000000  0.5728520000000 1.0
C      1  0.5618700000000  0.4522930000000  0.5658170000000 1.0
C      1  0.4817670000000  0.4098600000000  0.5244360000000 1.0
C      1  0.5278460000000  0.5528990000000  0.4399910000000 1.0
C      1  0.4448300000000  0.5342180000000  0.5751590000000 1.0
C      1  0.5361750000000  0.5217670000000  0.4517690000000 1.0
C      1  0.5392890000000  0.4638480000000  0.5349770000000 1.0
C      1  0.5146200000000  0.4452920000000  0.5697500000000 1.0
C      1  0.4104100000000  0.4843790000000  0.5258630000000 1.0
C      1  0.5774880000000  0.4961860000000  0.4294270000000 1.0
C      1  0.4930970000000  0.5553620000000  0.5355240000000 1.0
C      1  0.4869120000000  0.4902350000000  0.6008930000000 1.0
C      1  0.4264850000000  0.4659250000000  0.5458060000000 1.0
C      1  0.6111090000000  0.4733110000000  0.5146110000000 1.0
C      1  0.5346300000000  0.4031590000000  0.5245040000000 1.0
C      1  0.4990690000000  0.5025170000000  0.4944570000000 1.0
C      1  0.4328460000000  0.5255760000000  0.5129340000000 1.0
C      1  0.5549510000000  0.5380620000000  0.5416660000000 1.0
C      1  0.4886580000000  0.4887830000000  0.4392910000000 1.0
C      1  0.5950210000000  0.5000890000000  0.4716490000000 1.0
C      1  0.5114970000000  0.4535280000000  0.3981150000000 1.0
C      1  0.6406520000000  0.4852170000000  0.5096310000000 1.0
C      1  0.4265290000000  0.4945060000000  0.4730050000000 1.0
C      1  0.4401070000000  0.4650870000000  0.4961660000000 1.0
C      1  0.5151480000000  0.4760140000000  0.5192740000000 1.0
C      1  0.5364390000000  0.4775700000000  0.6129160000000 1.0
C      1  0.5453580000000  0.5643630000000  0.5298420000000 1.0
C      1  0.4644040000000  0.5768520000000  0.5527310000000 1.0
C      1  0.5689780000000  0.5173200000000  0.4810020000000 1.0
C      1  0.5407150000000  0.5638340000000  0.5020170000000 1.0
C      1  0.5338310000000  0.4899420000000  0.5517700000000 1.0
C      1  0.4482090000000  0.4245950000000  0.5272610000000 1.0
C      1  0.4351390000000  0.5585960000000  0.5564050000000 1.0
C      1  0.4122330000000  0.5389520000000  0.4813890000000 1.0
C      1  0.4026070000000  0.5159020000000  0.5368080000000 1.0
C      1  0.6670080000000  0.4839410000000  0.5138710000000 1.0
C      1  0.3998050000000  0.5189980000000  0.5035330000000 1.0
C      1  0.4390590000000  0.4329850000000  0.4969540000000 1.0
C      1  0.4738280000000  0.4146210000000  0.4668040000000 1.0
C      1  0.5208960000000  0.6082460000000  0.5046580000000 1.0
C      1  0.5620670000000  0.4217890000000  0.5235860000000 1.0
C      1  0.4787450000000  0.5243590000000  0.4990460000000 1.0
C      1  0.4649770000000  0.5889370000000  0.4699080000000 1.0
C      1  0.4438400000000  0.4916520000000  0.5518750000000 1.0
C      1  0.5130840000000  0.5910430000000  0.4850990000000 1.0
C      1  0.5850280000000  0.4775500000000  0.4067740000000 1.0
C      1  0.5437200000000  0.4678210000000  0.4661150000000 1.0
C      1  0.4574100000000  0.5180520000000  0.4239520000000 1.0
C      1  0.4765260000000  0.5398850000000  0.5821850000000 1.0
C      1  0.4054900000000  0.4677880000000  0.4963070000000 1.0
C      1  0.4451670000000  0.5726740000000  0.4552040000000 1.0
C      1  0.5072840000000  0.4016370000000  0.5275780000000 1.0
C      1  0.5120300000000  0.5418680000000  0.4136930000000 1.0
C      1  0.4792560000000  0.5836920000000  0.5227160000000 1.0
C      1  0.4334720000000  0.4952860000000  0.4339770000000 1.0
C      1  0.4992820000000  0.4050000000000  0.4607740000000 1.0
C      1  0.5291210000000  0.4326860000000  0.4124220000000 1.0
C      1  0.5677850000000  0.4830510000000  0.4833980000000 1.0
C      1  0.4921140000000  0.5702580000000  0.4956680000000 1.0
C      1  0.5499540000000  0.4677060000000  0.5865070000000 1.0
C      1  0.4904490000000  0.5666450000000  0.4364690000000 1.0
C      1  0.5216250000000  0.6048610000000  0.5321030000000 1.0
C      1  0.4611990000000  0.4445370000000  0.5716920000000 1.0
C      1  0.5657290000000  0.4680100000000  0.3934340000000 1.0
C      1  0.5174160000000  0.5517330000000  0.4909030000000 1.0
C      1  0.3912380000000  0.4940070000000  0.4921530000000 1.0
C      1  0.5233680000000  0.4192900000000  0.4635750000000 1.0
END
