TITL C-2778426-5645-931 0.0105468881920958 125000 -232.069062025949 0 0 42 (C1) n - 1
REM
REM in /home/nfs/bkarasulu/CARBON/AIRSS/Generating-Clusters/REBO/Only-C1/SD-CG/HFTN-CG
REM
REM
REM
REM
REM
REM ./C.cell (11c1c37f851c82e70ff6c80c92926a4b)
REM
REM compiler GCC version 9.2.1 20190827 (Red Hat 9.2.1-1)
REM options -cpp -mtune=generic -march=x86-64 -g -O0 -fpre-include=/usr/include/finclude/math-vector-fortran.h
REM seed 1497989132 1729539230 1881056066 1151048568 -1767833254 2019498150 -440663296 1854590196 -962383746 -140300442 -1180242669 -187671556 -1330256192 2057212320 -965466247 -464270822 -562561061 -1118295280 -1757719447 -1494371412 -899701177 1284937121 909118533 147579355 837481442 1184336255 -1163834995 1176165402 -425657 790420568 -680830569 -1335075768 174970658
REM
CELL 1.54180   50.00000   50.00000   50.00000   90.00000   90.00000   90.00000
LATT -1
SFAC C  
C      1  0.4892270000000  0.5521110000000  0.4995860000000 1.0
C      1  0.4899230000000  0.4574110000000  0.5286420000000 1.0
C      1  0.5080200000000  0.5138460000000  0.5146190000000 1.0
C      1  0.5277610000000  0.4997760000000  0.5489500000000 1.0
C      1  0.5201080000000  0.4866680000000  0.4740300000000 1.0
C      1  0.4979160000000  0.5089810000000  0.4347700000000 1.0
C      1  0.4806490000000  0.5000720000000  0.5053470000000 1.0
C      1  0.5524230000000  0.5390290000000  0.5218380000000 1.0
C      1  0.4804750000000  0.4529660000000  0.4901000000000 1.0
C      1  0.4836180000000  0.5728670000000  0.4817000000000 1.0
C      1  0.5319530000000  0.5286330000000  0.5426860000000 1.0
C      1  0.5061900000000  0.4950780000000  0.5673760000000 1.0
C      1  0.5171170000000  0.4420200000000  0.4341400000000 1.0
C      1  0.5067720000000  0.5143840000000  0.4640740000000 1.0
C      1  0.4566340000000  0.5405260000000  0.4798630000000 1.0
C      1  0.5376190000000  0.5135610000000  0.5062250000000 1.0
C      1  0.4718450000000  0.5507150000000  0.5285380000000 1.0
C      1  0.5284720000000  0.5387970000000  0.4664730000000 1.0
C      1  0.4483260000000  0.5460290000000  0.5063640000000 1.0
C      1  0.5425860000000  0.5413380000000  0.4900840000000 1.0
C      1  0.4650940000000  0.4765340000000  0.4912580000000 1.0
C      1  0.5449080000000  0.4916470000000  0.4880500000000 1.0
C      1  0.4135220000000  0.4825240000000  0.4770480000000 1.0
C      1  0.5024080000000  0.5384590000000  0.5346240000000 1.0
C      1  0.4762710000000  0.4339740000000  0.5140030000000 1.0
C      1  0.4531700000000  0.4867920000000  0.5477330000000 1.0
C      1  0.4782900000000  0.5318780000000  0.5559320000000 1.0
C      1  0.5198890000000  0.4382220000000  0.4608920000000 1.0
C      1  0.4386310000000  0.4796080000000  0.4839660000000 1.0
C      1  0.4735300000000  0.4810720000000  0.5300610000000 1.0
C      1  0.5005450000000  0.4876870000000  0.4184010000000 1.0
C      1  0.5109110000000  0.4581060000000  0.4826550000000 1.0
C      1  0.5350670000000  0.4793160000000  0.5290190000000 1.0
C      1  0.4618170000000  0.5655690000000  0.4634490000000 1.0
C      1  0.4338080000000  0.4922300000000  0.5645370000000 1.0
C      1  0.5086480000000  0.4618300000000  0.4175840000000 1.0
C      1  0.5155280000000  0.4628340000000  0.5157370000000 1.0
C      1  0.4845090000000  0.5227850000000  0.4837980000000 1.0
C      1  0.5614710000000  0.4769470000000  0.5224460000000 1.0
C      1  0.5689910000000  0.4793060000000  0.4832940000000 1.0
C      1  0.5919610000000  0.4675390000000  0.4787420000000 1.0
C      1  0.4833990000000  0.5103330000000  0.5713670000000 1.0
END
