TITL C-2778437-8639-780 -0.00191339263128795 125000 -460.493442463325 0 0 80 (C1) n - 1
REM
REM in /home/nfs/bkarasulu/CARBON/AIRSS/Generating-Clusters/REBO/Only-C1/SD-CG/HFTN-CG
REM
REM
REM
REM
REM
REM ./C.cell (11c1c37f851c82e70ff6c80c92926a4b)
REM
REM compiler GCC version 9.2.1 20190827 (Red Hat 9.2.1-1)
REM options -cpp -mtune=generic -march=x86-64 -g -O0 -fpre-include=/usr/include/finclude/math-vector-fortran.h
REM seed 1328033950 -787466307 -1500636128 1909964577 -413885885 -1281702114 658908112 -1138115731 138450023 1985865773 -8383041 -1588438828 -776271445 281591739 -662845003 1528447491 -1375683373 468858533 1115044182 -324422993 -8579000 -995931236 -2067848186 1378307201 -237068110 -1375249399 -22488611 1537269898 -1319410446 -766766096 1237636250 -333554800 -1111280779
REM
CELL 1.54180   50.00000   50.00000   50.00000   90.00000   90.00000   90.00000
LATT -1
SFAC C  
C      1  0.4756740000000  0.4759370000000  0.5332200000000 1.0
C      1  0.5753660000000  0.5318040000000  0.5432960000000 1.0
C      1  0.4696010000000  0.4853160000000  0.5739250000000 1.0
C      1  0.4418120000000  0.4478750000000  0.5068780000000 1.0
C      1  0.5254460000000  0.4979020000000  0.4252890000000 1.0
C      1  0.4408730000000  0.4581780000000  0.4797310000000 1.0
C      1  0.5790760000000  0.4827800000000  0.4796100000000 1.0
C      1  0.5621640000000  0.5181840000000  0.4954990000000 1.0
C      1  0.5452490000000  0.5443160000000  0.4468600000000 1.0
C      1  0.5075070000000  0.5300710000000  0.4596780000000 1.0
C      1  0.4662950000000  0.4086520000000  0.4839790000000 1.0
C      1  0.5345170000000  0.5118890000000  0.4676210000000 1.0
C      1  0.5325480000000  0.5287490000000  0.4286280000000 1.0
C      1  0.5495950000000  0.5461690000000  0.5545630000000 1.0
C      1  0.5064620000000  0.4349370000000  0.4887060000000 1.0
C      1  0.5435160000000  0.5667980000000  0.5008360000000 1.0
C      1  0.5598530000000  0.4557430000000  0.5179010000000 1.0
C      1  0.4282690000000  0.4967600000000  0.5423590000000 1.0
C      1  0.4635700000000  0.5267670000000  0.4342830000000 1.0
C      1  0.5354700000000  0.4455940000000  0.5290250000000 1.0
C      1  0.5130830000000  0.4309170000000  0.5179800000000 1.0
C      1  0.4907500000000  0.5093140000000  0.4930650000000 1.0
C      1  0.5524030000000  0.4512070000000  0.4329820000000 1.0
C      1  0.4294280000000  0.5565240000000  0.5493500000000 1.0
C      1  0.5182210000000  0.5828710000000  0.5099340000000 1.0
C      1  0.5512860000000  0.5571010000000  0.4769790000000 1.0
C      1  0.5867950000000  0.5197460000000  0.5174850000000 1.0
C      1  0.4812610000000  0.4570110000000  0.5104140000000 1.0
C      1  0.4901430000000  0.5038660000000  0.5453390000000 1.0
C      1  0.4892240000000  0.4311870000000  0.5398650000000 1.0
C      1  0.5301690000000  0.5293750000000  0.4965400000000 1.0
C      1  0.4820020000000  0.4325560000000  0.4726580000000 1.0
C      1  0.4330080000000  0.5313070000000  0.4758460000000 1.0
C      1  0.4836950000000  0.4704620000000  0.4855780000000 1.0
C      1  0.4619480000000  0.4521640000000  0.4580220000000 1.0
C      1  0.5029150000000  0.4506510000000  0.5586800000000 1.0
C      1  0.5049890000000  0.5478470000000  0.5384340000000 1.0
C      1  0.4566690000000  0.4396880000000  0.5364100000000 1.0
C      1  0.4794920000000  0.5742140000000  0.4775280000000 1.0
C      1  0.5248810000000  0.4673380000000  0.4407770000000 1.0
C      1  0.4247090000000  0.5098260000000  0.4977280000000 1.0
C      1  0.4433500000000  0.5454110000000  0.5283970000000 1.0
C      1  0.4871400000000  0.5396800000000  0.5627540000000 1.0
C      1  0.4490870000000  0.4984880000000  0.4360980000000 1.0
C      1  0.5107030000000  0.4675930000000  0.4664220000000 1.0
C      1  0.5519730000000  0.5115670000000  0.5352340000000 1.0
C      1  0.4970890000000  0.4765340000000  0.5735760000000 1.0
C      1  0.5226890000000  0.4730760000000  0.5433020000000 1.0
C      1  0.4090920000000  0.4827400000000  0.5103350000000 1.0
C      1  0.4720840000000  0.5054460000000  0.5184480000000 1.0
C      1  0.5296380000000  0.4812530000000  0.5124380000000 1.0
C      1  0.5333980000000  0.5268940000000  0.5671700000000 1.0
C      1  0.5182540000000  0.5004580000000  0.5614990000000 1.0
C      1  0.5694120000000  0.5310470000000  0.4657010000000 1.0
C      1  0.4261650000000  0.4649670000000  0.5318570000000 1.0
C      1  0.5641790000000  0.4995120000000  0.4596350000000 1.0
C      1  0.4997300000000  0.5399930000000  0.4907030000000 1.0
C      1  0.4652340000000  0.4939180000000  0.4807810000000 1.0
C      1  0.5277520000000  0.5256070000000  0.5276310000000 1.0
C      1  0.4776410000000  0.5466720000000  0.4580480000000 1.0
C      1  0.4733150000000  0.4242530000000  0.5107980000000 1.0
C      1  0.4433980000000  0.5158880000000  0.5223690000000 1.0
C      1  0.5606670000000  0.4897090000000  0.5143620000000 1.0
C      1  0.4601930000000  0.5586970000000  0.5099910000000 1.0
C      1  0.4680890000000  0.4740570000000  0.4372430000000 1.0
C      1  0.5961730000000  0.4974570000000  0.4979380000000 1.0
C      1  0.4878520000000  0.5544700000000  0.5137160000000 1.0
C      1  0.5160670000000  0.4934070000000  0.4866980000000 1.0
C      1  0.5540210000000  0.4838390000000  0.4357150000000 1.0
C      1  0.5314240000000  0.4567220000000  0.4898060000000 1.0
C      1  0.4222190000000  0.4800450000000  0.4811570000000 1.0
C      1  0.5644900000000  0.4601950000000  0.4876750000000 1.0
C      1  0.4465210000000  0.5069280000000  0.4644720000000 1.0
C      1  0.4920730000000  0.5174350000000  0.4351890000000 1.0
C      1  0.4515660000000  0.4669530000000  0.5544180000000 1.0
C      1  0.4931650000000  0.4879060000000  0.4296540000000 1.0
C      1  0.5343680000000  0.5643410000000  0.5337190000000 1.0
C      1  0.4970220000000  0.5871220000000  0.4925960000000 1.0
C      1  0.4705410000000  0.5162310000000  0.5695220000000 1.0
C      1  0.4522910000000  0.5538970000000  0.4794560000000 1.0
END
