TITL C-2778428-5639-168 -0.0100841469433667 125000 -814.069199180164 0 0 137 (C1) n - 1
REM
REM in /home/nfs/bkarasulu/CARBON/AIRSS/Generating-Clusters/REBO/Only-C1/SD-CG/HFTN-CG
REM
REM
REM
REM
REM
REM ./C.cell (11c1c37f851c82e70ff6c80c92926a4b)
REM
REM compiler GCC version 9.2.1 20190827 (Red Hat 9.2.1-1)
REM options -cpp -mtune=generic -march=x86-64 -g -O0 -fpre-include=/usr/include/finclude/math-vector-fortran.h
REM seed 1674997176 117222649 -1798180106 -490575030 1164045724 -1832753095 -1087330833 -1015958347 643615591 239736071 -1123651809 -21594402 915835808 526057044 1117383591 1004508273 705583787 -271277689 -1266601596 164704466 1920790207 -471423901 -591765447 1105163397 1425825490 -745151352 968497292 1595402246 -197183662 1340739387 1839299586 2065418620 695829323
REM
CELL 1.54180   50.00000   50.00000   50.00000   90.00000   90.00000   90.00000
LATT -1
SFAC C  
C      1  0.5482910000000  0.4201230000000  0.4976520000000 1.0
C      1  0.4132150000000  0.4873350000000  0.4552420000000 1.0
C      1  0.3930760000000  0.5127030000000  0.4791720000000 1.0
C      1  0.4192840000000  0.5264130000000  0.5165020000000 1.0
C      1  0.4074240000000  0.4657130000000  0.4725530000000 1.0
C      1  0.4056950000000  0.5263550000000  0.4589120000000 1.0
C      1  0.5156640000000  0.4918660000000  0.4979680000000 1.0
C      1  0.4243810000000  0.4451530000000  0.5124120000000 1.0
C      1  0.4905150000000  0.5545390000000  0.5188650000000 1.0
C      1  0.4726480000000  0.4154960000000  0.4575940000000 1.0
C      1  0.4488130000000  0.5854940000000  0.5590280000000 1.0
C      1  0.5295930000000  0.4481810000000  0.4392290000000 1.0
C      1  0.4236510000000  0.4941290000000  0.5136960000000 1.0
C      1  0.5398790000000  0.4227220000000  0.4578660000000 1.0
C      1  0.5879400000000  0.4335260000000  0.5271230000000 1.0
C      1  0.4619900000000  0.4071870000000  0.5156500000000 1.0
C      1  0.4690630000000  0.5441950000000  0.5862790000000 1.0
C      1  0.4128430000000  0.4712340000000  0.5002060000000 1.0
C      1  0.6089390000000  0.4487130000000  0.5390870000000 1.0
C      1  0.5217210000000  0.4114370000000  0.4847560000000 1.0
C      1  0.3867080000000  0.4895530000000  0.5280380000000 1.0
C      1  0.4934140000000  0.4490400000000  0.4613170000000 1.0
C      1  0.4062130000000  0.5462400000000  0.4963420000000 1.0
C      1  0.5094140000000  0.5558510000000  0.4725030000000 1.0
C      1  0.5570990000000  0.5656170000000  0.5150250000000 1.0
C      1  0.5320450000000  0.4859190000000  0.4621610000000 1.0
C      1  0.5324820000000  0.5452720000000  0.3937730000000 1.0
C      1  0.5825570000000  0.4561150000000  0.4584860000000 1.0
C      1  0.5684370000000  0.4257680000000  0.4601480000000 1.0
C      1  0.4218510000000  0.4531070000000  0.5439710000000 1.0
C      1  0.5876850000000  0.4930310000000  0.5515140000000 1.0
C      1  0.5725530000000  0.4760120000000  0.4346860000000 1.0
C      1  0.5285510000000  0.5123050000000  0.4775670000000 1.0
C      1  0.5668760000000  0.5138230000000  0.4679520000000 1.0
C      1  0.4241320000000  0.5334920000000  0.4407690000000 1.0
C      1  0.4532420000000  0.4681610000000  0.4691060000000 1.0
C      1  0.4988720000000  0.4730490000000  0.4832940000000 1.0
C      1  0.4747710000000  0.4410560000000  0.5657950000000 1.0
C      1  0.4274710000000  0.4428900000000  0.4653560000000 1.0
C      1  0.4657060000000  0.5421190000000  0.5298850000000 1.0
C      1  0.5195140000000  0.4517760000000  0.5812090000000 1.0
C      1  0.4363250000000  0.5742950000000  0.5364070000000 1.0
C      1  0.4565080000000  0.4414320000000  0.4481420000000 1.0
C      1  0.5396960000000  0.5797020000000  0.4629640000000 1.0
C      1  0.5546120000000  0.4470680000000  0.4910210000000 1.0
C      1  0.4510800000000  0.5522950000000  0.4426190000000 1.0
C      1  0.4679050000000  0.5485760000000  0.4141760000000 1.0
C      1  0.4486420000000  0.4987250000000  0.5813380000000 1.0
C      1  0.4427640000000  0.5254140000000  0.5883910000000 1.0
C      1  0.4402030000000  0.4916020000000  0.4561490000000 1.0
C      1  0.6012090000000  0.4734960000000  0.4783330000000 1.0
C      1  0.5137980000000  0.5818810000000  0.5580280000000 1.0
C      1  0.5433230000000  0.5248090000000  0.4165470000000 1.0
C      1  0.5613250000000  0.4160580000000  0.5236840000000 1.0
C      1  0.4967150000000  0.5565860000000  0.4281030000000 1.0
C      1  0.4974240000000  0.4199110000000  0.5021840000000 1.0
C      1  0.5407160000000  0.5479170000000  0.5326340000000 1.0
C      1  0.4893530000000  0.4664740000000  0.5823900000000 1.0
C      1  0.6040840000000  0.5019440000000  0.4599890000000 1.0
C      1  0.5498230000000  0.4608780000000  0.4641440000000 1.0
C      1  0.4391640000000  0.5802700000000  0.5089300000000 1.0
C      1  0.4428540000000  0.4855790000000  0.5338210000000 1.0
C      1  0.6066620000000  0.5156950000000  0.5063600000000 1.0
C      1  0.5645190000000  0.5270490000000  0.4368340000000 1.0
C      1  0.4608800000000  0.4041160000000  0.4842870000000 1.0
C      1  0.4316980000000  0.4871340000000  0.5621250000000 1.0
C      1  0.5599610000000  0.4906550000000  0.5394550000000 1.0
C      1  0.4995800000000  0.5829960000000  0.5330470000000 1.0
C      1  0.4575840000000  0.5134290000000  0.4488760000000 1.0
C      1  0.4817560000000  0.5203150000000  0.4027220000000 1.0
C      1  0.5101530000000  0.4616530000000  0.5489700000000 1.0
C      1  0.5828030000000  0.5565990000000  0.5098690000000 1.0
C      1  0.4890690000000  0.4092550000000  0.5287780000000 1.0
C      1  0.4930660000000  0.4801790000000  0.5368760000000 1.0
C      1  0.5449710000000  0.5810500000000  0.4963300000000 1.0
C      1  0.5184230000000  0.4860110000000  0.5793390000000 1.0
C      1  0.4879450000000  0.5271830000000  0.4412860000000 1.0
C      1  0.5588950000000  0.5517910000000  0.4594870000000 1.0
C      1  0.4433530000000  0.4235840000000  0.5289550000000 1.0
C      1  0.5159030000000  0.5365220000000  0.5227010000000 1.0
C      1  0.4795110000000  0.4388110000000  0.4892080000000 1.0
C      1  0.5451900000000  0.4733170000000  0.4265640000000 1.0
C      1  0.5803660000000  0.5233960000000  0.5493240000000 1.0
C      1  0.6088490000000  0.4871800000000  0.5085650000000 1.0
C      1  0.5398600000000  0.4744280000000  0.5556030000000 1.0
C      1  0.5931430000000  0.5343220000000  0.5253140000000 1.0
C      1  0.5836860000000  0.5481280000000  0.4793910000000 1.0
C      1  0.4550020000000  0.5451560000000  0.5561490000000 1.0
C      1  0.4950650000000  0.5912530000000  0.5037460000000 1.0
C      1  0.4596270000000  0.5753370000000  0.5818410000000 1.0
C      1  0.4679650000000  0.4783870000000  0.5236930000000 1.0
C      1  0.5219600000000  0.5198290000000  0.5766230000000 1.0
C      1  0.5313770000000  0.5390820000000  0.4727400000000 1.0
C      1  0.4937440000000  0.4217720000000  0.5543830000000 1.0
C      1  0.5203700000000  0.4259110000000  0.5635270000000 1.0
C      1  0.5496530000000  0.5322270000000  0.5611340000000 1.0
C      1  0.4597600000000  0.5769030000000  0.4619260000000 1.0
C      1  0.5744670000000  0.4907990000000  0.4868060000000 1.0
C      1  0.4999710000000  0.5436010000000  0.5875450000000 1.0
C      1  0.4966700000000  0.4980060000000  0.4297630000000 1.0
C      1  0.5866390000000  0.5012080000000  0.4362430000000 1.0
C      1  0.5608580000000  0.5264860000000  0.4962930000000 1.0
C      1  0.5043490000000  0.4775290000000  0.4502480000000 1.0
C      1  0.4487570000000  0.4402570000000  0.5548940000000 1.0
C      1  0.4697810000000  0.5386670000000  0.4678200000000 1.0
C      1  0.6040420000000  0.5241080000000  0.4783860000000 1.0
C      1  0.5103170000000  0.5724220000000  0.4472940000000 1.0
C      1  0.4697650000000  0.4776830000000  0.4916260000000 1.0
C      1  0.5176260000000  0.5921120000000  0.4869200000000 1.0
C      1  0.5118990000000  0.5211370000000  0.4010170000000 1.0
C      1  0.4967000000000  0.5192410000000  0.5006920000000 1.0
C      1  0.4234300000000  0.5443240000000  0.5434150000000 1.0
C      1  0.4584160000000  0.4660950000000  0.4248060000000 1.0
C      1  0.4172170000000  0.5711320000000  0.4932000000000 1.0
C      1  0.5045410000000  0.4421270000000  0.4235770000000 1.0
C      1  0.6069710000000  0.4772590000000  0.5354840000000 1.0
C      1  0.5276710000000  0.4959440000000  0.4175390000000 1.0
C      1  0.4681450000000  0.5095870000000  0.4972070000000 1.0
C      1  0.5057880000000  0.4198430000000  0.4566920000000 1.0
C      1  0.4209340000000  0.5363100000000  0.5750730000000 1.0
C      1  0.4461880000000  0.4339630000000  0.4905330000000 1.0
C      1  0.4474000000000  0.5208230000000  0.4184060000000 1.0
C      1  0.5679700000000  0.4557430000000  0.5145650000000 1.0
C      1  0.5085180000000  0.5699960000000  0.5853240000000 1.0
C      1  0.5593770000000  0.4995820000000  0.5129490000000 1.0
C      1  0.5433580000000  0.4237910000000  0.5475820000000 1.0
C      1  0.4759640000000  0.4932700000000  0.5777260000000 1.0
C      1  0.3858010000000  0.5012530000000  0.5030040000000 1.0
C      1  0.4651540000000  0.5836530000000  0.4932120000000 1.0
C      1  0.5384520000000  0.5644680000000  0.5597420000000 1.0
C      1  0.4671980000000  0.4924130000000  0.4163060000000 1.0
C      1  0.4044960000000  0.4781160000000  0.5472760000000 1.0
C      1  0.4914990000000  0.5120150000000  0.5656070000000 1.0
C      1  0.4835880000000  0.5563200000000  0.4881240000000 1.0
C      1  0.5096690000000  0.5041330000000  0.5278230000000 1.0
C      1  0.5552280000000  0.4510390000000  0.5419380000000 1.0
C      1  0.4510950000000  0.5252650000000  0.5126290000000 1.0
END
