TITL C-2778432-5617-1008 0.000326520814329432 125000 -613.356216240206 0 0 105 (C1) n - 1
REM
REM in /home/nfs/bkarasulu/CARBON/AIRSS/Generating-Clusters/REBO/Only-C1/SD-CG/HFTN-CG
REM
REM
REM
REM
REM
REM ./C.cell (11c1c37f851c82e70ff6c80c92926a4b)
REM
REM compiler GCC version 9.2.1 20190827 (Red Hat 9.2.1-1)
REM options -cpp -mtune=generic -march=x86-64 -g -O0 -fpre-include=/usr/include/finclude/math-vector-fortran.h
REM seed 1258266025 -804980078 -181392319 1574501530 42170394 795013115 245180742 -656329055 -1265203117 894188602 -432118947 908120195 1466323966 -928049272 1661887997 -1929857357 -243820556 -2019008913 -360688484 -1774731126 1025194809 1083624547 -1885945171 78247859 1164457226 1780777465 -1246219452 1125914609 1606872210 1273784119 -305053012 -181727941 1512537970
REM
CELL 1.54180   50.00000   50.00000   50.00000   90.00000   90.00000   90.00000
LATT -1
SFAC C  
C      1  0.5838110000000  0.5515040000000  0.5022360000000 1.0
C      1  0.4499680000000  0.5278150000000  0.5526860000000 1.0
C      1  0.4283460000000  0.4477110000000  0.4518610000000 1.0
C      1  0.4890600000000  0.5303000000000  0.4450190000000 1.0
C      1  0.5768130000000  0.4775470000000  0.4862610000000 1.0
C      1  0.4617750000000  0.5754810000000  0.5053400000000 1.0
C      1  0.4420720000000  0.5496890000000  0.5027670000000 1.0
C      1  0.4696550000000  0.5696330000000  0.4727070000000 1.0
C      1  0.5248230000000  0.4929240000000  0.5832390000000 1.0
C      1  0.4620660000000  0.5394960000000  0.4346930000000 1.0
C      1  0.4825560000000  0.4814970000000  0.5404490000000 1.0
C      1  0.5174070000000  0.4477610000000  0.4377470000000 1.0
C      1  0.4333710000000  0.4922320000000  0.4440150000000 1.0
C      1  0.5451830000000  0.4803770000000  0.4089730000000 1.0
C      1  0.4394650000000  0.5188670000000  0.4943210000000 1.0
C      1  0.4243230000000  0.4677810000000  0.4333200000000 1.0
C      1  0.5617620000000  0.5692650000000  0.5052770000000 1.0
C      1  0.4759620000000  0.4674180000000  0.4809030000000 1.0
C      1  0.5026050000000  0.4310170000000  0.4884200000000 1.0
C      1  0.4940780000000  0.5446660000000  0.4742900000000 1.0
C      1  0.4361620000000  0.4804170000000  0.5588800000000 1.0
C      1  0.4115240000000  0.4902840000000  0.4867450000000 1.0
C      1  0.5544610000000  0.4883800000000  0.3843140000000 1.0
C      1  0.5318250000000  0.4992430000000  0.5200800000000 1.0
C      1  0.5537140000000  0.4333810000000  0.5058080000000 1.0
C      1  0.4714000000000  0.5182500000000  0.5708650000000 1.0
C      1  0.5071940000000  0.5869190000000  0.4865860000000 1.0
C      1  0.5787070000000  0.5271150000000  0.5165350000000 1.0
C      1  0.5062550000000  0.4453370000000  0.5454310000000 1.0
C      1  0.4972380000000  0.5790380000000  0.4549510000000 1.0
C      1  0.4299050000000  0.4527240000000  0.5155090000000 1.0
C      1  0.5333050000000  0.4349190000000  0.5518290000000 1.0
C      1  0.5657440000000  0.5294850000000  0.4582370000000 1.0
C      1  0.5362260000000  0.5289230000000  0.4299040000000 1.0
C      1  0.4527850000000  0.5557390000000  0.5333900000000 1.0
C      1  0.4749480000000  0.5780800000000  0.5426260000000 1.0
C      1  0.5673180000000  0.4520390000000  0.5263230000000 1.0
C      1  0.4232370000000  0.5024340000000  0.5164100000000 1.0
C      1  0.4703000000000  0.4542490000000  0.5309270000000 1.0
C      1  0.4656070000000  0.4995820000000  0.5241510000000 1.0
C      1  0.4770610000000  0.4692860000000  0.4479510000000 1.0
C      1  0.5040400000000  0.4230930000000  0.4408690000000 1.0
C      1  0.5477800000000  0.5485060000000  0.4625730000000 1.0
C      1  0.4448000000000  0.4240270000000  0.5268260000000 1.0
C      1  0.4982230000000  0.4151340000000  0.5168060000000 1.0
C      1  0.5324130000000  0.4347420000000  0.4805460000000 1.0
C      1  0.4703070000000  0.4134890000000  0.5249350000000 1.0
C      1  0.5699070000000  0.5326630000000  0.5439890000000 1.0
C      1  0.5070660000000  0.5704810000000  0.5362660000000 1.0
C      1  0.5283330000000  0.4199360000000  0.5241050000000 1.0
C      1  0.4679460000000  0.4477020000000  0.5044600000000 1.0
C      1  0.5018920000000  0.4767600000000  0.5827910000000 1.0
C      1  0.5654240000000  0.4743340000000  0.4538280000000 1.0
C      1  0.5728770000000  0.4935620000000  0.5380150000000 1.0
C      1  0.4908410000000  0.4532120000000  0.5674500000000 1.0
C      1  0.5630520000000  0.4481390000000  0.4761680000000 1.0
C      1  0.5310710000000  0.4569110000000  0.4149820000000 1.0
C      1  0.5395690000000  0.5631510000000  0.5732640000000 1.0
C      1  0.4793930000000  0.4913020000000  0.5688210000000 1.0
C      1  0.4776460000000  0.5254370000000  0.5240260000000 1.0
C      1  0.4869590000000  0.4237310000000  0.4625420000000 1.0
C      1  0.5422710000000  0.5359910000000  0.5815680000000 1.0
C      1  0.4456750000000  0.4808090000000  0.5044570000000 1.0
C      1  0.5770820000000  0.4763920000000  0.5167360000000 1.0
C      1  0.4323730000000  0.5058060000000  0.5454970000000 1.0
C      1  0.5305750000000  0.5766550000000  0.4559880000000 1.0
C      1  0.4924630000000  0.5345940000000  0.5817490000000 1.0
C      1  0.5587180000000  0.5090390000000  0.5027940000000 1.0
C      1  0.4881300000000  0.5620710000000  0.5698300000000 1.0
C      1  0.4820280000000  0.4807210000000  0.4184100000000 1.0
C      1  0.5391190000000  0.5778220000000  0.4880850000000 1.0
C      1  0.5037560000000  0.4782480000000  0.4899260000000 1.0
C      1  0.5523700000000  0.4864500000000  0.5643770000000 1.0
C      1  0.5268400000000  0.5315740000000  0.5118170000000 1.0
C      1  0.4202580000000  0.4579150000000  0.4834960000000 1.0
C      1  0.4524490000000  0.5333400000000  0.4096820000000 1.0
C      1  0.5033850000000  0.5118360000000  0.4952740000000 1.0
C      1  0.4166970000000  0.5074470000000  0.4637010000000 1.0
C      1  0.4326530000000  0.4486130000000  0.5471360000000 1.0
C      1  0.4484300000000  0.4386700000000  0.4838580000000 1.0
C      1  0.5495210000000  0.4972660000000  0.4340860000000 1.0
C      1  0.5216660000000  0.5483000000000  0.4842050000000 1.0
C      1  0.4737770000000  0.5385270000000  0.4969800000000 1.0
C      1  0.5325200000000  0.5070330000000  0.4810010000000 1.0
C      1  0.4909350000000  0.5860320000000  0.5125710000000 1.0
C      1  0.5603680000000  0.5195410000000  0.5664110000000 1.0
C      1  0.5147110000000  0.4645230000000  0.4605570000000 1.0
C      1  0.5540330000000  0.4549000000000  0.5514800000000 1.0
C      1  0.5063190000000  0.4539360000000  0.5135890000000 1.0
C      1  0.4708680000000  0.5080750000000  0.4857670000000 1.0
C      1  0.5485340000000  0.5508440000000  0.5276440000000 1.0
C      1  0.5119540000000  0.4828900000000  0.5287760000000 1.0
C      1  0.4903150000000  0.5415190000000  0.5424990000000 1.0
C      1  0.5716690000000  0.5081320000000  0.4730680000000 1.0
C      1  0.4283550000000  0.5356450000000  0.4681160000000 1.0
C      1  0.4503010000000  0.4872250000000  0.4713820000000 1.0
C      1  0.5384640000000  0.4784320000000  0.4705040000000 1.0
C      1  0.4602640000000  0.4567190000000  0.5632690000000 1.0
C      1  0.4932670000000  0.4990110000000  0.4426100000000 1.0
C      1  0.5218800000000  0.5079980000000  0.4500190000000 1.0
C      1  0.5136270000000  0.5522400000000  0.4402830000000 1.0
C      1  0.4480270000000  0.5522480000000  0.4561100000000 1.0
C      1  0.5338770000000  0.5682330000000  0.5470240000000 1.0
C      1  0.5185330000000  0.5212660000000  0.5870650000000 1.0
C      1  0.4613890000000  0.4403520000000  0.4553670000000 1.0
END
