TITL C-2778431-5191-1395 0.0044421725541369 125000 -371.330338998589 0 0 66 (C1) n - 1
REM
REM in /home/nfs/bkarasulu/CARBON/AIRSS/Generating-Clusters/REBO/Only-C1/SD-CG/HFTN-CG
REM
REM
REM
REM
REM
REM ./C.cell (11c1c37f851c82e70ff6c80c92926a4b)
REM
REM compiler GCC version 9.2.1 20190827 (Red Hat 9.2.1-1)
REM options -cpp -mtune=generic -march=x86-64 -g -O0 -fpre-include=/usr/include/finclude/math-vector-fortran.h
REM seed 875419210 285293685 1794719623 98382240 -1743486358 -1340357344 -647689536 941545123 1622975711 -1550496579 660373059 1290805898 -1518871937 -816437134 -82647494 -59534226 -177060980 -1060280818 16597315 -1646747535 -1257613215 1966253234 452288846 -1054434302 1811463052 1798782357 -509162271 469905066 1096313895 -1146310448 -168958381 1618441721 -1262764192
REM
CELL 1.54180   50.00000   50.00000   50.00000   90.00000   90.00000   90.00000
LATT -1
SFAC C  
C      1  0.4794440000000  0.5271940000000  0.4249230000000 1.0
C      1  0.4727490000000  0.5032320000000  0.4972390000000 1.0
C      1  0.4458360000000  0.4157600000000  0.5423870000000 1.0
C      1  0.4919860000000  0.4858660000000  0.5144630000000 1.0
C      1  0.5622620000000  0.5161020000000  0.5100500000000 1.0
C      1  0.5274520000000  0.4252600000000  0.5411170000000 1.0
C      1  0.4764030000000  0.5174580000000  0.5670240000000 1.0
C      1  0.4956830000000  0.4801090000000  0.4177910000000 1.0
C      1  0.5119810000000  0.4765600000000  0.4655560000000 1.0
C      1  0.4474500000000  0.5482030000000  0.5351970000000 1.0
C      1  0.5708700000000  0.5084470000000  0.4786600000000 1.0
C      1  0.5347760000000  0.5617720000000  0.5041250000000 1.0
C      1  0.5331520000000  0.4615280000000  0.4853750000000 1.0
C      1  0.5530680000000  0.5420130000000  0.4899010000000 1.0
C      1  0.5253080000000  0.4355390000000  0.4906590000000 1.0
C      1  0.4861840000000  0.5723270000000  0.5154790000000 1.0
C      1  0.5290140000000  0.5120140000000  0.5097970000000 1.0
C      1  0.4996520000000  0.4595490000000  0.5164630000000 1.0
C      1  0.4824180000000  0.4865020000000  0.5690100000000 1.0
C      1  0.4949800000000  0.4337980000000  0.4862900000000 1.0
C      1  0.4165870000000  0.5522450000000  0.4932340000000 1.0
C      1  0.4693110000000  0.5497280000000  0.4399820000000 1.0
C      1  0.4795260000000  0.5515220000000  0.4654850000000 1.0
C      1  0.4957330000000  0.5312030000000  0.5343430000000 1.0
C      1  0.5161230000000  0.5055640000000  0.4829200000000 1.0
C      1  0.5540070000000  0.5297400000000  0.4591220000000 1.0
C      1  0.3932780000000  0.5515400000000  0.4812750000000 1.0
C      1  0.4582600000000  0.4398340000000  0.5357670000000 1.0
C      1  0.4721800000000  0.4689640000000  0.4369250000000 1.0
C      1  0.4900060000000  0.5484000000000  0.5629000000000 1.0
C      1  0.5101160000000  0.5150800000000  0.5716580000000 1.0
C      1  0.4874470000000  0.4557860000000  0.4608800000000 1.0
C      1  0.5990410000000  0.5012790000000  0.4715570000000 1.0
C      1  0.5463170000000  0.4983810000000  0.5345710000000 1.0
C      1  0.5404250000000  0.5113030000000  0.4339660000000 1.0
C      1  0.4794630000000  0.5084810000000  0.4680140000000 1.0
C      1  0.5700020000000  0.4525700000000  0.5269020000000 1.0
C      1  0.5209360000000  0.5474520000000  0.5508350000000 1.0
C      1  0.5488720000000  0.4684020000000  0.5336960000000 1.0
C      1  0.4763080000000  0.5337810000000  0.5116760000000 1.0
C      1  0.4372050000000  0.4898800000000  0.5446880000000 1.0
C      1  0.5079490000000  0.5292200000000  0.4190390000000 1.0
C      1  0.5451630000000  0.4188790000000  0.5014540000000 1.0
C      1  0.5006250000000  0.5010100000000  0.5355550000000 1.0
C      1  0.4401930000000  0.5529580000000  0.5053450000000 1.0
C      1  0.5230960000000  0.4527660000000  0.5370890000000 1.0
C      1  0.5311480000000  0.5088480000000  0.5601890000000 1.0
C      1  0.4495640000000  0.5189490000000  0.5511380000000 1.0
C      1  0.5459810000000  0.4891520000000  0.4817820000000 1.0
C      1  0.4493550000000  0.4563890000000  0.4276680000000 1.0
C      1  0.5226170000000  0.4830640000000  0.4377060000000 1.0
C      1  0.5126490000000  0.5793390000000  0.5072890000000 1.0
C      1  0.4488490000000  0.5160500000000  0.5172650000000 1.0
C      1  0.4781680000000  0.4386570000000  0.5127440000000 1.0
C      1  0.4722070000000  0.4572700000000  0.5588690000000 1.0
C      1  0.4399270000000  0.4666660000000  0.5374410000000 1.0
C      1  0.4691430000000  0.5585090000000  0.4922380000000 1.0
C      1  0.4833590000000  0.4231910000000  0.4570210000000 1.0
C      1  0.5675350000000  0.4278560000000  0.5148920000000 1.0
C      1  0.4730680000000  0.5636050000000  0.5403670000000 1.0
C      1  0.5334060000000  0.5401980000000  0.5245500000000 1.0
C      1  0.5241810000000  0.5376410000000  0.4460620000000 1.0
C      1  0.4737150000000  0.5011480000000  0.4397620000000 1.0
C      1  0.5024780000000  0.4656460000000  0.5558860000000 1.0
C      1  0.5199030000000  0.5013270000000  0.4086670000000 1.0
C      1  0.5039100000000  0.5312920000000  0.4680790000000 1.0
END
