TITL C-2778427-5640-956 -0.00302276829731631 125000 -757.982720868003 0 0 129 (C1) n - 1
REM
REM in /home/nfs/bkarasulu/CARBON/AIRSS/Generating-Clusters/REBO/Only-C1/SD-CG/HFTN-CG
REM
REM
REM
REM
REM
REM ./C.cell (11c1c37f851c82e70ff6c80c92926a4b)
REM
REM compiler GCC version 9.2.1 20190827 (Red Hat 9.2.1-1)
REM options -cpp -mtune=generic -march=x86-64 -g -O0 -fpre-include=/usr/include/finclude/math-vector-fortran.h
REM seed 1739648042 -172928663 -2076020479 -340878417 -17888386 -1690910397 -1403795333 354046686 -66764641 108282643 -548104059 526095169 -1934808081 -511104544 2046889030 197028763 26359406 -1959942911 -1072205062 -1768804660 -1983056196 -1352590521 1179883162 -719659901 -2048576017 -542107466 -1616385155 -341560208 -1252310461 -1109174127 -2011413433 1591060271 603751609
REM
CELL 1.54180   50.00000   50.00000   50.00000   90.00000   90.00000   90.00000
LATT -1
SFAC C  
C      1  0.4538810000000  0.4795760000000  0.4679460000000 1.0
C      1  0.5692490000000  0.5409720000000  0.5491900000000 1.0
C      1  0.4671750000000  0.5179920000000  0.4471490000000 1.0
C      1  0.5393910000000  0.4908140000000  0.5352870000000 1.0
C      1  0.5592040000000  0.5805230000000  0.5220990000000 1.0
C      1  0.5784840000000  0.5609920000000  0.5302280000000 1.0
C      1  0.5614680000000  0.4689710000000  0.5323150000000 1.0
C      1  0.4370870000000  0.4746840000000  0.5817850000000 1.0
C      1  0.4795270000000  0.5298410000000  0.5983430000000 1.0
C      1  0.5417150000000  0.5354010000000  0.5090830000000 1.0
C      1  0.4935720000000  0.5353820000000  0.5679900000000 1.0
C      1  0.4155450000000  0.4900690000000  0.5656010000000 1.0
C      1  0.5340640000000  0.4665540000000  0.4298490000000 1.0
C      1  0.5256020000000  0.5803230000000  0.4806140000000 1.0
C      1  0.5739680000000  0.5492840000000  0.4365180000000 1.0
C      1  0.4162900000000  0.4482550000000  0.4878880000000 1.0
C      1  0.5466080000000  0.5568830000000  0.4384930000000 1.0
C      1  0.5751950000000  0.4527250000000  0.4756360000000 1.0
C      1  0.5022240000000  0.5124770000000  0.4834180000000 1.0
C      1  0.5746160000000  0.4747400000000  0.4594440000000 1.0
C      1  0.4474700000000  0.4273200000000  0.5238960000000 1.0
C      1  0.4372470000000  0.5787470000000  0.5109730000000 1.0
C      1  0.4719480000000  0.4147040000000  0.4533130000000 1.0
C      1  0.5033240000000  0.4367110000000  0.5768580000000 1.0
C      1  0.5830740000000  0.5150440000000  0.5394530000000 1.0
C      1  0.5371210000000  0.5664240000000  0.5078510000000 1.0
C      1  0.4275990000000  0.6061990000000  0.5285740000000 1.0
C      1  0.4902030000000  0.4499010000000  0.4561210000000 1.0
C      1  0.5019770000000  0.5496770000000  0.4688070000000 1.0
C      1  0.5656800000000  0.4299200000000  0.5388560000000 1.0
C      1  0.5001840000000  0.5270150000000  0.4464170000000 1.0
C      1  0.5149370000000  0.4429420000000  0.4979790000000 1.0
C      1  0.4119160000000  0.4932110000000  0.4676650000000 1.0
C      1  0.5173060000000  0.4146420000000  0.4838540000000 1.0
C      1  0.4104320000000  0.4979260000000  0.5198030000000 1.0
C      1  0.4490440000000  0.4878980000000  0.5098530000000 1.0
C      1  0.4725040000000  0.5097720000000  0.4984190000000 1.0
C      1  0.4110150000000  0.5211050000000  0.4743180000000 1.0
C      1  0.5760200000000  0.4710670000000  0.5605250000000 1.0
C      1  0.4845620000000  0.5649870000000  0.4436690000000 1.0
C      1  0.6013740000000  0.5203480000000  0.5143700000000 1.0
C      1  0.4997340000000  0.4808440000000  0.4945390000000 1.0
C      1  0.4643400000000  0.4632240000000  0.5189210000000 1.0
C      1  0.5110690000000  0.4821750000000  0.5213280000000 1.0
C      1  0.4847240000000  0.4923070000000  0.4344900000000 1.0
C      1  0.4239840000000  0.5360070000000  0.4535370000000 1.0
C      1  0.4286280000000  0.5195730000000  0.5627730000000 1.0
C      1  0.4775180000000  0.4699580000000  0.5476580000000 1.0
C      1  0.4288820000000  0.4371280000000  0.4645720000000 1.0
C      1  0.4721480000000  0.5432710000000  0.4238100000000 1.0
C      1  0.4292640000000  0.4508970000000  0.5396880000000 1.0
C      1  0.4498230000000  0.5122320000000  0.4759950000000 1.0
C      1  0.5493520000000  0.4252840000000  0.4879570000000 1.0
C      1  0.4640480000000  0.5295540000000  0.5416710000000 1.0
C      1  0.5074940000000  0.5058150000000  0.4133950000000 1.0
C      1  0.5243770000000  0.5630300000000  0.4212520000000 1.0
C      1  0.4323090000000  0.5496030000000  0.5546730000000 1.0
C      1  0.5598580000000  0.4889650000000  0.4981820000000 1.0
C      1  0.4771200000000  0.4626930000000  0.4810580000000 1.0
C      1  0.5590660000000  0.5061590000000  0.4281070000000 1.0
C      1  0.5734790000000  0.4390320000000  0.5070360000000 1.0
C      1  0.5046020000000  0.5393380000000  0.4144310000000 1.0
C      1  0.4812920000000  0.5501690000000  0.4948580000000 1.0
C      1  0.4630090000000  0.4376330000000  0.4964500000000 1.0
C      1  0.4400830000000  0.4597520000000  0.4439380000000 1.0
C      1  0.4772460000000  0.4206420000000  0.5293250000000 1.0
C      1  0.4973010000000  0.4076310000000  0.4649400000000 1.0
C      1  0.4401320000000  0.5570020000000  0.4631170000000 1.0
C      1  0.5984430000000  0.4984550000000  0.4959470000000 1.0
C      1  0.5264170000000  0.4597200000000  0.5733310000000 1.0
C      1  0.4663670000000  0.4426350000000  0.4345180000000 1.0
C      1  0.5358580000000  0.5516670000000  0.4677040000000 1.0
C      1  0.4938970000000  0.4460800000000  0.5203410000000 1.0
C      1  0.5124450000000  0.4736640000000  0.4128900000000 1.0
C      1  0.5312960000000  0.5120210000000  0.4663450000000 1.0
C      1  0.5015040000000  0.5044450000000  0.5920460000000 1.0
C      1  0.5097740000000  0.5563620000000  0.5243360000000 1.0
C      1  0.5377590000000  0.4507750000000  0.5199180000000 1.0
C      1  0.5603160000000  0.6076800000000  0.5261530000000 1.0
C      1  0.5249390000000  0.4903550000000  0.5831020000000 1.0
C      1  0.5605700000000  0.4785140000000  0.4347710000000 1.0
C      1  0.4338750000000  0.5461930000000  0.5207560000000 1.0
C      1  0.5412750000000  0.4372030000000  0.4613330000000 1.0
C      1  0.4792690000000  0.5040230000000  0.5683630000000 1.0
C      1  0.5195170000000  0.5972960000000  0.4551730000000 1.0
C      1  0.4243000000000  0.4765800000000  0.4894540000000 1.0
C      1  0.5131680000000  0.4160500000000  0.5583990000000 1.0
C      1  0.5621040000000  0.5140790000000  0.5120620000000 1.0
C      1  0.4841370000000  0.4628970000000  0.4189170000000 1.0
C      1  0.4728720000000  0.5879830000000  0.4843770000000 1.0
C      1  0.5403550000000  0.5052050000000  0.5642330000000 1.0
C      1  0.4918640000000  0.5002230000000  0.5391870000000 1.0
C      1  0.4455820000000  0.5086270000000  0.5351520000000 1.0
C      1  0.5157930000000  0.5420320000000  0.5523290000000 1.0
C      1  0.4516000000000  0.4215660000000  0.4728610000000 1.0
C      1  0.5097250000000  0.4610550000000  0.5461810000000 1.0
C      1  0.5345910000000  0.4247650000000  0.5416800000000 1.0
C      1  0.5269110000000  0.5207110000000  0.5298130000000 1.0
C      1  0.4483460000000  0.5257020000000  0.4127400000000 1.0
C      1  0.5835300000000  0.5042370000000  0.4696070000000 1.0
C      1  0.5803610000000  0.5494900000000  0.4825340000000 1.0
C      1  0.5892720000000  0.4946210000000  0.5615220000000 1.0
C      1  0.5153060000000  0.4418260000000  0.4546710000000 1.0
C      1  0.4603600000000  0.5418810000000  0.5724950000000 1.0
C      1  0.4515760000000  0.5011800000000  0.5775580000000 1.0
C      1  0.4888380000000  0.5293130000000  0.5211380000000 1.0
C      1  0.4628730000000  0.5765070000000  0.4612820000000 1.0
C      1  0.5855360000000  0.4708980000000  0.5092660000000 1.0
C      1  0.4998150000000  0.4883560000000  0.4607370000000 1.0
C      1  0.4275540000000  0.5204550000000  0.5013320000000 1.0
C      1  0.5453750000000  0.5341070000000  0.5624650000000 1.0
C      1  0.5583200000000  0.5268360000000  0.4740790000000 1.0
C      1  0.4174720000000  0.4346870000000  0.5125170000000 1.0
C      1  0.5559220000000  0.4483010000000  0.5657720000000 1.0
C      1  0.4133490000000  0.4787960000000  0.5394460000000 1.0
C      1  0.4761410000000  0.4450730000000  0.5713800000000 1.0
C      1  0.4469400000000  0.4525890000000  0.5663640000000 1.0
C      1  0.4289000000000  0.5782270000000  0.5439470000000 1.0
C      1  0.5304800000000  0.5164170000000  0.4340890000000 1.0
C      1  0.4248310000000  0.4889780000000  0.4421870000000 1.0
C      1  0.4915250000000  0.4035800000000  0.5447270000000 1.0
C      1  0.4302100000000  0.5160830000000  0.4319890000000 1.0
C      1  0.4515250000000  0.5553350000000  0.4931370000000 1.0
C      1  0.5078590000000  0.5833020000000  0.4342230000000 1.0
C      1  0.5795890000000  0.5218420000000  0.4407370000000 1.0
C      1  0.5931450000000  0.5478150000000  0.5079790000000 1.0
C      1  0.5372990000000  0.4671130000000  0.4894620000000 1.0
C      1  0.4998710000000  0.5775230000000  0.4994820000000 1.0
C      1  0.5306730000000  0.4781330000000  0.4613150000000 1.0
END
