TITL C-2778429-3646-280 -0.323439820065738 125000 -881.828043455724 0 0 149 (C1) n - 1
REM
REM in /home/nfs/bkarasulu/CARBON/AIRSS/Generating-Clusters/REBO/Only-C1/SD-CG/HFTN-CG
REM
REM
REM
REM
REM
REM ./C.cell (11c1c37f851c82e70ff6c80c92926a4b)
REM
REM compiler GCC version 9.2.1 20190827 (Red Hat 9.2.1-1)
REM options -cpp -mtune=generic -march=x86-64 -g -O0 -fpre-include=/usr/include/finclude/math-vector-fortran.h
REM seed 533840400 1380473981 -1463239848 737607704 165269659 -264502915 1990230726 1068980511 -1569877500 -99099808 -1943024856 -621694975 -1291751576 -1431680239 1088122372 1245521928 1147225872 2053418758 1909406886 601487270 -2083805837 253504566 -1340429709 306659916 1609116950 1005751354 116308811 2045109899 183317516 590759289 -957647350 9088615 1707868077
REM
CELL 1.54180   50.00000   50.00000   50.00000   90.00000   90.00000   90.00000
LATT -1
SFAC C  
C      1  0.5499540000000  0.5020200000000  0.4820040000000 1.0
C      1  0.4362910000000  0.4197020000000  0.5428080000000 1.0
C      1  0.4633330000000  0.4723390000000  0.4576420000000 1.0
C      1  0.5440110000000  0.4979860000000  0.3957690000000 1.0
C      1  0.4276640000000  0.4521640000000  0.4313980000000 1.0
C      1  0.5927580000000  0.4967420000000  0.4889560000000 1.0
C      1  0.4489780000000  0.5042000000000  0.5678280000000 1.0
C      1  0.4235060000000  0.5396410000000  0.4470500000000 1.0
C      1  0.5124620000000  0.4813140000000  0.4491760000000 1.0
C      1  0.4035530000000  0.4904020000000  0.4745550000000 1.0
C      1  0.4839300000000  0.4126580000000  0.5339030000000 1.0
C      1  0.4919760000000  0.4752100000000  0.5080990000000 1.0
C      1  0.4457020000000  0.6135040000000  0.4883610000000 1.0
C      1  0.4792390000000  0.4489500000000  0.4941460000000 1.0
C      1  0.4491490000000  0.4680430000000  0.4190360000000 1.0
C      1  0.5364830000000  0.4818040000000  0.5951730000000 1.0
C      1  0.5212860000000  0.5507140000000  0.4961900000000 1.0
C      1  0.5234690000000  0.4813900000000  0.4806570000000 1.0
C      1  0.5510770000000  0.5590400000000  0.5817970000000 1.0
C      1  0.4556120000000  0.4932730000000  0.5045070000000 1.0
C      1  0.5034440000000  0.5722470000000  0.4860580000000 1.0
C      1  0.4681980000000  0.4358020000000  0.5783450000000 1.0
C      1  0.4797940000000  0.4914800000000  0.4805080000000 1.0
C      1  0.5167690000000  0.5061030000000  0.5022100000000 1.0
C      1  0.5589450000000  0.4786770000000  0.5256870000000 1.0
C      1  0.5700910000000  0.4644000000000  0.4448470000000 1.0
C      1  0.4159870000000  0.4626610000000  0.5185610000000 1.0
C      1  0.4779080000000  0.5648000000000  0.4365330000000 1.0
C      1  0.5272280000000  0.5748660000000  0.5815600000000 1.0
C      1  0.4963900000000  0.5600400000000  0.4154140000000 1.0
C      1  0.5302640000000  0.4328850000000  0.4310360000000 1.0
C      1  0.4348230000000  0.4260560000000  0.4449040000000 1.0
C      1  0.5619450000000  0.5750540000000  0.4601170000000 1.0
C      1  0.5838600000000  0.4482370000000  0.5328400000000 1.0
C      1  0.4623580000000  0.4405340000000  0.4475400000000 1.0
C      1  0.4635510000000  0.4192920000000  0.5533220000000 1.0
C      1  0.5167020000000  0.5747570000000  0.5327980000000 1.0
C      1  0.5005340000000  0.5988550000000  0.5019520000000 1.0
C      1  0.4701430000000  0.5482390000000  0.5070450000000 1.0
C      1  0.5821880000000  0.4939220000000  0.4374090000000 1.0
C      1  0.5676560000000  0.4525550000000  0.4966950000000 1.0
C      1  0.5822070000000  0.5392590000000  0.5333690000000 1.0
C      1  0.5031200000000  0.4738240000000  0.5616030000000 1.0
C      1  0.4010180000000  0.5403520000000  0.5169600000000 1.0
C      1  0.5478360000000  0.5044140000000  0.5159700000000 1.0
C      1  0.5743560000000  0.5552540000000  0.4823980000000 1.0
C      1  0.4781790000000  0.5382730000000  0.5821880000000 1.0
C      1  0.4202720000000  0.4850580000000  0.5398090000000 1.0
C      1  0.3997140000000  0.5130220000000  0.4999280000000 1.0
C      1  0.4842540000000  0.4885960000000  0.4401460000000 1.0
C      1  0.4324250000000  0.4411790000000  0.4885810000000 1.0
C      1  0.5602840000000  0.5291610000000  0.4693060000000 1.0
C      1  0.5968050000000  0.5292430000000  0.4852110000000 1.0
C      1  0.4282870000000  0.4802340000000  0.4961760000000 1.0
C      1  0.4329250000000  0.5783430000000  0.5192120000000 1.0
C      1  0.4934160000000  0.5260180000000  0.5104070000000 1.0
C      1  0.4534650000000  0.5458120000000  0.4336010000000 1.0
C      1  0.5154430000000  0.5139180000000  0.5413330000000 1.0
C      1  0.5010300000000  0.4410540000000  0.5561990000000 1.0
C      1  0.4835070000000  0.4620700000000  0.5377640000000 1.0
C      1  0.5546470000000  0.5270890000000  0.5405110000000 1.0
C      1  0.5161430000000  0.4501160000000  0.4570040000000 1.0
C      1  0.5504830000000  0.4767330000000  0.4205310000000 1.0
C      1  0.4570660000000  0.5006000000000  0.5377480000000 1.0
C      1  0.5596700000000  0.4118270000000  0.4689580000000 1.0
C      1  0.4199170000000  0.5407730000000  0.5435060000000 1.0
C      1  0.5478670000000  0.4100110000000  0.4939890000000 1.0
C      1  0.5314190000000  0.5988870000000  0.4961490000000 1.0
C      1  0.5399690000000  0.5802420000000  0.5168220000000 1.0
C      1  0.4989280000000  0.5143120000000  0.5870780000000 1.0
C      1  0.4992550000000  0.5151850000000  0.4656920000000 1.0
C      1  0.5439960000000  0.4943240000000  0.4492000000000 1.0
C      1  0.4609660000000  0.5518970000000  0.4795900000000 1.0
C      1  0.5078730000000  0.4636670000000  0.5996870000000 1.0
C      1  0.4427030000000  0.4963410000000  0.4220350000000 1.0
C      1  0.5505850000000  0.5290140000000  0.5720980000000 1.0
C      1  0.5559800000000  0.5660360000000  0.4333720000000 1.0
C      1  0.5888700000000  0.4745780000000  0.5118560000000 1.0
C      1  0.5071450000000  0.4172790000000  0.5661150000000 1.0
C      1  0.4502210000000  0.5296500000000  0.5774680000000 1.0
C      1  0.4828290000000  0.4298650000000  0.4265420000000 1.0
C      1  0.5494970000000  0.4525170000000  0.5920560000000 1.0
C      1  0.5158170000000  0.5188650000000  0.4361120000000 1.0
C      1  0.4079850000000  0.4691310000000  0.4486300000000 1.0
C      1  0.5423870000000  0.4542540000000  0.4782250000000 1.0
C      1  0.5294380000000  0.5385200000000  0.5218310000000 1.0
C      1  0.5883370000000  0.5167900000000  0.4556260000000 1.0
C      1  0.5020820000000  0.4718310000000  0.4086300000000 1.0
C      1  0.5180660000000  0.4979360000000  0.4107340000000 1.0
C      1  0.4329230000000  0.5250450000000  0.4177340000000 1.0
C      1  0.5627800000000  0.5650350000000  0.5097940000000 1.0
C      1  0.4240840000000  0.5136210000000  0.4684190000000 1.0
C      1  0.4870450000000  0.5005150000000  0.5280650000000 1.0
C      1  0.5973230000000  0.5421090000000  0.5140640000000 1.0
C      1  0.4972450000000  0.5318230000000  0.4114740000000 1.0
C      1  0.4939090000000  0.5548030000000  0.5287290000000 1.0
C      1  0.4788160000000  0.5989490000000  0.5209790000000 1.0
C      1  0.4878220000000  0.4387200000000  0.4676110000000 1.0
C      1  0.5307430000000  0.4110740000000  0.5787060000000 1.0
C      1  0.4880480000000  0.4865190000000  0.5882500000000 1.0
C      1  0.5403000000000  0.5923450000000  0.4697870000000 1.0
C      1  0.5050640000000  0.4202090000000  0.5161750000000 1.0
C      1  0.4490490000000  0.5088460000000  0.4500330000000 1.0
C      1  0.4319910000000  0.5247920000000  0.4974690000000 1.0
C      1  0.4295140000000  0.5144630000000  0.5274840000000 1.0
C      1  0.4542060000000  0.4430040000000  0.5065940000000 1.0
C      1  0.5604260000000  0.5145820000000  0.4273440000000 1.0
C      1  0.4807610000000  0.5078230000000  0.4207940000000 1.0
C      1  0.5255000000000  0.5736660000000  0.4203450000000 1.0
C      1  0.5563150000000  0.4364010000000  0.5474760000000 1.0
C      1  0.4343610000000  0.4660120000000  0.4682600000000 1.0
C      1  0.5630430000000  0.4270220000000  0.5155430000000 1.0
C      1  0.4517670000000  0.5981120000000  0.5100950000000 1.0
C      1  0.4371890000000  0.4622550000000  0.5522630000000 1.0
C      1  0.5592250000000  0.4909210000000  0.5636680000000 1.0
C      1  0.5508260000000  0.4307640000000  0.5757770000000 1.0
C      1  0.5628620000000  0.5036050000000  0.5916600000000 1.0
C      1  0.5253410000000  0.5118950000000  0.5836110000000 1.0
C      1  0.5148470000000  0.4468310000000  0.5191650000000 1.0
C      1  0.4156220000000  0.5624450000000  0.5022920000000 1.0
C      1  0.4922360000000  0.4403190000000  0.5951690000000 1.0
C      1  0.5275380000000  0.5332950000000  0.4714370000000 1.0
C      1  0.4605560000000  0.5741520000000  0.5584060000000 1.0
C      1  0.4829320000000  0.5894850000000  0.5483410000000 1.0
C      1  0.5535370000000  0.4372870000000  0.4511450000000 1.0
C      1  0.5188270000000  0.4073380000000  0.4936370000000 1.0
C      1  0.4587960000000  0.4841430000000  0.5853470000000 1.0
C      1  0.5197530000000  0.5841390000000  0.4515840000000 1.0
C      1  0.5804190000000  0.4737310000000  0.4732520000000 1.0
C      1  0.5038600000000  0.5578900000000  0.5821210000000 1.0
C      1  0.5368480000000  0.4589070000000  0.5353460000000 1.0
C      1  0.4987740000000  0.5383080000000  0.5551330000000 1.0
C      1  0.5303360000000  0.4878320000000  0.5520530000000 1.0
C      1  0.5049850000000  0.4167830000000  0.4381130000000 1.0
C      1  0.4197880000000  0.4359750000000  0.5276590000000 1.0
C      1  0.4248030000000  0.4197310000000  0.4708770000000 1.0
C      1  0.4555450000000  0.4531490000000  0.5325910000000 1.0
C      1  0.5210830000000  0.5506710000000  0.4452920000000 1.0
C      1  0.4371950000000  0.5646640000000  0.5446090000000 1.0
C      1  0.4834850000000  0.5677340000000  0.4642330000000 1.0
C      1  0.5052510000000  0.4108910000000  0.4683190000000 1.0
C      1  0.5824670000000  0.4773860000000  0.5503510000000 1.0
C      1  0.4770990000000  0.4580010000000  0.4147410000000 1.0
C      1  0.5126300000000  0.5891090000000  0.5588260000000 1.0
C      1  0.5650070000000  0.5414050000000  0.4239690000000 1.0
C      1  0.5277950000000  0.4572530000000  0.4129070000000 1.0
C      1  0.4301900000000  0.5520630000000  0.4766150000000 1.0
C      1  0.4719940000000  0.5296320000000  0.4578020000000 1.0
C      1  0.4494300000000  0.4586050000000  0.5780700000000 1.0
END
