TITL C-2778431-5191-649 -0.00125292443986484 125000 -499.085704655717 0 0 86 (C1) n - 1
REM
REM in /home/nfs/bkarasulu/CARBON/AIRSS/Generating-Clusters/REBO/Only-C1/SD-CG/HFTN-CG
REM
REM
REM
REM
REM
REM ./C.cell (11c1c37f851c82e70ff6c80c92926a4b)
REM
REM compiler GCC version 9.2.1 20190827 (Red Hat 9.2.1-1)
REM options -cpp -mtune=generic -march=x86-64 -g -O0 -fpre-include=/usr/include/finclude/math-vector-fortran.h
REM seed 922504804 -832599394 -773020443 -690866500 -1882801244 -1480752252 -1891311792 -1857316392 918132018 844987896 -812904544 1680963261 -1903153703 -176236317 1266316771 -1476495012 110149006 -1942103002 1130059881 -1188833916 -2132788776 1733218347 1111307520 2044958614 1920232447 -1651697307 1738388265 -36222135 641046040 -1215718471 1148086906 865829829 -944173539
REM
CELL 1.54180   50.00000   50.00000   50.00000   90.00000   90.00000   90.00000
LATT -1
SFAC C  
C      1  0.4532060000000  0.5335740000000  0.4584960000000 1.0
C      1  0.4566400000000  0.5281350000000  0.4904140000000 1.0
C      1  0.4432180000000  0.5026370000000  0.4475860000000 1.0
C      1  0.5291480000000  0.4326030000000  0.5241670000000 1.0
C      1  0.4655070000000  0.5426150000000  0.5145550000000 1.0
C      1  0.5278300000000  0.5286380000000  0.5689820000000 1.0
C      1  0.4980640000000  0.5820400000000  0.4968720000000 1.0
C      1  0.5457910000000  0.4735290000000  0.4394910000000 1.0
C      1  0.4194110000000  0.4759840000000  0.5103350000000 1.0
C      1  0.4649490000000  0.4786180000000  0.4711550000000 1.0
C      1  0.4144330000000  0.4749370000000  0.4815590000000 1.0
C      1  0.4947430000000  0.4701610000000  0.5740640000000 1.0
C      1  0.5390920000000  0.5623510000000  0.5271090000000 1.0
C      1  0.4916510000000  0.5446430000000  0.5647310000000 1.0
C      1  0.5305690000000  0.5361930000000  0.4843920000000 1.0
C      1  0.5632710000000  0.4772950000000  0.4674670000000 1.0
C      1  0.4834960000000  0.4987210000000  0.5325240000000 1.0
C      1  0.4379250000000  0.5144130000000  0.5431480000000 1.0
C      1  0.4376560000000  0.4702130000000  0.4573450000000 1.0
C      1  0.4663060000000  0.4278310000000  0.4861500000000 1.0
C      1  0.5730900000000  0.5454040000000  0.4986110000000 1.0
C      1  0.4953120000000  0.4362400000000  0.5782330000000 1.0
C      1  0.5786310000000  0.5111530000000  0.5405110000000 1.0
C      1  0.5215810000000  0.5568100000000  0.5540960000000 1.0
C      1  0.5590150000000  0.5090340000000  0.4912500000000 1.0
C      1  0.4268900000000  0.5185370000000  0.4941940000000 1.0
C      1  0.4996190000000  0.5579820000000  0.5284540000000 1.0
C      1  0.5027270000000  0.5421920000000  0.4678030000000 1.0
C      1  0.5256570000000  0.5796610000000  0.5072480000000 1.0
C      1  0.5180100000000  0.4897590000000  0.4282350000000 1.0
C      1  0.4471650000000  0.5708880000000  0.5176780000000 1.0
C      1  0.5507180000000  0.4580350000000  0.5580920000000 1.0
C      1  0.5239200000000  0.4749580000000  0.5621310000000 1.0
C      1  0.5515100000000  0.4513600000000  0.5311500000000 1.0
C      1  0.4406600000000  0.5738930000000  0.4870850000000 1.0
C      1  0.4865530000000  0.5656160000000  0.4765900000000 1.0
C      1  0.4426570000000  0.4593670000000  0.5218270000000 1.0
C      1  0.4630400000000  0.4386770000000  0.5120050000000 1.0
C      1  0.5140470000000  0.4440890000000  0.5508370000000 1.0
C      1  0.5789460000000  0.4973140000000  0.5162990000000 1.0
C      1  0.5000930000000  0.5108310000000  0.4816980000000 1.0
C      1  0.5423520000000  0.5529730000000  0.4570190000000 1.0
C      1  0.4592150000000  0.5624660000000  0.4701570000000 1.0
C      1  0.4911670000000  0.5365240000000  0.4226080000000 1.0
C      1  0.5195190000000  0.4201460000000  0.5014160000000 1.0
C      1  0.4753200000000  0.4512090000000  0.5550770000000 1.0
C      1  0.5299880000000  0.5154550000000  0.4563920000000 1.0
C      1  0.4609100000000  0.4863420000000  0.5175370000000 1.0
C      1  0.5372160000000  0.4431930000000  0.4372300000000 1.0
C      1  0.4233120000000  0.5040790000000  0.5195850000000 1.0
C      1  0.5576510000000  0.5173420000000  0.5566270000000 1.0
C      1  0.5043120000000  0.4650850000000  0.4135120000000 1.0
C      1  0.4912860000000  0.4144630000000  0.4833120000000 1.0
C      1  0.5108660000000  0.5425600000000  0.5068970000000 1.0
C      1  0.5312900000000  0.4962730000000  0.4832770000000 1.0
C      1  0.4521730000000  0.4412120000000  0.4650350000000 1.0
C      1  0.4853960000000  0.4611290000000  0.4750080000000 1.0
C      1  0.4440010000000  0.5454710000000  0.5408170000000 1.0
C      1  0.5493020000000  0.5026760000000  0.4239870000000 1.0
C      1  0.5671360000000  0.5326920000000  0.4689180000000 1.0
C      1  0.4793540000000  0.5256400000000  0.5392430000000 1.0
C      1  0.5396150000000  0.4183830000000  0.4769490000000 1.0
C      1  0.4779660000000  0.5835890000000  0.5220340000000 1.0
C      1  0.4538850000000  0.4953450000000  0.5591640000000 1.0
C      1  0.4794770000000  0.4967890000000  0.5751280000000 1.0
C      1  0.4986280000000  0.5064260000000  0.4478740000000 1.0
C      1  0.5521970000000  0.4764430000000  0.5129930000000 1.0
C      1  0.5286750000000  0.5016040000000  0.5502980000000 1.0
C      1  0.4974050000000  0.5181930000000  0.5805340000000 1.0
C      1  0.4503320000000  0.4675810000000  0.5511270000000 1.0
C      1  0.4605120000000  0.4970560000000  0.4916500000000 1.0
C      1  0.5536380000000  0.5397700000000  0.5176730000000 1.0
C      1  0.5135860000000  0.5467530000000  0.4381070000000 1.0
C      1  0.4913060000000  0.4454620000000  0.5255380000000 1.0
C      1  0.4717350000000  0.5177450000000  0.4366260000000 1.0
C      1  0.5412780000000  0.5081850000000  0.5213170000000 1.0
C      1  0.4991050000000  0.4923200000000  0.5074250000000 1.0
C      1  0.5433610000000  0.5329590000000  0.4301650000000 1.0
C      1  0.5477100000000  0.4468710000000  0.4689300000000 1.0
C      1  0.4712470000000  0.5632820000000  0.5482660000000 1.0
C      1  0.5677980000000  0.5039390000000  0.4525700000000 1.0
C      1  0.5142690000000  0.4062450000000  0.4645360000000 1.0
C      1  0.4197300000000  0.5029230000000  0.4711590000000 1.0
C      1  0.5325610000000  0.4661910000000  0.4902870000000 1.0
C      1  0.5035200000000  0.4613450000000  0.5011400000000 1.0
C      1  0.5159510000000  0.4407380000000  0.4202900000000 1.0
END
