TITL C-2778435-5768-1013 0.00100930428746564 125000 -760.716831653202 0 0 133 (C1) n - 1
REM
REM in /home/nfs/bkarasulu/CARBON/AIRSS/Generating-Clusters/REBO/Only-C1/SD-CG/HFTN-CG
REM
REM
REM
REM
REM
REM ./C.cell (11c1c37f851c82e70ff6c80c92926a4b)
REM
REM compiler GCC version 9.2.1 20190827 (Red Hat 9.2.1-1)
REM options -cpp -mtune=generic -march=x86-64 -g -O0 -fpre-include=/usr/include/finclude/math-vector-fortran.h
REM seed 270789889 -337205036 2046002110 1158943592 1153976983 1799239046 -332123845 1335353555 1531751191 1237598627 -2012783429 -496374558 -1788732776 269085452 1841438273 820524899 899919192 -1406329674 -2011212050 -1369320032 -1652041931 -428058357 503486576 845867563 351538241 -348444889 -44294244 1292618429 -249907356 1120259463 -715419866 279687155 1118467793
REM
CELL 1.54180   50.00000   50.00000   50.00000   90.00000   90.00000   90.00000
LATT -1
SFAC C  
C      1  0.5120040000000  0.5109480000000  0.5321010000000 1.0
C      1  0.5103250000000  0.4394040000000  0.4316820000000 1.0
C      1  0.4575100000000  0.4252300000000  0.4449290000000 1.0
C      1  0.4785450000000  0.5620870000000  0.5723180000000 1.0
C      1  0.5519820000000  0.5622740000000  0.4613520000000 1.0
C      1  0.5105780000000  0.5245550000000  0.5950490000000 1.0
C      1  0.5556730000000  0.4371290000000  0.4498400000000 1.0
C      1  0.5112380000000  0.4784540000000  0.4395840000000 1.0
C      1  0.5669790000000  0.5057630000000  0.5600930000000 1.0
C      1  0.5048160000000  0.4647340000000  0.4094350000000 1.0
C      1  0.5444550000000  0.4917660000000  0.4224980000000 1.0
C      1  0.4672430000000  0.4762100000000  0.5691760000000 1.0
C      1  0.5505580000000  0.4393690000000  0.5132410000000 1.0
C      1  0.5762380000000  0.4635570000000  0.4562110000000 1.0
C      1  0.5420420000000  0.4845140000000  0.5703870000000 1.0
C      1  0.4875100000000  0.4940550000000  0.4070090000000 1.0
C      1  0.4586410000000  0.5215250000000  0.4489460000000 1.0
C      1  0.5099390000000  0.4165450000000  0.5413040000000 1.0
C      1  0.5107840000000  0.5931850000000  0.4779680000000 1.0
C      1  0.5113520000000  0.5493160000000  0.4620590000000 1.0
C      1  0.4780340000000  0.4914490000000  0.5905000000000 1.0
C      1  0.4657080000000  0.5787320000000  0.4587750000000 1.0
C      1  0.4679850000000  0.4450910000000  0.5941320000000 1.0
C      1  0.4844830000000  0.5691240000000  0.5190850000000 1.0
C      1  0.4937600000000  0.5153860000000  0.5584390000000 1.0
C      1  0.5930540000000  0.4662510000000  0.5357320000000 1.0
C      1  0.5790280000000  0.5752430000000  0.5366930000000 1.0
C      1  0.5232250000000  0.5895920000000  0.4537910000000 1.0
C      1  0.4793820000000  0.4736750000000  0.4402580000000 1.0
C      1  0.5203650000000  0.5350480000000  0.5013150000000 1.0
C      1  0.5395160000000  0.5623400000000  0.5374110000000 1.0
C      1  0.4780310000000  0.4393070000000  0.5350600000000 1.0
C      1  0.5388710000000  0.4575630000000  0.4796660000000 1.0
C      1  0.5370240000000  0.4142670000000  0.4672640000000 1.0
C      1  0.4007560000000  0.4682240000000  0.4849670000000 1.0
C      1  0.5320540000000  0.5606410000000  0.4867010000000 1.0
C      1  0.5773730000000  0.5529580000000  0.4827990000000 1.0
C      1  0.4427600000000  0.5690510000000  0.4446640000000 1.0
C      1  0.4906890000000  0.5378700000000  0.4949100000000 1.0
C      1  0.4651830000000  0.5108250000000  0.4804560000000 1.0
C      1  0.5360590000000  0.4779920000000  0.5031870000000 1.0
C      1  0.5600620000000  0.4863760000000  0.4619470000000 1.0
C      1  0.5593940000000  0.5196590000000  0.4301900000000 1.0
C      1  0.5277780000000  0.6012450000000  0.4996820000000 1.0
C      1  0.4974260000000  0.4448230000000  0.5897560000000 1.0
C      1  0.5847650000000  0.4444210000000  0.5159000000000 1.0
C      1  0.4406690000000  0.4490510000000  0.5447480000000 1.0
C      1  0.4773710000000  0.4423920000000  0.4278170000000 1.0
C      1  0.4095390000000  0.4919180000000  0.4539940000000 1.0
C      1  0.4663190000000  0.5418550000000  0.5262510000000 1.0
C      1  0.4530850000000  0.5792740000000  0.5247880000000 1.0
C      1  0.4942620000000  0.5271410000000  0.4058790000000 1.0
C      1  0.4974540000000  0.5010810000000  0.4742200000000 1.0
C      1  0.4320250000000  0.5338540000000  0.4794630000000 1.0
C      1  0.4717530000000  0.4642570000000  0.4022730000000 1.0
C      1  0.5644410000000  0.5356450000000  0.5596240000000 1.0
C      1  0.4578820000000  0.5774330000000  0.4910320000000 1.0
C      1  0.5081540000000  0.5225150000000  0.4535430000000 1.0
C      1  0.4218270000000  0.5602230000000  0.4624780000000 1.0
C      1  0.4586680000000  0.4197090000000  0.4735560000000 1.0
C      1  0.4901340000000  0.5678470000000  0.4486490000000 1.0
C      1  0.5386100000000  0.5778600000000  0.5141890000000 1.0
C      1  0.5372770000000  0.5330980000000  0.5303800000000 1.0
C      1  0.5508970000000  0.5017640000000  0.5311810000000 1.0
C      1  0.4916590000000  0.5718850000000  0.4883410000000 1.0
C      1  0.5250040000000  0.5157310000000  0.4108650000000 1.0
C      1  0.5044990000000  0.5531880000000  0.4229650000000 1.0
C      1  0.4537690000000  0.4386710000000  0.5676350000000 1.0
C      1  0.5767590000000  0.5478470000000  0.5362260000000 1.0
C      1  0.5695850000000  0.4740110000000  0.5530270000000 1.0
C      1  0.5361470000000  0.5387870000000  0.5783280000000 1.0
C      1  0.5360700000000  0.4061770000000  0.4962790000000 1.0
C      1  0.4609540000000  0.5014110000000  0.5235330000000 1.0
C      1  0.5933610000000  0.4561700000000  0.4848730000000 1.0
C      1  0.4651320000000  0.4134980000000  0.5209990000000 1.0
C      1  0.5548250000000  0.5286360000000  0.4826650000000 1.0
C      1  0.4546810000000  0.4631780000000  0.4567950000000 1.0
C      1  0.4393190000000  0.4981750000000  0.4988500000000 1.0
C      1  0.5652790000000  0.4371010000000  0.4825680000000 1.0
C      1  0.4254370000000  0.5178310000000  0.4500080000000 1.0
C      1  0.4953800000000  0.4325900000000  0.4815900000000 1.0
C      1  0.4322910000000  0.4414610000000  0.4405800000000 1.0
C      1  0.5418930000000  0.5407720000000  0.4161310000000 1.0
C      1  0.5996040000000  0.4801840000000  0.5083490000000 1.0
C      1  0.4988230000000  0.5883600000000  0.5386090000000 1.0
C      1  0.4868180000000  0.4286100000000  0.5632620000000 1.0
C      1  0.4381250000000  0.5204680000000  0.5700260000000 1.0
C      1  0.5706940000000  0.5347480000000  0.4538900000000 1.0
C      1  0.4135760000000  0.5040210000000  0.5204800000000 1.0
C      1  0.4405280000000  0.5384160000000  0.5122130000000 1.0
C      1  0.5191110000000  0.4420890000000  0.5000390000000 1.0
C      1  0.4517300000000  0.5480550000000  0.4284180000000 1.0
C      1  0.5720810000000  0.5038270000000  0.4792090000000 1.0
C      1  0.5261370000000  0.4346500000000  0.5653270000000 1.0
C      1  0.4222930000000  0.4690440000000  0.4499850000000 1.0
C      1  0.5461380000000  0.4677950000000  0.5315220000000 1.0
C      1  0.4814370000000  0.4068160000000  0.4954160000000 1.0
C      1  0.4618880000000  0.5252370000000  0.4093460000000 1.0
C      1  0.4844160000000  0.5374810000000  0.5920960000000 1.0
C      1  0.5483910000000  0.4107060000000  0.5273990000000 1.0
C      1  0.5381800000000  0.4592940000000  0.4307570000000 1.0
C      1  0.5469370000000  0.4140540000000  0.5555850000000 1.0
C      1  0.4615720000000  0.4673410000000  0.5254080000000 1.0
C      1  0.4745000000000  0.4553700000000  0.4815030000000 1.0
C      1  0.4305710000000  0.5474140000000  0.5557130000000 1.0
C      1  0.4735070000000  0.5348890000000  0.5537680000000 1.0
C      1  0.4631500000000  0.5453360000000  0.4805280000000 1.0
C      1  0.5097160000000  0.4061730000000  0.5144960000000 1.0
C      1  0.4506260000000  0.5676200000000  0.5536220000000 1.0
C      1  0.4989410000000  0.4554960000000  0.5182100000000 1.0
C      1  0.5112010000000  0.4234700000000  0.4573240000000 1.0
C      1  0.5844310000000  0.5347840000000  0.5107590000000 1.0
C      1  0.5218870000000  0.4642420000000  0.5819150000000 1.0
C      1  0.4842020000000  0.4781460000000  0.5017780000000 1.0
C      1  0.5287450000000  0.5651820000000  0.5638330000000 1.0
C      1  0.4355160000000  0.5134220000000  0.4176430000000 1.0
C      1  0.3943300000000  0.5276530000000  0.5179860000000 1.0
C      1  0.4267530000000  0.4703390000000  0.4896630000000 1.0
C      1  0.5034540000000  0.5773960000000  0.5633870000000 1.0
C      1  0.5341150000000  0.5659570000000  0.4338110000000 1.0
C      1  0.4899890000000  0.5102200000000  0.5117690000000 1.0
C      1  0.4510540000000  0.4949490000000  0.5521600000000 1.0
C      1  0.5265240000000  0.4853130000000  0.4652000000000 1.0
C      1  0.4420920000000  0.4330010000000  0.5190400000000 1.0
C      1  0.4827810000000  0.5064100000000  0.4377410000000 1.0
C      1  0.4440840000000  0.4452650000000  0.4909220000000 1.0
C      1  0.5900920000000  0.5061640000000  0.5017220000000 1.0
C      1  0.5273370000000  0.5107430000000  0.5620020000000 1.0
C      1  0.4200650000000  0.5004290000000  0.5486600000000 1.0
C      1  0.4642540000000  0.5174410000000  0.5907320000000 1.0
C      1  0.5381440000000  0.5079810000000  0.4999090000000 1.0
C      1  0.4182070000000  0.5425580000000  0.5297730000000 1.0
C      1  0.5076630000000  0.4936330000000  0.5923050000000 1.0
END
