TITL C-2778422-5617-3 0.00242111221132782 125000 -723.037680431706 0 0 124 (C1) n - 1
REM
REM in /home/nfs/bkarasulu/CARBON/AIRSS/Generating-Clusters/REBO/Only-C1/SD-CG/HFTN-CG
REM
REM
REM
REM
REM
REM ./C.cell (11c1c37f851c82e70ff6c80c92926a4b)
REM
REM compiler GCC version 9.2.1 20190827 (Red Hat 9.2.1-1)
REM options -cpp -mtune=generic -march=x86-64 -g -O0 -fpre-include=/usr/include/finclude/math-vector-fortran.h
REM seed -460670675 1601802558 574795481 1371533315 306838244 -1451930134 1420558075 703506349 -1257503512 474845396 837297654 641110531 696105409 1159878194 -1401262334 -450241904 822389360 1188763072 -371498209 -1961805843 223666234 1006876704 -467277637 1845436287 -248034137 -596801451 855824106 -272642398 -5714590 313619192 -1876903056 -100680858 -787876395
REM
CELL 1.54180   50.00000   50.00000   50.00000   90.00000   90.00000   90.00000
LATT -1
SFAC C  
C      1  0.4789630000000  0.5071820000000  0.4577040000000 1.0
C      1  0.5292940000000  0.5590290000000  0.4987070000000 1.0
C      1  0.4223670000000  0.5495890000000  0.4587470000000 1.0
C      1  0.4643740000000  0.5910120000000  0.4634100000000 1.0
C      1  0.5441530000000  0.4586570000000  0.4695530000000 1.0
C      1  0.5332870000000  0.4126380000000  0.4883010000000 1.0
C      1  0.4721270000000  0.5380990000000  0.4271440000000 1.0
C      1  0.5669860000000  0.5337980000000  0.5739930000000 1.0
C      1  0.4403860000000  0.5153620000000  0.5218220000000 1.0
C      1  0.5232900000000  0.4257950000000  0.4611720000000 1.0
C      1  0.5682840000000  0.4458290000000  0.4904460000000 1.0
C      1  0.4783880000000  0.5025590000000  0.5361340000000 1.0
C      1  0.4366440000000  0.4643710000000  0.4563250000000 1.0
C      1  0.4632310000000  0.4832510000000  0.5720490000000 1.0
C      1  0.4679090000000  0.5557690000000  0.4812990000000 1.0
C      1  0.5451900000000  0.4740070000000  0.5059960000000 1.0
C      1  0.5638660000000  0.4180090000000  0.4919740000000 1.0
C      1  0.4791130000000  0.4100540000000  0.4745880000000 1.0
C      1  0.5711390000000  0.5295230000000  0.5462610000000 1.0
C      1  0.4495430000000  0.5793200000000  0.5429670000000 1.0
C      1  0.5290060000000  0.5201490000000  0.5263110000000 1.0
C      1  0.4848720000000  0.4722700000000  0.5404700000000 1.0
C      1  0.5697480000000  0.4842240000000  0.5357850000000 1.0
C      1  0.4964900000000  0.4355490000000  0.4891030000000 1.0
C      1  0.5869890000000  0.5071790000000  0.5399400000000 1.0
C      1  0.4948480000000  0.5198770000000  0.5465340000000 1.0
C      1  0.5628540000000  0.5813470000000  0.4991620000000 1.0
C      1  0.4921790000000  0.4653960000000  0.5699360000000 1.0
C      1  0.5336750000000  0.5893380000000  0.5132210000000 1.0
C      1  0.4609900000000  0.5368680000000  0.5253510000000 1.0
C      1  0.5725830000000  0.4854950000000  0.4890450000000 1.0
C      1  0.4076680000000  0.5015590000000  0.4557450000000 1.0
C      1  0.5343260000000  0.5122150000000  0.5807930000000 1.0
C      1  0.4672440000000  0.4561830000000  0.4205480000000 1.0
C      1  0.5722690000000  0.5693380000000  0.5441840000000 1.0
C      1  0.4455830000000  0.5671380000000  0.4585220000000 1.0
C      1  0.4507840000000  0.4568060000000  0.5540210000000 1.0
C      1  0.6052220000000  0.5134480000000  0.5174880000000 1.0
C      1  0.4143120000000  0.5266260000000  0.5632960000000 1.0
C      1  0.5257230000000  0.5619000000000  0.5315530000000 1.0
C      1  0.5534010000000  0.4881770000000  0.5865020000000 1.0
C      1  0.5617010000000  0.5013070000000  0.4303300000000 1.0
C      1  0.4593550000000  0.4822520000000  0.4699570000000 1.0
C      1  0.5217080000000  0.4819990000000  0.4589430000000 1.0
C      1  0.5426450000000  0.5135230000000  0.4717320000000 1.0
C      1  0.4340420000000  0.4035930000000  0.4428590000000 1.0
C      1  0.4976740000000  0.5497080000000  0.5337060000000 1.0
C      1  0.5090570000000  0.4684430000000  0.5218160000000 1.0
C      1  0.5048470000000  0.4549310000000  0.4632840000000 1.0
C      1  0.4184790000000  0.4337130000000  0.5068540000000 1.0
C      1  0.4936080000000  0.3870580000000  0.4905220000000 1.0
C      1  0.4338060000000  0.4321510000000  0.4575310000000 1.0
C      1  0.5359810000000  0.4824580000000  0.5367270000000 1.0
C      1  0.4107370000000  0.4908070000000  0.4837620000000 1.0
C      1  0.5091950000000  0.5631500000000  0.4445270000000 1.0
C      1  0.4325870000000  0.4735940000000  0.4298570000000 1.0
C      1  0.4643540000000  0.4382700000000  0.5364350000000 1.0
C      1  0.4411860000000  0.4947140000000  0.5486500000000 1.0
C      1  0.4876150000000  0.5897370000000  0.4886510000000 1.0
C      1  0.5258890000000  0.5341140000000  0.4662590000000 1.0
C      1  0.5366320000000  0.5461620000000  0.5799540000000 1.0
C      1  0.5732160000000  0.4566140000000  0.4423920000000 1.0
C      1  0.4400800000000  0.5305200000000  0.5737660000000 1.0
C      1  0.5091940000000  0.5072530000000  0.4420510000000 1.0
C      1  0.4127830000000  0.5467640000000  0.4876100000000 1.0
C      1  0.5363300000000  0.5601170000000  0.4562680000000 1.0
C      1  0.4460100000000  0.4231940000000  0.5226240000000 1.0
C      1  0.4500570000000  0.5179320000000  0.4321070000000 1.0
C      1  0.4663330000000  0.5140870000000  0.5828890000000 1.0
C      1  0.4978020000000  0.5380170000000  0.4361680000000 1.0
C      1  0.4123200000000  0.5196980000000  0.5367750000000 1.0
C      1  0.4756690000000  0.5753990000000  0.5373080000000 1.0
C      1  0.5472390000000  0.5612460000000  0.5528750000000 1.0
C      1  0.5792080000000  0.5189890000000  0.4866370000000 1.0
C      1  0.5083540000000  0.4104890000000  0.5281360000000 1.0
C      1  0.4934920000000  0.4380530000000  0.5225150000000 1.0
C      1  0.4802610000000  0.4681030000000  0.4498090000000 1.0
C      1  0.4546970000000  0.4904830000000  0.4208430000000 1.0
C      1  0.4482710000000  0.4942030000000  0.4959830000000 1.0
C      1  0.4958750000000  0.5281310000000  0.4752450000000 1.0
C      1  0.4294680000000  0.5193730000000  0.4838840000000 1.0
C      1  0.4354090000000  0.4053930000000  0.4989590000000 1.0
C      1  0.4948720000000  0.4193350000000  0.4484780000000 1.0
C      1  0.5961350000000  0.5412060000000  0.5066430000000 1.0
C      1  0.4630130000000  0.5422800000000  0.5556810000000 1.0
C      1  0.4868860000000  0.4832000000000  0.4195360000000 1.0
C      1  0.5176560000000  0.4576620000000  0.5745000000000 1.0
C      1  0.4257240000000  0.5645090000000  0.5057910000000 1.0
C      1  0.4941950000000  0.5843140000000  0.4553430000000 1.0
C      1  0.5155410000000  0.4770100000000  0.4140420000000 1.0
C      1  0.5988170000000  0.4854680000000  0.5085450000000 1.0
C      1  0.5286670000000  0.4459180000000  0.4952810000000 1.0
C      1  0.5348190000000  0.4970870000000  0.4229960000000 1.0
C      1  0.5003420000000  0.5905320000000  0.5202860000000 1.0
C      1  0.4853890000000  0.5420000000000  0.5781200000000 1.0
C      1  0.5430070000000  0.4425980000000  0.4395900000000 1.0
C      1  0.5529810000000  0.5338730000000  0.5243120000000 1.0
C      1  0.4136230000000  0.4673900000000  0.5082670000000 1.0
C      1  0.4225910000000  0.5240680000000  0.4447820000000 1.0
C      1  0.5021430000000  0.5823120000000  0.5560780000000 1.0
C      1  0.4556950000000  0.5288870000000  0.4665100000000 1.0
C      1  0.4578930000000  0.4799960000000  0.5224110000000 1.0
C      1  0.5084230000000  0.5006230000000  0.5097960000000 1.0
C      1  0.4934350000000  0.4364280000000  0.4257420000000 1.0
C      1  0.5626920000000  0.4548890000000  0.5475230000000 1.0
C      1  0.5810360000000  0.4712520000000  0.4612300000000 1.0
C      1  0.5287910000000  0.4923400000000  0.4878100000000 1.0
C      1  0.5015560000000  0.5591570000000  0.4854830000000 1.0
C      1  0.4236690000000  0.4681580000000  0.5386280000000 1.0
C      1  0.5582720000000  0.5678120000000  0.4727190000000 1.0
C      1  0.5077010000000  0.5598370000000  0.5745660000000 1.0
C      1  0.5191320000000  0.4496050000000  0.4201410000000 1.0
C      1  0.4529640000000  0.5604190000000  0.5079530000000 1.0
C      1  0.5798580000000  0.4584540000000  0.5175830000000 1.0
C      1  0.5460530000000  0.4630210000000  0.5723050000000 1.0
C      1  0.5150020000000  0.3964170000000  0.5052010000000 1.0
C      1  0.5583410000000  0.5420360000000  0.4947290000000 1.0
C      1  0.4893030000000  0.5286870000000  0.5080860000000 1.0
C      1  0.4499010000000  0.4078080000000  0.4726990000000 1.0
C      1  0.5677800000000  0.5086760000000  0.4567070000000 1.0
C      1  0.4173170000000  0.4508940000000  0.4789410000000 1.0
C      1  0.5731010000000  0.5108350000000  0.5901820000000 1.0
C      1  0.5218140000000  0.5061150000000  0.5548390000000 1.0
C      1  0.5814050000000  0.5662120000000  0.5166490000000 1.0
END
