TITL C-2778427-5640-1004 0.00190442608454559 125000 -1140.17005147528 0 0 194 (C1) n - 1
REM
REM in /home/nfs/bkarasulu/CARBON/AIRSS/Generating-Clusters/REBO/Only-C1/SD-CG/HFTN-CG
REM
REM
REM
REM
REM
REM ./C.cell (11c1c37f851c82e70ff6c80c92926a4b)
REM
REM compiler GCC version 9.2.1 20190827 (Red Hat 9.2.1-1)
REM options -cpp -mtune=generic -march=x86-64 -g -O0 -fpre-include=/usr/include/finclude/math-vector-fortran.h
REM seed -1898961029 -1495113365 -493897615 -41309420 762628996 -409540828 655909708 215714400 730426850 -1451833404 751275549 -1175560230 1941001954 1372515343 164725246 -276769391 2115826490 -1327188993 2026634595 1473071177 95622810 -320500253 1944464440 -715616947 -232658023 902032439 1348712988 -1015621376 -581821358 -72778116 456135829 -1301272115 2073595956
REM
CELL 1.54180   50.00000   50.00000   50.00000   90.00000   90.00000   90.00000
LATT -1
SFAC C  
C      1  0.5920590000000  0.5371580000000  0.4997490000000 1.0
C      1  0.4513150000000  0.5355210000000  0.5788830000000 1.0
C      1  0.4291520000000  0.4156850000000  0.4708310000000 1.0
C      1  0.3956370000000  0.4794300000000  0.5261840000000 1.0
C      1  0.4795990000000  0.4240030000000  0.4107880000000 1.0
C      1  0.4563700000000  0.4559950000000  0.4794550000000 1.0
C      1  0.3960770000000  0.4927790000000  0.4659450000000 1.0
C      1  0.5316210000000  0.3945290000000  0.4635180000000 1.0
C      1  0.5013750000000  0.4912400000000  0.5336700000000 1.0
C      1  0.5509290000000  0.5116950000000  0.4903400000000 1.0
C      1  0.4797480000000  0.5246830000000  0.4589240000000 1.0
C      1  0.4765550000000  0.5651950000000  0.4962490000000 1.0
C      1  0.5789750000000  0.5149690000000  0.5854510000000 1.0
C      1  0.4127910000000  0.5129110000000  0.4863950000000 1.0
C      1  0.4527900000000  0.4563420000000  0.5804240000000 1.0
C      1  0.5186130000000  0.3840080000000  0.5455050000000 1.0
C      1  0.5723830000000  0.4227290000000  0.5358500000000 1.0
C      1  0.4639930000000  0.6051520000000  0.5058780000000 1.0
C      1  0.5183040000000  0.5348710000000  0.5764150000000 1.0
C      1  0.5208260000000  0.4660560000000  0.5280870000000 1.0
C      1  0.5491180000000  0.5032400000000  0.5954510000000 1.0
C      1  0.4421130000000  0.5405450000000  0.4791990000000 1.0
C      1  0.4849480000000  0.6053780000000  0.5554410000000 1.0
C      1  0.4255500000000  0.4844840000000  0.4274570000000 1.0
C      1  0.4733160000000  0.4516870000000  0.5210310000000 1.0
C      1  0.4000150000000  0.5249560000000  0.4312490000000 1.0
C      1  0.5114910000000  0.4567950000000  0.4449260000000 1.0
C      1  0.5749840000000  0.5747240000000  0.4656740000000 1.0
C      1  0.4989030000000  0.3833260000000  0.4754650000000 1.0
C      1  0.4776170000000  0.4617410000000  0.4464300000000 1.0
C      1  0.5430510000000  0.4208840000000  0.4483060000000 1.0
C      1  0.5593700000000  0.5379450000000  0.5498790000000 1.0
C      1  0.5615040000000  0.4591660000000  0.5147480000000 1.0
C      1  0.4877860000000  0.5694680000000  0.4226350000000 1.0
C      1  0.5740060000000  0.5308480000000  0.4740630000000 1.0
C      1  0.4681380000000  0.4911900000000  0.4943370000000 1.0
C      1  0.5559360000000  0.4670340000000  0.4173040000000 1.0
C      1  0.5615450000000  0.5184700000000  0.4125060000000 1.0
C      1  0.4478030000000  0.5276100000000  0.4482110000000 1.0
C      1  0.5763500000000  0.5566170000000  0.4435720000000 1.0
C      1  0.5326460000000  0.6000600000000  0.5427130000000 1.0
C      1  0.4415710000000  0.5315930000000  0.5497390000000 1.0
C      1  0.4937670000000  0.3804610000000  0.5409890000000 1.0
C      1  0.4475060000000  0.4604980000000  0.5208800000000 1.0
C      1  0.4957290000000  0.5592100000000  0.5716440000000 1.0
C      1  0.5933440000000  0.5301730000000  0.4467750000000 1.0
C      1  0.5299940000000  0.4527780000000  0.4214000000000 1.0
C      1  0.4672650000000  0.5249180000000  0.5331980000000 1.0
C      1  0.6064180000000  0.5121500000000  0.4881220000000 1.0
C      1  0.4307490000000  0.5686150000000  0.5600790000000 1.0
C      1  0.4427840000000  0.5946720000000  0.4878620000000 1.0
C      1  0.3956570000000  0.4854130000000  0.4970930000000 1.0
C      1  0.5777960000000  0.5461570000000  0.5761710000000 1.0
C      1  0.4937910000000  0.4532540000000  0.5444780000000 1.0
C      1  0.5361870000000  0.5814500000000  0.4961800000000 1.0
C      1  0.4794000000000  0.4907360000000  0.4656390000000 1.0
C      1  0.5306580000000  0.4207120000000  0.4165600000000 1.0
C      1  0.5828680000000  0.4897880000000  0.4805390000000 1.0
C      1  0.4585640000000  0.4920760000000  0.5976560000000 1.0
C      1  0.5649390000000  0.5850130000000  0.5069370000000 1.0
C      1  0.4534690000000  0.4100100000000  0.5726910000000 1.0
C      1  0.4436870000000  0.4141110000000  0.5409220000000 1.0
C      1  0.4990640000000  0.5515850000000  0.4666870000000 1.0
C      1  0.4881280000000  0.4111060000000  0.4495460000000 1.0
C      1  0.4376920000000  0.4530220000000  0.4223650000000 1.0
C      1  0.4751850000000  0.4039700000000  0.5484380000000 1.0
C      1  0.5206570000000  0.5750530000000  0.5236750000000 1.0
C      1  0.5894650000000  0.5726950000000  0.5276160000000 1.0
C      1  0.5703810000000  0.4915210000000  0.5637420000000 1.0
C      1  0.6028890000000  0.4984050000000  0.5384420000000 1.0
C      1  0.4680430000000  0.3819130000000  0.4674830000000 1.0
C      1  0.5670750000000  0.5710230000000  0.5862790000000 1.0
C      1  0.5322660000000  0.4829670000000  0.4701180000000 1.0
C      1  0.4613970000000  0.4356720000000  0.4335100000000 1.0
C      1  0.4544890000000  0.4108540000000  0.4557550000000 1.0
C      1  0.5505900000000  0.5841800000000  0.5670210000000 1.0
C      1  0.5046060000000  0.6119510000000  0.4443710000000 1.0
C      1  0.4636560000000  0.5853130000000  0.5282020000000 1.0
C      1  0.4592860000000  0.5748940000000  0.4406940000000 1.0
C      1  0.4858850000000  0.4590940000000  0.4942390000000 1.0
C      1  0.5095940000000  0.4596520000000  0.5978550000000 1.0
C      1  0.3921110000000  0.5313000000000  0.5151350000000 1.0
C      1  0.4853150000000  0.4141580000000  0.4832420000000 1.0
C      1  0.5308570000000  0.3987910000000  0.4937860000000 1.0
C      1  0.5656280000000  0.5943860000000  0.5384580000000 1.0
C      1  0.5225010000000  0.5360940000000  0.5324210000000 1.0
C      1  0.5997160000000  0.5179390000000  0.5584330000000 1.0
C      1  0.4144900000000  0.5429020000000  0.5665850000000 1.0
C      1  0.4596340000000  0.4850710000000  0.4315190000000 1.0
C      1  0.4164010000000  0.5164540000000  0.5820040000000 1.0
C      1  0.5089790000000  0.5722240000000  0.4453630000000 1.0
C      1  0.4771060000000  0.5831670000000  0.5707660000000 1.0
C      1  0.5511290000000  0.4387980000000  0.4905040000000 1.0
C      1  0.5345250000000  0.5100450000000  0.4301630000000 1.0
C      1  0.5389590000000  0.4709440000000  0.5900070000000 1.0
C      1  0.4694840000000  0.4948050000000  0.5407330000000 1.0
C      1  0.5367720000000  0.5125090000000  0.4589770000000 1.0
C      1  0.4973650000000  0.4258590000000  0.5578460000000 1.0
C      1  0.4541040000000  0.5550790000000  0.6030310000000 1.0
C      1  0.4935280000000  0.6032690000000  0.5073770000000 1.0
C      1  0.4351160000000  0.4941570000000  0.5807630000000 1.0
C      1  0.5371320000000  0.5045380000000  0.3955150000000 1.0
C      1  0.4268910000000  0.5695220000000  0.4453820000000 1.0
C      1  0.5303280000000  0.5970410000000  0.4511160000000 1.0
C      1  0.5468700000000  0.5484250000000  0.4764280000000 1.0
C      1  0.5580720000000  0.4458020000000  0.5796100000000 1.0
C      1  0.4253070000000  0.4557850000000  0.5754790000000 1.0
C      1  0.5261560000000  0.4426290000000  0.4685850000000 1.0
C      1  0.5801000000000  0.4658770000000  0.5703180000000 1.0
C      1  0.4561740000000  0.5684620000000  0.4724630000000 1.0
C      1  0.5336100000000  0.5382760000000  0.4025800000000 1.0
C      1  0.4786220000000  0.5464550000000  0.6189170000000 1.0
C      1  0.5753210000000  0.4810190000000  0.4126740000000 1.0
C      1  0.4894580000000  0.4418200000000  0.3905530000000 1.0
C      1  0.4213240000000  0.5741000000000  0.5046010000000 1.0
C      1  0.5204330000000  0.4422770000000  0.3917840000000 1.0
C      1  0.6188610000000  0.5220410000000  0.4637840000000 1.0
C      1  0.5387080000000  0.5608690000000  0.5469450000000 1.0
C      1  0.4379550000000  0.5047030000000  0.4044110000000 1.0
C      1  0.5570640000000  0.4717520000000  0.4833970000000 1.0
C      1  0.5318400000000  0.5359120000000  0.5046680000000 1.0
C      1  0.5431780000000  0.4916620000000  0.5182390000000 1.0
C      1  0.5815310000000  0.5316350000000  0.5256640000000 1.0
C      1  0.5012370000000  0.5466700000000  0.4036210000000 1.0
C      1  0.5917370000000  0.4557780000000  0.4989560000000 1.0
C      1  0.5254420000000  0.5220580000000  0.6069470000000 1.0
C      1  0.4149990000000  0.4611540000000  0.5437710000000 1.0
C      1  0.5731960000000  0.4285530000000  0.4589710000000 1.0
C      1  0.5100810000000  0.4098500000000  0.5031910000000 1.0
C      1  0.4936530000000  0.4321700000000  0.5897520000000 1.0
C      1  0.4479880000000  0.5291210000000  0.4157470000000 1.0
C      1  0.4633020000000  0.4315330000000  0.5890680000000 1.0
C      1  0.5035710000000  0.4058040000000  0.4204520000000 1.0
C      1  0.4368450000000  0.5753440000000  0.5328630000000 1.0
C      1  0.4919360000000  0.5355290000000  0.5022980000000 1.0
C      1  0.5289890000000  0.4746550000000  0.3857470000000 1.0
C      1  0.5050150000000  0.5020040000000  0.4188860000000 1.0
C      1  0.4129480000000  0.5446620000000  0.4940250000000 1.0
C      1  0.4347090000000  0.5030380000000  0.4655870000000 1.0
C      1  0.5081280000000  0.3834670000000  0.4434000000000 1.0
C      1  0.4914560000000  0.5680770000000  0.5262020000000 1.0
C      1  0.5071320000000  0.4879320000000  0.4489710000000 1.0
C      1  0.5972480000000  0.5501910000000  0.5486840000000 1.0
C      1  0.4527900000000  0.4743580000000  0.4003950000000 1.0
C      1  0.4019940000000  0.4977450000000  0.4393620000000 1.0
C      1  0.5069310000000  0.5038410000000  0.6212520000000 1.0
C      1  0.4107470000000  0.4499340000000  0.4407530000000 1.0
C      1  0.5159430000000  0.4568610000000  0.4955140000000 1.0
C      1  0.4610620000000  0.4283010000000  0.4910520000000 1.0
C      1  0.4595740000000  0.5294340000000  0.5019570000000 1.0
C      1  0.4785340000000  0.5090880000000  0.4308220000000 1.0
C      1  0.5903610000000  0.5681460000000  0.4935570000000 1.0
C      1  0.5619470000000  0.5069790000000  0.5371010000000 1.0
C      1  0.5886070000000  0.4807470000000  0.4501820000000 1.0
C      1  0.5357250000000  0.5569020000000  0.4517090000000 1.0
C      1  0.5146510000000  0.5113360000000  0.5549190000000 1.0
C      1  0.5506630000000  0.5894470000000  0.4693770000000 1.0
C      1  0.4187420000000  0.4344480000000  0.5295190000000 1.0
C      1  0.4896130000000  0.5010500000000  0.5746610000000 1.0
C      1  0.4079470000000  0.4379400000000  0.4646000000000 1.0
C      1  0.5874680000000  0.4532440000000  0.4652760000000 1.0
C      1  0.4117810000000  0.5493400000000  0.4331310000000 1.0
C      1  0.5270750000000  0.4335700000000  0.5832710000000 1.0
C      1  0.4819370000000  0.5998040000000  0.4353880000000 1.0
C      1  0.4180080000000  0.5797590000000  0.4708230000000 1.0
C      1  0.5835200000000  0.4263310000000  0.5103410000000 1.0
C      1  0.4747890000000  0.4722580000000  0.5647260000000 1.0
C      1  0.5552690000000  0.4240410000000  0.5566270000000 1.0
C      1  0.4911390000000  0.4832040000000  0.6031670000000 1.0
C      1  0.4924800000000  0.5047270000000  0.5065070000000 1.0
C      1  0.4419900000000  0.4768470000000  0.4677790000000 1.0
C      1  0.4728220000000  0.5378310000000  0.4036890000000 1.0
C      1  0.4744260000000  0.5212120000000  0.5967150000000 1.0
C      1  0.5143970000000  0.5257790000000  0.4785210000000 1.0
C      1  0.4106470000000  0.4277770000000  0.4970150000000 1.0
C      1  0.4441560000000  0.4864670000000  0.5111370000000 1.0
C      1  0.5373990000000  0.4934410000000  0.5654350000000 1.0
C      1  0.5016680000000  0.4863570000000  0.3935330000000 1.0
C      1  0.4799470000000  0.4683420000000  0.3890110000000 1.0
C      1  0.4510880000000  0.5754120000000  0.5801240000000 1.0
C      1  0.5515010000000  0.5533430000000  0.4272780000000 1.0
C      1  0.5266340000000  0.4115480000000  0.5572000000000 1.0
C      1  0.5055060000000  0.5495860000000  0.6030140000000 1.0
C      1  0.5861990000000  0.5071200000000  0.4288200000000 1.0
C      1  0.4009480000000  0.5093540000000  0.5285430000000 1.0
C      1  0.4311450000000  0.5080040000000  0.5312590000000 1.0
C      1  0.4909920000000  0.5415890000000  0.5429060000000 1.0
C      1  0.4404540000000  0.4188890000000  0.5088980000000 1.0
C      1  0.5033430000000  0.6093140000000  0.5340740000000 1.0
C      1  0.5711590000000  0.4126950000000  0.4860450000000 1.0
C      1  0.5054590000000  0.5787180000000  0.4869970000000 1.0
C      1  0.5179230000000  0.4906400000000  0.4972870000000 1.0
C      1  0.4389880000000  0.4843100000000  0.5516200000000 1.0
C      1  0.6018540000000  0.4866710000000  0.5090210000000 1.0
END
