TITL C-2778434-4341-273 -0.000666521433324416 125000 -366.355567672187 0 0 64 (C1) n - 1
REM
REM in /home/nfs/bkarasulu/CARBON/AIRSS/Generating-Clusters/REBO/Only-C1/SD-CG/HFTN-CG
REM
REM
REM
REM
REM
REM ./C.cell (11c1c37f851c82e70ff6c80c92926a4b)
REM
REM compiler GCC version 9.2.1 20190827 (Red Hat 9.2.1-1)
REM options -cpp -mtune=generic -march=x86-64 -g -O0 -fpre-include=/usr/include/finclude/math-vector-fortran.h
REM seed -2137148018 -824770952 1689073302 221002851 1906153894 -1018463579 1901725673 8525440 -2051642711 1379520624 726832642 -1171630431 -997529951 501740561 799425787 913954952 -794813162 1029854471 593819836 -1786377802 1187229259 1301632749 1889758764 94003671 2059456636 2064531827 1886191225 -1811390945 -620867628 1829868472 1774843692 -403639580 -25438124
REM
CELL 1.54180   50.00000   50.00000   50.00000   90.00000   90.00000   90.00000
LATT -1
SFAC C  
C      1  0.4393820000000  0.5372940000000  0.5152450000000 1.0
C      1  0.5563240000000  0.4743210000000  0.4976950000000 1.0
C      1  0.5458960000000  0.4622870000000  0.4471260000000 1.0
C      1  0.5153580000000  0.5395250000000  0.5083490000000 1.0
C      1  0.5528150000000  0.4404770000000  0.4969610000000 1.0
C      1  0.4742690000000  0.4829960000000  0.5078680000000 1.0
C      1  0.5603990000000  0.4558680000000  0.4699000000000 1.0
C      1  0.4958240000000  0.4867700000000  0.4470770000000 1.0
C      1  0.4870390000000  0.5079180000000  0.5804870000000 1.0
C      1  0.5281200000000  0.4945620000000  0.4781010000000 1.0
C      1  0.4896650000000  0.4666670000000  0.5501340000000 1.0
C      1  0.5313510000000  0.5573570000000  0.5399550000000 1.0
C      1  0.5288600000000  0.4445130000000  0.5360220000000 1.0
C      1  0.5226910000000  0.4733920000000  0.4395550000000 1.0
C      1  0.4758310000000  0.4654610000000  0.4575490000000 1.0
C      1  0.4404650000000  0.4330670000000  0.5139070000000 1.0
C      1  0.4499660000000  0.5070600000000  0.5247780000000 1.0
C      1  0.5066070000000  0.5598340000000  0.4523380000000 1.0
C      1  0.4933630000000  0.5754320000000  0.4723340000000 1.0
C      1  0.4448490000000  0.4886580000000  0.5488460000000 1.0
C      1  0.5231500000000  0.4317780000000  0.4987950000000 1.0
C      1  0.4815120000000  0.4821150000000  0.5722720000000 1.0
C      1  0.4955740000000  0.4151330000000  0.4948050000000 1.0
C      1  0.5540570000000  0.4920270000000  0.5392020000000 1.0
C      1  0.5030320000000  0.4267410000000  0.5259360000000 1.0
C      1  0.5587360000000  0.5106260000000  0.5191500000000 1.0
C      1  0.5256480000000  0.5003860000000  0.5528360000000 1.0
C      1  0.4923520000000  0.5151240000000  0.4319960000000 1.0
C      1  0.5080580000000  0.5217120000000  0.5671520000000 1.0
C      1  0.4404570000000  0.4621010000000  0.5525720000000 1.0
C      1  0.4831900000000  0.5497060000000  0.5361990000000 1.0
C      1  0.4808100000000  0.4408710000000  0.5412940000000 1.0
C      1  0.5459420000000  0.5342750000000  0.5244260000000 1.0
C      1  0.4525620000000  0.4401660000000  0.5387520000000 1.0
C      1  0.5062920000000  0.5138110000000  0.5280450000000 1.0
C      1  0.4772010000000  0.5245260000000  0.5165830000000 1.0
C      1  0.4830470000000  0.5733690000000  0.5220760000000 1.0
C      1  0.4259470000000  0.5020510000000  0.5025840000000 1.0
C      1  0.5271930000000  0.4683990000000  0.5142950000000 1.0
C      1  0.4592640000000  0.4715590000000  0.4817210000000 1.0
C      1  0.4990070000000  0.5112470000000  0.4711630000000 1.0
C      1  0.4831170000000  0.4178340000000  0.4712430000000 1.0
C      1  0.4594330000000  0.5430650000000  0.4574940000000 1.0
C      1  0.4523160000000  0.5482820000000  0.4963360000000 1.0
C      1  0.4350760000000  0.5350650000000  0.4480480000000 1.0
C      1  0.5222300000000  0.4609850000000  0.4818330000000 1.0
C      1  0.4360760000000  0.4495940000000  0.4917700000000 1.0
C      1  0.5351580000000  0.5591700000000  0.4533630000000 1.0
C      1  0.5373920000000  0.4683650000000  0.5528370000000 1.0
C      1  0.5019870000000  0.4823340000000  0.5262730000000 1.0
C      1  0.5701470000000  0.5292000000000  0.4462180000000 1.0
C      1  0.4785400000000  0.5302520000000  0.4829360000000 1.0
C      1  0.4974630000000  0.4822900000000  0.4866440000000 1.0
C      1  0.4791590000000  0.4385900000000  0.4537820000000 1.0
C      1  0.5037490000000  0.5709600000000  0.4993800000000 1.0
C      1  0.5067810000000  0.5465530000000  0.5527420000000 1.0
C      1  0.4281330000000  0.4803180000000  0.4864720000000 1.0
C      1  0.5648060000000  0.5301800000000  0.4747160000000 1.0
C      1  0.5566950000000  0.5050480000000  0.4888840000000 1.0
C      1  0.4658130000000  0.5725640000000  0.4697370000000 1.0
C      1  0.5351700000000  0.5677230000000  0.5071590000000 1.0
C      1  0.4883240000000  0.5396710000000  0.4427400000000 1.0
C      1  0.5483190000000  0.5542940000000  0.4801470000000 1.0
C      1  0.5520090000000  0.5464800000000  0.4331640000000 1.0
END
