TITL C-2778423-5760-205 0.000509554401301812 125000 -491.422565039658 0 0 85 (C1) n - 1
REM
REM in /home/nfs/bkarasulu/CARBON/AIRSS/Generating-Clusters/REBO/Only-C1/SD-CG/HFTN-CG
REM
REM
REM
REM
REM
REM ./C.cell (11c1c37f851c82e70ff6c80c92926a4b)
REM
REM compiler GCC version 9.2.1 20190827 (Red Hat 9.2.1-1)
REM options -cpp -mtune=generic -march=x86-64 -g -O0 -fpre-include=/usr/include/finclude/math-vector-fortran.h
REM seed 707011833 -2139660565 -127813186 -1767675963 423904772 -1706444384 -64144525 -2104294847 -1287685052 -753857464 -1724180997 -1058558299 869046485 -627642610 1357990517 -1040809558 349478273 681609688 -2055546991 1037018890 1490574204 1470949067 1765782923 -1401969064 321014580 2094447049 1610173648 -1158010307 -764970445 373096023 -1624757734 1787246697 -899232211
REM
CELL 1.54180   50.00000   50.00000   50.00000   90.00000   90.00000   90.00000
LATT -1
SFAC C  
C      1  0.4804620000000  0.5782520000000  0.5053300000000 1.0
C      1  0.4940790000000  0.5348050000000  0.4843160000000 1.0
C      1  0.4282020000000  0.5523220000000  0.5015650000000 1.0
C      1  0.4669300000000  0.5089500000000  0.5600500000000 1.0
C      1  0.4308360000000  0.5022880000000  0.5357020000000 1.0
C      1  0.5275720000000  0.5621040000000  0.4900290000000 1.0
C      1  0.5640280000000  0.5040800000000  0.4216610000000 1.0
C      1  0.5363060000000  0.5161090000000  0.4172860000000 1.0
C      1  0.5549080000000  0.5058050000000  0.4860040000000 1.0
C      1  0.5129300000000  0.5524260000000  0.5303430000000 1.0
C      1  0.4564400000000  0.4613860000000  0.5490690000000 1.0
C      1  0.4155710000000  0.5162110000000  0.4639280000000 1.0
C      1  0.4940020000000  0.4482510000000  0.4310320000000 1.0
C      1  0.5019300000000  0.4083890000000  0.5110620000000 1.0
C      1  0.5677460000000  0.4521860000000  0.5002090000000 1.0
C      1  0.5171720000000  0.4625840000000  0.4259580000000 1.0
C      1  0.5209090000000  0.5037200000000  0.4906940000000 1.0
C      1  0.4681360000000  0.5209770000000  0.4744470000000 1.0
C      1  0.5124610000000  0.4925670000000  0.4230970000000 1.0
C      1  0.5432520000000  0.5578150000000  0.5378690000000 1.0
C      1  0.5462750000000  0.4926910000000  0.4480680000000 1.0
C      1  0.4598760000000  0.5061300000000  0.6163060000000 1.0
C      1  0.5724660000000  0.4804210000000  0.4816070000000 1.0
C      1  0.4370740000000  0.4746770000000  0.5240470000000 1.0
C      1  0.4641620000000  0.4359000000000  0.5299310000000 1.0
C      1  0.4640430000000  0.5393510000000  0.5707620000000 1.0
C      1  0.4772810000000  0.5282730000000  0.4320210000000 1.0
C      1  0.5618770000000  0.5337800000000  0.5520960000000 1.0
C      1  0.5738510000000  0.5123780000000  0.4517750000000 1.0
C      1  0.5339960000000  0.5402860000000  0.4312910000000 1.0
C      1  0.4548730000000  0.5694870000000  0.4960130000000 1.0
C      1  0.4294210000000  0.4653070000000  0.4734860000000 1.0
C      1  0.5743390000000  0.5495770000000  0.5011080000000 1.0
C      1  0.4714730000000  0.4528830000000  0.4517920000000 1.0
C      1  0.4352110000000  0.4847510000000  0.5619880000000 1.0
C      1  0.4908920000000  0.4159490000000  0.4824920000000 1.0
C      1  0.5661800000000  0.5338390000000  0.4752570000000 1.0
C      1  0.5285680000000  0.5324930000000  0.5072700000000 1.0
C      1  0.5067930000000  0.4701860000000  0.5824190000000 1.0
C      1  0.5610940000000  0.4508430000000  0.5322010000000 1.0
C      1  0.5124150000000  0.4587860000000  0.5125020000000 1.0
C      1  0.4704860000000  0.4851250000000  0.4571870000000 1.0
C      1  0.5569010000000  0.5063500000000  0.5658280000000 1.0
C      1  0.4705000000000  0.4972750000000  0.5352090000000 1.0
C      1  0.5633560000000  0.4531910000000  0.4657610000000 1.0
C      1  0.5052420000000  0.4808230000000  0.5445920000000 1.0
C      1  0.5404040000000  0.4536010000000  0.4404120000000 1.0
C      1  0.5548130000000  0.4919050000000  0.5177270000000 1.0
C      1  0.4826350000000  0.5017250000000  0.4332610000000 1.0
C      1  0.4919250000000  0.4834300000000  0.5134180000000 1.0
C      1  0.5320160000000  0.4436370000000  0.4711850000000 1.0
C      1  0.4206720000000  0.5455200000000  0.4702360000000 1.0
C      1  0.5418410000000  0.4331050000000  0.5412480000000 1.0
C      1  0.4359550000000  0.4598030000000  0.5005620000000 1.0
C      1  0.4625630000000  0.5149470000000  0.5915700000000 1.0
C      1  0.4895420000000  0.5397390000000  0.5110160000000 1.0
C      1  0.5533120000000  0.5226590000000  0.5218700000000 1.0
C      1  0.5416630000000  0.5501400000000  0.4629220000000 1.0
C      1  0.4374490000000  0.5250750000000  0.5177240000000 1.0
C      1  0.5144050000000  0.4375620000000  0.5353160000000 1.0
C      1  0.5517810000000  0.5648800000000  0.5103630000000 1.0
C      1  0.5007760000000  0.5747450000000  0.4852900000000 1.0
C      1  0.4655680000000  0.5576120000000  0.5492500000000 1.0
C      1  0.5141970000000  0.5337350000000  0.4653100000000 1.0
C      1  0.5845900000000  0.5354450000000  0.5265230000000 1.0
C      1  0.4832730000000  0.4678900000000  0.5631480000000 1.0
C      1  0.4521990000000  0.5498650000000  0.4705410000000 1.0
C      1  0.4393490000000  0.5154880000000  0.4884970000000 1.0
C      1  0.4549590000000  0.4387420000000  0.5025780000000 1.0
C      1  0.4814820000000  0.5533320000000  0.4409790000000 1.0
C      1  0.4886150000000  0.4214060000000  0.5350810000000 1.0
C      1  0.5390720000000  0.4696340000000  0.5006810000000 1.0
C      1  0.5171110000000  0.5095770000000  0.4514470000000 1.0
C      1  0.5312930000000  0.4778330000000  0.4707000000000 1.0
C      1  0.4886080000000  0.4953460000000  0.4840000000000 1.0
C      1  0.5319410000000  0.4837590000000  0.5640420000000 1.0
C      1  0.5591290000000  0.4791820000000  0.5454700000000 1.0
C      1  0.4395510000000  0.4465340000000  0.4553800000000 1.0
C      1  0.4642810000000  0.5414510000000  0.5235230000000 1.0
C      1  0.4874540000000  0.5724760000000  0.5334480000000 1.0
C      1  0.4909110000000  0.5710000000000  0.4590580000000 1.0
C      1  0.5169320000000  0.4326850000000  0.4926460000000 1.0
C      1  0.4398540000000  0.4923710000000  0.4648200000000 1.0
C      1  0.4264550000000  0.4878050000000  0.5876940000000 1.0
C      1  0.4689010000000  0.4323770000000  0.4784050000000 1.0
END
