TITL C-2778427-5640-795 -0.002789576749068 125000 -889.226277732997 0 0 151 (C1) n - 1
REM
REM in /home/nfs/bkarasulu/CARBON/AIRSS/Generating-Clusters/REBO/Only-C1/SD-CG/HFTN-CG
REM
REM
REM
REM
REM
REM ./C.cell (11c1c37f851c82e70ff6c80c92926a4b)
REM
REM compiler GCC version 9.2.1 20190827 (Red Hat 9.2.1-1)
REM options -cpp -mtune=generic -march=x86-64 -g -O0 -fpre-include=/usr/include/finclude/math-vector-fortran.h
REM seed -1232226636 644154038 -790641388 1007687317 -469045899 -953304124 2112479492 1152511663 -307395449 -2096141357 -985891976 2124512082 1795437559 1371493999 -150005967 769595488 733837872 -1632152993 716716341 -2049098947 -1953459806 642660191 1643059598 -554291564 -1952701181 2008394233 -1404387134 65881504 -606402874 -483398548 1882769824 -232044568 2034250977
REM
CELL 1.54180   50.00000   50.00000   50.00000   90.00000   90.00000   90.00000
LATT -1
SFAC C  
C      1  0.5147840000000  0.5030920000000  0.5640510000000 1.0
C      1  0.5009070000000  0.4055240000000  0.4704550000000 1.0
C      1  0.5686290000000  0.5555300000000  0.5345320000000 1.0
C      1  0.5169970000000  0.5361980000000  0.5862170000000 1.0
C      1  0.4957200000000  0.4985560000000  0.3925700000000 1.0
C      1  0.4354450000000  0.4514150000000  0.4457930000000 1.0
C      1  0.5611030000000  0.5485740000000  0.4667960000000 1.0
C      1  0.5490680000000  0.5694480000000  0.4250760000000 1.0
C      1  0.5458530000000  0.4170730000000  0.5121010000000 1.0
C      1  0.5405190000000  0.5148500000000  0.4064900000000 1.0
C      1  0.4959460000000  0.4603060000000  0.4708880000000 1.0
C      1  0.4248290000000  0.5128530000000  0.5822880000000 1.0
C      1  0.5612000000000  0.4454380000000  0.5568420000000 1.0
C      1  0.5427820000000  0.4259500000000  0.4475290000000 1.0
C      1  0.4354050000000  0.5406350000000  0.5662750000000 1.0
C      1  0.4295890000000  0.4886980000000  0.5679440000000 1.0
C      1  0.4567200000000  0.4926460000000  0.5485580000000 1.0
C      1  0.4391900000000  0.4266260000000  0.5104280000000 1.0
C      1  0.5700340000000  0.4296900000000  0.5277950000000 1.0
C      1  0.4820430000000  0.5008000000000  0.5697800000000 1.0
C      1  0.4551440000000  0.4810740000000  0.4165420000000 1.0
C      1  0.4590900000000  0.5611740000000  0.5167190000000 1.0
C      1  0.4307530000000  0.4745360000000  0.4302060000000 1.0
C      1  0.5556350000000  0.4878510000000  0.4816830000000 1.0
C      1  0.5270030000000  0.4603080000000  0.5435170000000 1.0
C      1  0.5914810000000  0.5342390000000  0.4454180000000 1.0
C      1  0.4235860000000  0.4678860000000  0.5418100000000 1.0
C      1  0.5545650000000  0.5773040000000  0.5150970000000 1.0
C      1  0.5671000000000  0.4493240000000  0.4452510000000 1.0
C      1  0.4580520000000  0.5334850000000  0.5192970000000 1.0
C      1  0.4561080000000  0.4786080000000  0.5212680000000 1.0
C      1  0.4463700000000  0.4513950000000  0.5612830000000 1.0
C      1  0.5190500000000  0.4019970000000  0.5059020000000 1.0
C      1  0.4627330000000  0.4671280000000  0.5787000000000 1.0
C      1  0.4724860000000  0.5287650000000  0.4731680000000 1.0
C      1  0.5190790000000  0.4813560000000  0.4307380000000 1.0
C      1  0.5062140000000  0.6029240000000  0.4568860000000 1.0
C      1  0.4559080000000  0.4498600000000  0.5227410000000 1.0
C      1  0.4995130000000  0.4041430000000  0.5258150000000 1.0
C      1  0.5691830000000  0.5000400000000  0.5624360000000 1.0
C      1  0.5394510000000  0.4553870000000  0.5811910000000 1.0
C      1  0.4753000000000  0.5949110000000  0.4668470000000 1.0
C      1  0.4665100000000  0.4869890000000  0.4667830000000 1.0
C      1  0.5254880000000  0.5906470000000  0.5184800000000 1.0
C      1  0.5323090000000  0.4309330000000  0.5492190000000 1.0
C      1  0.5430810000000  0.4679570000000  0.5048590000000 1.0
C      1  0.5139860000000  0.4329520000000  0.5849020000000 1.0
C      1  0.5093350000000  0.5173800000000  0.6118750000000 1.0
C      1  0.4002810000000  0.4704130000000  0.4930880000000 1.0
C      1  0.4287740000000  0.4549250000000  0.4846330000000 1.0
C      1  0.5534030000000  0.5069400000000  0.5251200000000 1.0
C      1  0.5342650000000  0.5977350000000  0.4375220000000 1.0
C      1  0.5454930000000  0.4623940000000  0.4644400000000 1.0
C      1  0.4883990000000  0.4223430000000  0.5693780000000 1.0
C      1  0.4991380000000  0.5807480000000  0.5603050000000 1.0
C      1  0.5083460000000  0.4479960000000  0.4116310000000 1.0
C      1  0.4772580000000  0.4574550000000  0.4214540000000 1.0
C      1  0.4926580000000  0.4966150000000  0.5316290000000 1.0
C      1  0.3948810000000  0.4865580000000  0.4651470000000 1.0
C      1  0.4180770000000  0.5341570000000  0.4919750000000 1.0
C      1  0.4872200000000  0.4840150000000  0.4399690000000 1.0
C      1  0.4723490000000  0.4270480000000  0.4324140000000 1.0
C      1  0.5202230000000  0.5101540000000  0.4704640000000 1.0
C      1  0.5070650000000  0.5352080000000  0.5135570000000 1.0
C      1  0.5782460000000  0.5640220000000  0.4417240000000 1.0
C      1  0.5555150000000  0.4823690000000  0.5881320000000 1.0
C      1  0.4990020000000  0.4927760000000  0.6050980000000 1.0
C      1  0.4501180000000  0.5209870000000  0.5976200000000 1.0
C      1  0.5245510000000  0.5200700000000  0.5359910000000 1.0
C      1  0.4662010000000  0.4113640000000  0.5244340000000 1.0
C      1  0.5307770000000  0.4398700000000  0.5010470000000 1.0
C      1  0.5409750000000  0.4866480000000  0.5496750000000 1.0
C      1  0.4624510000000  0.5482950000000  0.5830110000000 1.0
C      1  0.4341010000000  0.5820970000000  0.4937660000000 1.0
C      1  0.5170750000000  0.4817140000000  0.4873230000000 1.0
C      1  0.5472700000000  0.5258220000000  0.5597490000000 1.0
C      1  0.5038210000000  0.4416860000000  0.4954810000000 1.0
C      1  0.5758520000000  0.4409110000000  0.4961590000000 1.0
C      1  0.4414270000000  0.5054800000000  0.4530790000000 1.0
C      1  0.4905450000000  0.4620390000000  0.5707400000000 1.0
C      1  0.4808380000000  0.5217190000000  0.5033240000000 1.0
C      1  0.4090620000000  0.5322950000000  0.5240440000000 1.0
C      1  0.5945080000000  0.5295490000000  0.4959500000000 1.0
C      1  0.4719530000000  0.5620510000000  0.4661850000000 1.0
C      1  0.4132370000000  0.4928620000000  0.4461480000000 1.0
C      1  0.4770860000000  0.5766950000000  0.5762310000000 1.0
C      1  0.4416020000000  0.4272740000000  0.4772330000000 1.0
C      1  0.5640280000000  0.4627100000000  0.5274510000000 1.0
C      1  0.5706010000000  0.4810970000000  0.4397100000000 1.0
C      1  0.5185470000000  0.5149380000000  0.3881270000000 1.0
C      1  0.5296570000000  0.5728420000000  0.4679810000000 1.0
C      1  0.5186680000000  0.4284860000000  0.4291950000000 1.0
C      1  0.5645240000000  0.5717050000000  0.4873550000000 1.0
C      1  0.5852660000000  0.4896530000000  0.4694680000000 1.0
C      1  0.5099920000000  0.4138150000000  0.5501340000000 1.0
C      1  0.5386370000000  0.5093090000000  0.5864260000000 1.0
C      1  0.5111940000000  0.5498440000000  0.4240470000000 1.0
C      1  0.5437590000000  0.5251190000000  0.4553730000000 1.0
C      1  0.4764150000000  0.4907250000000  0.4962710000000 1.0
C      1  0.4909530000000  0.4636810000000  0.5102830000000 1.0
C      1  0.4883620000000  0.5307720000000  0.4281400000000 1.0
C      1  0.4625540000000  0.4267960000000  0.5545370000000 1.0
C      1  0.4817500000000  0.5688590000000  0.4962630000000 1.0
C      1  0.4669460000000  0.5532680000000  0.4362360000000 1.0
C      1  0.5958270000000  0.5184250000000  0.4711270000000 1.0
C      1  0.5458920000000  0.5436070000000  0.5114770000000 1.0
C      1  0.5436150000000  0.4908100000000  0.4213200000000 1.0
C      1  0.4765760000000  0.4020080000000  0.4940330000000 1.0
C      1  0.4177450000000  0.5000840000000  0.5319520000000 1.0
C      1  0.5155150000000  0.5950420000000  0.4886760000000 1.0
C      1  0.5106790000000  0.4721040000000  0.5889860000000 1.0
C      1  0.4086240000000  0.5022380000000  0.4992820000000 1.0
C      1  0.4368050000000  0.5516330000000  0.4502680000000 1.0
C      1  0.5239040000000  0.5601270000000  0.5648600000000 1.0
C      1  0.5698330000000  0.5133250000000  0.4412650000000 1.0
C      1  0.4371060000000  0.4850980000000  0.4969660000000 1.0
C      1  0.4165260000000  0.4516850000000  0.5166850000000 1.0
C      1  0.4974870000000  0.4660580000000  0.5408600000000 1.0
C      1  0.5125750000000  0.5608490000000  0.4938190000000 1.0
C      1  0.4468750000000  0.4232450000000  0.4440730000000 1.0
C      1  0.4431600000000  0.5146520000000  0.4836120000000 1.0
C      1  0.5436270000000  0.5165140000000  0.4943850000000 1.0
C      1  0.4776320000000  0.5963900000000  0.5160910000000 1.0
C      1  0.5232420000000  0.5595170000000  0.5319580000000 1.0
C      1  0.4491140000000  0.5254830000000  0.4312630000000 1.0
C      1  0.4581380000000  0.6003710000000  0.4907850000000 1.0
C      1  0.4677330000000  0.4945800000000  0.5982460000000 1.0
C      1  0.5899340000000  0.5023840000000  0.5401690000000 1.0
C      1  0.5320800000000  0.4092920000000  0.4753780000000 1.0
C      1  0.4857040000000  0.5219760000000  0.5445660000000 1.0
C      1  0.4329120000000  0.5733330000000  0.5244870000000 1.0
C      1  0.4647490000000  0.4550640000000  0.4603920000000 1.0
C      1  0.5203320000000  0.4629000000000  0.4524480000000 1.0
C      1  0.5871630000000  0.4674070000000  0.4951660000000 1.0
C      1  0.5392120000000  0.5378500000000  0.4252750000000 1.0
C      1  0.4990190000000  0.5941990000000  0.5354630000000 1.0
C      1  0.4934280000000  0.5138890000000  0.4548580000000 1.0
C      1  0.5897010000000  0.4797790000000  0.5229020000000 1.0
C      1  0.4747020000000  0.4265850000000  0.4723310000000 1.0
C      1  0.4899720000000  0.5398040000000  0.5686440000000 1.0
C      1  0.5565190000000  0.5559100000000  0.5624900000000 1.0
C      1  0.5606950000000  0.4276440000000  0.4765850000000 1.0
C      1  0.4267900000000  0.5593190000000  0.4760990000000 1.0
C      1  0.4428940000000  0.5205940000000  0.5414340000000 1.0
C      1  0.4962750000000  0.4152250000000  0.4406530000000 1.0
C      1  0.4703720000000  0.5087260000000  0.4102950000000 1.0
C      1  0.5804790000000  0.5277850000000  0.5235860000000 1.0
C      1  0.4196630000000  0.5531430000000  0.5406730000000 1.0
C      1  0.5020780000000  0.4709140000000  0.3933020000000 1.0
C      1  0.5592260000000  0.5871700000000  0.4582270000000 1.0
C      1  0.5107050000000  0.5738860000000  0.4396800000000 1.0
END
