TITL C-2778422-5617-186 -0.00433940147071426 125000 -201.233480339656 0 0 36 (C1) n - 1
REM
REM in /home/nfs/bkarasulu/CARBON/AIRSS/Generating-Clusters/REBO/Only-C1/SD-CG/HFTN-CG
REM
REM
REM
REM
REM
REM ./C.cell (11c1c37f851c82e70ff6c80c92926a4b)
REM
REM compiler GCC version 9.2.1 20190827 (Red Hat 9.2.1-1)
REM options -cpp -mtune=generic -march=x86-64 -g -O0 -fpre-include=/usr/include/finclude/math-vector-fortran.h
REM seed -949842069 -2138159383 1705111039 70695326 2085815982 -1818845984 -425885966 1490711366 -1503512498 -899565550 1471490116 112459913 990767041 -1818821691 -1356191879 -455895649 -1766736393 1074757617 -550314644 1069448448 -873218814 -1088565372 -2377069 -2007666643 -2087549454 -916992584 -37091848 -515489309 -920990011 -101727068 -253564520 440548453 302715168
REM
CELL 1.54180   50.00000   50.00000   50.00000   90.00000   90.00000   90.00000
LATT -1
SFAC C  
C      1  0.4956040000000  0.4596350000000  0.5475990000000 1.0
C      1  0.5948440000000  0.4960410000000  0.5136400000000 1.0
C      1  0.5139250000000  0.4972900000000  0.4285430000000 1.0
C      1  0.5389400000000  0.5093860000000  0.5587750000000 1.0
C      1  0.4979850000000  0.5288140000000  0.5235670000000 1.0
C      1  0.5396970000000  0.5227280000000  0.4828660000000 1.0
C      1  0.5039520000000  0.4516860000000  0.5223640000000 1.0
C      1  0.4500930000000  0.5186560000000  0.4582510000000 1.0
C      1  0.5709300000000  0.5023000000000  0.5223440000000 1.0
C      1  0.4942880000000  0.4658430000000  0.4610770000000 1.0
C      1  0.4693150000000  0.5106020000000  0.5253860000000 1.0
C      1  0.4655620000000  0.4601850000000  0.4685560000000 1.0
C      1  0.4471940000000  0.4880110000000  0.4728750000000 1.0
C      1  0.5047150000000  0.5042370000000  0.4865540000000 1.0
C      1  0.4887630000000  0.5154340000000  0.5522150000000 1.0
C      1  0.4964060000000  0.5583080000000  0.5158350000000 1.0
C      1  0.5240940000000  0.5160070000000  0.5114200000000 1.0
C      1  0.4618180000000  0.4834720000000  0.5013760000000 1.0
C      1  0.5456250000000  0.5089220000000  0.5315550000000 1.0
C      1  0.5038210000000  0.5561340000000  0.4662950000000 1.0
C      1  0.5059450000000  0.5078300000000  0.4525000000000 1.0
C      1  0.5207000000000  0.5330340000000  0.4639280000000 1.0
C      1  0.4849470000000  0.4367700000000  0.5073800000000 1.0
C      1  0.4793710000000  0.5569500000000  0.4515260000000 1.0
C      1  0.4903360000000  0.4771480000000  0.4948070000000 1.0
C      1  0.4533870000000  0.4833370000000  0.5318110000000 1.0
C      1  0.5215440000000  0.4716640000000  0.4705770000000 1.0
C      1  0.4905660000000  0.4856360000000  0.5679150000000 1.0
C      1  0.5032150000000  0.5688380000000  0.4917080000000 1.0
C      1  0.5425070000000  0.4916930000000  0.4856840000000 1.0
C      1  0.5226120000000  0.4713300000000  0.5046190000000 1.0
C      1  0.4766890000000  0.5014380000000  0.4637670000000 1.0
C      1  0.4552160000000  0.5438560000000  0.4504690000000 1.0
C      1  0.4655530000000  0.4692580000000  0.5528680000000 1.0
C      1  0.5149730000000  0.5073750000000  0.5704810000000 1.0
C      1  0.4648680000000  0.4401500000000  0.4888650000000 1.0
END
