TITL C-2778437-8639-723 0.00199080838273395 125000 -319.857036245952 0 0 56 (C1) n - 1
REM
REM in /home/nfs/bkarasulu/CARBON/AIRSS/Generating-Clusters/REBO/Only-C1/SD-CG/HFTN-CG
REM
REM
REM
REM
REM
REM ./C.cell (11c1c37f851c82e70ff6c80c92926a4b)
REM
REM compiler GCC version 9.2.1 20190827 (Red Hat 9.2.1-1)
REM options -cpp -mtune=generic -march=x86-64 -g -O0 -fpre-include=/usr/include/finclude/math-vector-fortran.h
REM seed -675502771 -1315663344 -1033270117 -192780218 1742146429 -1510190631 325424225 -1475463565 1841454786 1684400935 1576917177 1838879289 926927859 -762066584 -235963677 -544255580 895561382 1241327601 -1795527052 1006649689 1789285698 1965655245 -1923721363 -1117263184 -886699268 -2067002435 2051342072 447434166 -1593150707 -535491187 1377583662 -1578933404 892811311
REM
CELL 1.54180   50.00000   50.00000   50.00000   90.00000   90.00000   90.00000
LATT -1
SFAC C  
C      1  0.5784150000000  0.4930020000000  0.4878870000000 1.0
C      1  0.4706140000000  0.4462750000000  0.4800700000000 1.0
C      1  0.5137450000000  0.5578040000000  0.5511970000000 1.0
C      1  0.4185110000000  0.5058110000000  0.4938430000000 1.0
C      1  0.5725690000000  0.5189060000000  0.5274570000000 1.0
C      1  0.4777970000000  0.4989730000000  0.5161810000000 1.0
C      1  0.5055390000000  0.5342490000000  0.4549530000000 1.0
C      1  0.5062840000000  0.5738600000000  0.4906950000000 1.0
C      1  0.5385970000000  0.4617100000000  0.4461720000000 1.0
C      1  0.5206510000000  0.5002700000000  0.5393990000000 1.0
C      1  0.5750890000000  0.5190720000000  0.4990040000000 1.0
C      1  0.4343100000000  0.5315200000000  0.4814830000000 1.0
C      1  0.4477420000000  0.4677340000000  0.4753940000000 1.0
C      1  0.4262470000000  0.4790860000000  0.4900040000000 1.0
C      1  0.5336660000000  0.4896400000000  0.4434830000000 1.0
C      1  0.4624070000000  0.5134950000000  0.4483890000000 1.0
C      1  0.4873360000000  0.4568590000000  0.5438150000000 1.0
C      1  0.5299370000000  0.5264780000000  0.4878640000000 1.0
C      1  0.5080380000000  0.5376000000000  0.5064600000000 1.0
C      1  0.5203830000000  0.5483850000000  0.5813850000000 1.0
C      1  0.5559950000000  0.5371500000000  0.4860760000000 1.0
C      1  0.5493010000000  0.4577950000000  0.5060800000000 1.0
C      1  0.5164260000000  0.4703250000000  0.5437420000000 1.0
C      1  0.4574260000000  0.5346600000000  0.4669240000000 1.0
C      1  0.5083450000000  0.4787270000000  0.4735140000000 1.0
C      1  0.5312380000000  0.5790600000000  0.4804750000000 1.0
C      1  0.4582220000000  0.5411710000000  0.5284600000000 1.0
C      1  0.4656690000000  0.4745720000000  0.5104900000000 1.0
C      1  0.4159800000000  0.5360340000000  0.5072080000000 1.0
C      1  0.4560470000000  0.4967740000000  0.5570630000000 1.0
C      1  0.5060470000000  0.5657210000000  0.5238760000000 1.0
C      1  0.5284290000000  0.5156690000000  0.4494460000000 1.0
C      1  0.4308180000000  0.5484120000000  0.5279330000000 1.0
C      1  0.5668770000000  0.4670980000000  0.4859950000000 1.0
C      1  0.4564090000000  0.4849400000000  0.4551690000000 1.0
C      1  0.4464200000000  0.4576870000000  0.5170230000000 1.0
C      1  0.5625570000000  0.4556830000000  0.4602660000000 1.0
C      1  0.5165420000000  0.4430770000000  0.4464770000000 1.0
C      1  0.5188050000000  0.5259010000000  0.5581060000000 1.0
C      1  0.5513890000000  0.5100610000000  0.5417470000000 1.0
C      1  0.5551460000000  0.5650380000000  0.4801110000000 1.0
C      1  0.4884190000000  0.4831720000000  0.4480480000000 1.0
C      1  0.4873030000000  0.4328010000000  0.5281060000000 1.0
C      1  0.4702020000000  0.4276970000000  0.5058470000000 1.0
C      1  0.5002260000000  0.4574850000000  0.4907080000000 1.0
C      1  0.5064740000000  0.5070830000000  0.5137350000000 1.0
C      1  0.4782710000000  0.5527230000000  0.5092310000000 1.0
C      1  0.4905300000000  0.4499990000000  0.4526920000000 1.0
C      1  0.4901600000000  0.5147550000000  0.4380940000000 1.0
C      1  0.4858920000000  0.5508450000000  0.4759330000000 1.0
C      1  0.5197840000000  0.4524010000000  0.5154460000000 1.0
C      1  0.4668870000000  0.4713440000000  0.5566760000000 1.0
C      1  0.5337610000000  0.4597550000000  0.5666650000000 1.0
C      1  0.5152640000000  0.4208460000000  0.5253540000000 1.0
C      1  0.4635140000000  0.5143530000000  0.5359230000000 1.0
C      1  0.5213490000000  0.4984570000000  0.4862240000000 1.0
END
