TITL C-2778424-3986-182 -0.168279902936315 125000 -709.409923965477 0 0 123 (C1) n - 1
REM
REM in /home/nfs/bkarasulu/CARBON/AIRSS/Generating-Clusters/REBO/Only-C1/SD-CG/HFTN-CG
REM
REM
REM
REM
REM
REM ./C.cell (11c1c37f851c82e70ff6c80c92926a4b)
REM
REM compiler GCC version 9.2.1 20190827 (Red Hat 9.2.1-1)
REM options -cpp -mtune=generic -march=x86-64 -g -O0 -fpre-include=/usr/include/finclude/math-vector-fortran.h
REM seed -1179226565 -973209254 488362595 -2069878861 -1603613272 -1900942112 597613452 -959031099 102973153 -1788298747 -1710399641 -1052889543 -1547480394 -293754824 -1396587022 2035246326 -1443657879 -5145703 -529446776 -2136901408 1134485447 -544337867 1274113994 -465273495 -21953728 782309330 -1392045533 -305388674 1392125471 -693182651 810939828 813790973 -1290640256
REM
CELL 1.54180   50.00000   50.00000   50.00000   90.00000   90.00000   90.00000
LATT -1
SFAC C  
C      1  0.5495520000000  0.4101090000000  0.4612770000000 1.0
C      1  0.5416330000000  0.4946290000000  0.5693890000000 1.0
C      1  0.4065990000000  0.5054490000000  0.5208990000000 1.0
C      1  0.4632770000000  0.5109060000000  0.5816200000000 1.0
C      1  0.5046080000000  0.4044150000000  0.5439640000000 1.0
C      1  0.4441270000000  0.5128300000000  0.4457360000000 1.0
C      1  0.5016410000000  0.4280300000000  0.4180470000000 1.0
C      1  0.4347520000000  0.5376940000000  0.5506490000000 1.0
C      1  0.4343010000000  0.4954490000000  0.5725790000000 1.0
C      1  0.4919380000000  0.5924870000000  0.4676640000000 1.0
C      1  0.4526070000000  0.5045490000000  0.5177850000000 1.0
C      1  0.5838740000000  0.5441350000000  0.4580170000000 1.0
C      1  0.5316420000000  0.5594180000000  0.4350250000000 1.0
C      1  0.5567260000000  0.5371440000000  0.4413290000000 1.0
C      1  0.5573970000000  0.5691020000000  0.4783790000000 1.0
C      1  0.5596750000000  0.4406790000000  0.4989770000000 1.0
C      1  0.4645950000000  0.4657310000000  0.5563260000000 1.0
C      1  0.4641710000000  0.5576650000000  0.4523730000000 1.0
C      1  0.5805680000000  0.4922450000000  0.4889150000000 1.0
C      1  0.4520950000000  0.4560750000000  0.4843650000000 1.0
C      1  0.5543220000000  0.4964860000000  0.4952500000000 1.0
C      1  0.4794930000000  0.5563850000000  0.4794060000000 1.0
C      1  0.4413830000000  0.5842970000000  0.4998430000000 1.0
C      1  0.4311130000000  0.4636840000000  0.4515290000000 1.0
C      1  0.5318790000000  0.4215740000000  0.5542640000000 1.0
C      1  0.5066610000000  0.5526090000000  0.5893470000000 1.0
C      1  0.4873500000000  0.4502660000000  0.5021370000000 1.0
C      1  0.5015180000000  0.4802610000000  0.4926610000000 1.0
C      1  0.4480980000000  0.4307500000000  0.5270770000000 1.0
C      1  0.4780030000000  0.4905270000000  0.5621840000000 1.0
C      1  0.5001900000000  0.5077780000000  0.4718920000000 1.0
C      1  0.4856260000000  0.4460220000000  0.4564050000000 1.0
C      1  0.5774190000000  0.5702780000000  0.5002850000000 1.0
C      1  0.4342840000000  0.4637010000000  0.5707210000000 1.0
C      1  0.4833670000000  0.4898460000000  0.4017470000000 1.0
C      1  0.5125770000000  0.5995990000000  0.5444690000000 1.0
C      1  0.5467690000000  0.5399200000000  0.4737700000000 1.0
C      1  0.5098180000000  0.4777990000000  0.3994610000000 1.0
C      1  0.4588930000000  0.4463770000000  0.5843580000000 1.0
C      1  0.5140000000000  0.4499290000000  0.4488090000000 1.0
C      1  0.5815920000000  0.5307320000000  0.5656640000000 1.0
C      1  0.5392230000000  0.5474420000000  0.5243380000000 1.0
C      1  0.5212460000000  0.5547460000000  0.6126890000000 1.0
C      1  0.5399920000000  0.5934270000000  0.5043010000000 1.0
C      1  0.5068630000000  0.4637840000000  0.5886500000000 1.0
C      1  0.5423200000000  0.5820140000000  0.4577040000000 1.0
C      1  0.4398450000000  0.4269870000000  0.4972070000000 1.0
C      1  0.5088500000000  0.5619800000000  0.5314440000000 1.0
C      1  0.4937790000000  0.4060090000000  0.4871130000000 1.0
C      1  0.5498190000000  0.4807160000000  0.5328120000000 1.0
C      1  0.5199530000000  0.3995340000000  0.4715140000000 1.0
C      1  0.5220010000000  0.4183740000000  0.4431240000000 1.0
C      1  0.4930770000000  0.5407260000000  0.3944380000000 1.0
C      1  0.4740460000000  0.4292430000000  0.4222470000000 1.0
C      1  0.4393200000000  0.5149470000000  0.4177720000000 1.0
C      1  0.4369140000000  0.5312010000000  0.5223610000000 1.0
C      1  0.4425130000000  0.5399930000000  0.4592250000000 1.0
C      1  0.5452200000000  0.5262720000000  0.4997270000000 1.0
C      1  0.4595320000000  0.4558900000000  0.4375960000000 1.0
C      1  0.5311740000000  0.5846950000000  0.5582410000000 1.0
C      1  0.4444410000000  0.5968680000000  0.4753560000000 1.0
C      1  0.4635760000000  0.5393600000000  0.5622750000000 1.0
C      1  0.5130440000000  0.5463590000000  0.4115610000000 1.0
C      1  0.4882200000000  0.4427440000000  0.5789550000000 1.0
C      1  0.4801990000000  0.5476810000000  0.5876880000000 1.0
C      1  0.4164000000000  0.4972430000000  0.4890870000000 1.0
C      1  0.5118850000000  0.4495370000000  0.4023050000000 1.0
C      1  0.5873920000000  0.5475420000000  0.5450210000000 1.0
C      1  0.4347760000000  0.5457260000000  0.4856050000000 1.0
C      1  0.5205460000000  0.5269430000000  0.4565320000000 1.0
C      1  0.5368140000000  0.4674320000000  0.4587020000000 1.0
C      1  0.5873530000000  0.4883070000000  0.4627290000000 1.0
C      1  0.4286890000000  0.4536440000000  0.5418010000000 1.0
C      1  0.5659030000000  0.4529320000000  0.4542550000000 1.0
C      1  0.5332160000000  0.4746220000000  0.4889960000000 1.0
C      1  0.4210210000000  0.4449100000000  0.4753240000000 1.0
C      1  0.5623700000000  0.4843020000000  0.4433960000000 1.0
C      1  0.4838890000000  0.4320810000000  0.4813340000000 1.0
C      1  0.5063870000000  0.5182960000000  0.5038790000000 1.0
C      1  0.4601950000000  0.5582580000000  0.5048580000000 1.0
C      1  0.5118600000000  0.5706740000000  0.4605950000000 1.0
C      1  0.4907660000000  0.4822540000000  0.5249460000000 1.0
C      1  0.5082380000000  0.5450280000000  0.4827170000000 1.0
C      1  0.4476070000000  0.4880310000000  0.4916240000000 1.0
C      1  0.5505110000000  0.4662360000000  0.5614050000000 1.0
C      1  0.5671610000000  0.4648180000000  0.5156630000000 1.0
C      1  0.5103760000000  0.4583900000000  0.5367340000000 1.0
C      1  0.4199330000000  0.5106650000000  0.5519760000000 1.0
C      1  0.5945780000000  0.5547710000000  0.4809010000000 1.0
C      1  0.4282490000000  0.4816880000000  0.5255060000000 1.0
C      1  0.4697930000000  0.4828620000000  0.4255230000000 1.0
C      1  0.5343040000000  0.4210140000000  0.5230950000000 1.0
C      1  0.5313580000000  0.5083740000000  0.5251080000000 1.0
C      1  0.4940800000000  0.6017870000000  0.4933030000000 1.0
C      1  0.4255390000000  0.4915850000000  0.4586800000000 1.0
C      1  0.5537170000000  0.5070950000000  0.4272230000000 1.0
C      1  0.4960270000000  0.5076380000000  0.5435050000000 1.0
C      1  0.4950570000000  0.4361400000000  0.5511060000000 1.0
C      1  0.4738600000000  0.5005770000000  0.4515310000000 1.0
C      1  0.5565870000000  0.5193110000000  0.5697380000000 1.0
C      1  0.5569100000000  0.5860020000000  0.5486040000000 1.0
C      1  0.5337020000000  0.5293640000000  0.5512310000000 1.0
C      1  0.5294740000000  0.4956990000000  0.4076020000000 1.0
C      1  0.5303750000000  0.4468400000000  0.5703870000000 1.0
C      1  0.5667070000000  0.5640340000000  0.5280460000000 1.0
C      1  0.5168130000000  0.4861630000000  0.5547230000000 1.0
C      1  0.5299990000000  0.4023810000000  0.5036600000000 1.0
C      1  0.5133900000000  0.5909920000000  0.5140900000000 1.0
C      1  0.4130470000000  0.5333750000000  0.5023400000000 1.0
C      1  0.4896700000000  0.4909820000000  0.5921670000000 1.0
C      1  0.4206260000000  0.4531380000000  0.5086390000000 1.0
C      1  0.4794540000000  0.5203310000000  0.5205290000000 1.0
C      1  0.4655860000000  0.5873880000000  0.4583480000000 1.0
C      1  0.5649430000000  0.4312180000000  0.4724840000000 1.0
C      1  0.5229800000000  0.5212550000000  0.4275930000000 1.0
C      1  0.4770220000000  0.5499380000000  0.5325390000000 1.0
C      1  0.5202900000000  0.5558440000000  0.5632130000000 1.0
C      1  0.4738100000000  0.4165990000000  0.5351680000000 1.0
C      1  0.5299240000000  0.4508630000000  0.5131370000000 1.0
C      1  0.4691060000000  0.4556670000000  0.5280130000000 1.0
C      1  0.4909050000000  0.3972310000000  0.5137590000000 1.0
C      1  0.4807540000000  0.5163330000000  0.3913470000000 1.0
C      1  0.4727750000000  0.4790970000000  0.4747500000000 1.0
END
