TITL C-2778426-5645-1421 -0.000316370587972859 125000 -709.155096175201 0 0 123 (C1) n - 1
REM
REM in /home/nfs/bkarasulu/CARBON/AIRSS/Generating-Clusters/REBO/Only-C1/SD-CG/HFTN-CG
REM
REM
REM
REM
REM
REM ./C.cell (11c1c37f851c82e70ff6c80c92926a4b)
REM
REM compiler GCC version 9.2.1 20190827 (Red Hat 9.2.1-1)
REM options -cpp -mtune=generic -march=x86-64 -g -O0 -fpre-include=/usr/include/finclude/math-vector-fortran.h
REM seed -1881757970 1010345906 -1058119014 1040507711 -294518642 1437773450 -1752254215 -742392475 -1753443693 -115059884 463288037 1507047896 1927628015 -1705901466 46800143 -528943056 -1428252078 -1145327619 -1882581112 -354936719 -63984901 1246216449 -47450576 10622524 -884201439 -1460500260 81492087 1030071833 -319041153 1531579116 -2073220934 -679481471 -598375601
REM
CELL 1.54180   50.00000   50.00000   50.00000   90.00000   90.00000   90.00000
LATT -1
SFAC C  
C      1  0.4598500000000  0.5240340000000  0.4686370000000 1.0
C      1  0.5298430000000  0.5000780000000  0.5884520000000 1.0
C      1  0.4696340000000  0.4981780000000  0.4507350000000 1.0
C      1  0.4279200000000  0.5154710000000  0.4461420000000 1.0
C      1  0.5852840000000  0.4806340000000  0.4691140000000 1.0
C      1  0.5152800000000  0.5316440000000  0.4772430000000 1.0
C      1  0.5139890000000  0.4484800000000  0.5060690000000 1.0
C      1  0.5441120000000  0.4663210000000  0.4532470000000 1.0
C      1  0.4974000000000  0.4586240000000  0.4430610000000 1.0
C      1  0.4822060000000  0.4323420000000  0.4433220000000 1.0
C      1  0.5607160000000  0.4371550000000  0.4478320000000 1.0
C      1  0.5713030000000  0.4771120000000  0.4982520000000 1.0
C      1  0.4870380000000  0.4354540000000  0.5699230000000 1.0
C      1  0.4902740000000  0.4811810000000  0.4653970000000 1.0
C      1  0.5514070000000  0.5430090000000  0.4929530000000 1.0
C      1  0.4550770000000  0.4801520000000  0.4281300000000 1.0
C      1  0.5216040000000  0.4875050000000  0.4601120000000 1.0
C      1  0.4839090000000  0.4425620000000  0.5141910000000 1.0
C      1  0.5586780000000  0.5366390000000  0.5455400000000 1.0
C      1  0.5233710000000  0.5269690000000  0.4018690000000 1.0
C      1  0.4530780000000  0.5721800000000  0.4505450000000 1.0
C      1  0.5193310000000  0.4430670000000  0.5642430000000 1.0
C      1  0.4987430000000  0.5651480000000  0.4296600000000 1.0
C      1  0.4557160000000  0.4364290000000  0.5565400000000 1.0
C      1  0.5444990000000  0.5640100000000  0.5508680000000 1.0
C      1  0.5180510000000  0.4639750000000  0.4218440000000 1.0
C      1  0.5000400000000  0.4836000000000  0.5457280000000 1.0
C      1  0.4679390000000  0.4917710000000  0.5522140000000 1.0
C      1  0.5485560000000  0.5015020000000  0.5049600000000 1.0
C      1  0.5307580000000  0.5301840000000  0.5870800000000 1.0
C      1  0.5636370000000  0.5122980000000  0.4414650000000 1.0
C      1  0.5246290000000  0.4107470000000  0.4981400000000 1.0
C      1  0.4805660000000  0.4719990000000  0.5203070000000 1.0
C      1  0.5227430000000  0.5023800000000  0.4881190000000 1.0
C      1  0.5886320000000  0.5043910000000  0.5094930000000 1.0
C      1  0.5078620000000  0.5842540000000  0.5136220000000 1.0
C      1  0.5219240000000  0.5476770000000  0.5058900000000 1.0
C      1  0.5242480000000  0.4076610000000  0.5303260000000 1.0
C      1  0.4808230000000  0.4918870000000  0.4932990000000 1.0
C      1  0.4909540000000  0.5051290000000  0.4085660000000 1.0
C      1  0.5098990000000  0.5447250000000  0.5333970000000 1.0
C      1  0.4493450000000  0.5758040000000  0.5292410000000 1.0
C      1  0.4265140000000  0.5226270000000  0.5384530000000 1.0
C      1  0.5429140000000  0.5463730000000  0.4419180000000 1.0
C      1  0.4504120000000  0.5378150000000  0.5416960000000 1.0
C      1  0.4702180000000  0.5316460000000  0.4069790000000 1.0
C      1  0.5749210000000  0.4877410000000  0.5487310000000 1.0
C      1  0.5122250000000  0.5710610000000  0.4828510000000 1.0
C      1  0.5371190000000  0.4252020000000  0.5510810000000 1.0
C      1  0.4380940000000  0.4300010000000  0.4944790000000 1.0
C      1  0.4339150000000  0.4704050000000  0.5054340000000 1.0
C      1  0.4325140000000  0.4741550000000  0.4720110000000 1.0
C      1  0.4531610000000  0.4905340000000  0.5216030000000 1.0
C      1  0.4928260000000  0.5198120000000  0.5080190000000 1.0
C      1  0.5856750000000  0.5177340000000  0.5390020000000 1.0
C      1  0.4402790000000  0.5138770000000  0.5871190000000 1.0
C      1  0.4163920000000  0.5080110000000  0.5650120000000 1.0
C      1  0.5386630000000  0.4419610000000  0.4222140000000 1.0
C      1  0.5077380000000  0.5276640000000  0.5627270000000 1.0
C      1  0.4142520000000  0.4971990000000  0.5268050000000 1.0
C      1  0.4998900000000  0.4111930000000  0.5495070000000 1.0
C      1  0.5539100000000  0.4280120000000  0.5010230000000 1.0
C      1  0.4154030000000  0.5491740000000  0.4992950000000 1.0
C      1  0.4740860000000  0.4218460000000  0.5347850000000 1.0
C      1  0.4385830000000  0.5475420000000  0.4668580000000 1.0
C      1  0.5841420000000  0.5431210000000  0.5159310000000 1.0
C      1  0.5222760000000  0.5577360000000  0.5690820000000 1.0
C      1  0.5220120000000  0.5485240000000  0.4186970000000 1.0
C      1  0.5267810000000  0.4697400000000  0.5195750000000 1.0
C      1  0.4522300000000  0.4471900000000  0.4770790000000 1.0
C      1  0.5476550000000  0.4857990000000  0.5688430000000 1.0
C      1  0.5748900000000  0.4313030000000  0.5196880000000 1.0
C      1  0.4305180000000  0.5741010000000  0.5083150000000 1.0
C      1  0.5437640000000  0.4186250000000  0.4708220000000 1.0
C      1  0.4939700000000  0.4634170000000  0.5873900000000 1.0
C      1  0.4715750000000  0.5453240000000  0.5003500000000 1.0
C      1  0.5474620000000  0.4561180000000  0.4855460000000 1.0
C      1  0.4673250000000  0.5555970000000  0.5732220000000 1.0
C      1  0.5533420000000  0.5644870000000  0.4668420000000 1.0
C      1  0.4896900000000  0.5389760000000  0.4644090000000 1.0
C      1  0.4172830000000  0.4965990000000  0.4929340000000 1.0
C      1  0.5809530000000  0.4615260000000  0.5272800000000 1.0
C      1  0.4862280000000  0.4119880000000  0.4582910000000 1.0
C      1  0.5504060000000  0.4719660000000  0.5318610000000 1.0
C      1  0.4356460000000  0.5773540000000  0.4794190000000 1.0
C      1  0.5480550000000  0.5182610000000  0.5258890000000 1.0
C      1  0.4828400000000  0.4443230000000  0.4814710000000 1.0
C      1  0.4288360000000  0.4435570000000  0.5186960000000 1.0
C      1  0.5113830000000  0.4969750000000  0.5184350000000 1.0
C      1  0.4318510000000  0.4870670000000  0.4447970000000 1.0
C      1  0.4737810000000  0.4043860000000  0.5079690000000 1.0
C      1  0.4798030000000  0.5689600000000  0.5237680000000 1.0
C      1  0.4434950000000  0.5656380000000  0.5571610000000 1.0
C      1  0.4457040000000  0.5325250000000  0.4306540000000 1.0
C      1  0.4684190000000  0.5586320000000  0.4270540000000 1.0
C      1  0.4643490000000  0.5292850000000  0.5837740000000 1.0
C      1  0.4734330000000  0.5652940000000  0.4751080000000 1.0
C      1  0.4707370000000  0.4812570000000  0.4057820000000 1.0
C      1  0.5757930000000  0.5668500000000  0.4922700000000 1.0
C      1  0.5339670000000  0.5844720000000  0.5272450000000 1.0
C      1  0.5216910000000  0.4947300000000  0.4111240000000 1.0
C      1  0.4840770000000  0.5232180000000  0.4368790000000 1.0
C      1  0.5824880000000  0.5081280000000  0.4617850000000 1.0
C      1  0.4955480000000  0.4105590000000  0.4877680000000 1.0
C      1  0.4180160000000  0.5234340000000  0.4777740000000 1.0
C      1  0.4856400000000  0.5101280000000  0.5720990000000 1.0
C      1  0.5218400000000  0.4300160000000  0.4473570000000 1.0
C      1  0.4860990000000  0.5914240000000  0.4884320000000 1.0
C      1  0.5801800000000  0.5258210000000  0.4867440000000 1.0
C      1  0.4551360000000  0.5149110000000  0.4990620000000 1.0
C      1  0.4191890000000  0.4758470000000  0.5530200000000 1.0
C      1  0.5219480000000  0.5697300000000  0.4540880000000 1.0
C      1  0.5479680000000  0.4886350000000  0.4301960000000 1.0
C      1  0.4780550000000  0.5312440000000  0.5366060000000 1.0
C      1  0.4916000000000  0.5634690000000  0.5555190000000 1.0
C      1  0.5338510000000  0.5179330000000  0.4532770000000 1.0
C      1  0.4313240000000  0.4474150000000  0.5463920000000 1.0
C      1  0.4448190000000  0.4852820000000  0.5717930000000 1.0
C      1  0.5020810000000  0.4895530000000  0.5888790000000 1.0
C      1  0.5227310000000  0.4704950000000  0.5605270000000 1.0
C      1  0.5841900000000  0.4583140000000  0.4536400000000 1.0
C      1  0.5161240000000  0.4472100000000  0.4742770000000 1.0
C      1  0.5642360000000  0.5695870000000  0.5237420000000 1.0
END
