TITL C-2778422-5617-314 -0.00424165926108173 125000 -810.151875248297 0 0 139 (C1) n - 1
REM
REM in /home/nfs/bkarasulu/CARBON/AIRSS/Generating-Clusters/REBO/Only-C1/SD-CG/HFTN-CG
REM
REM
REM
REM
REM
REM ./C.cell (11c1c37f851c82e70ff6c80c92926a4b)
REM
REM compiler GCC version 9.2.1 20190827 (Red Hat 9.2.1-1)
REM options -cpp -mtune=generic -march=x86-64 -g -O0 -fpre-include=/usr/include/finclude/math-vector-fortran.h
REM seed 646004804 199495280 -1773202927 -1337678222 1744419305 596196421 -1921855277 -1547695888 460602008 2087386142 262904017 1001670881 1245393192 -1559034450 1159745645 -2096759191 -858649947 1849097617 -1529808137 -900410780 -1883499144 -705666580 659307002 1499925735 43905015 1961227230 1521865969 -1709431461 565338031 538430775 -1950317832 -1634585476 -1528132339
REM
CELL 1.54180   50.00000   50.00000   50.00000   90.00000   90.00000   90.00000
LATT -1
SFAC C  
C      1  0.4918590000000  0.4155330000000  0.4689470000000 1.0
C      1  0.5434850000000  0.5016270000000  0.4179770000000 1.0
C      1  0.4395440000000  0.5027850000000  0.4262800000000 1.0
C      1  0.5179390000000  0.5885730000000  0.4978860000000 1.0
C      1  0.4927060000000  0.4596170000000  0.5613490000000 1.0
C      1  0.4477500000000  0.5698360000000  0.4435430000000 1.0
C      1  0.5050310000000  0.5307740000000  0.5484200000000 1.0
C      1  0.5788730000000  0.5017530000000  0.5663160000000 1.0
C      1  0.4505530000000  0.5155750000000  0.5736080000000 1.0
C      1  0.5027510000000  0.5439330000000  0.5859680000000 1.0
C      1  0.4574210000000  0.4754650000000  0.4793240000000 1.0
C      1  0.4494500000000  0.4831670000000  0.5383160000000 1.0
C      1  0.5403040000000  0.4833420000000  0.5541810000000 1.0
C      1  0.5398690000000  0.5094530000000  0.5703580000000 1.0
C      1  0.5515570000000  0.5669560000000  0.4444670000000 1.0
C      1  0.5884840000000  0.4692710000000  0.4979750000000 1.0
C      1  0.6007510000000  0.5241020000000  0.5076150000000 1.0
C      1  0.5327710000000  0.5080980000000  0.5024750000000 1.0
C      1  0.4577340000000  0.4886610000000  0.5866750000000 1.0
C      1  0.5002530000000  0.5082980000000  0.4598630000000 1.0
C      1  0.5413820000000  0.5565240000000  0.4932870000000 1.0
C      1  0.4615580000000  0.4358160000000  0.5543030000000 1.0
C      1  0.4469070000000  0.4390630000000  0.4666120000000 1.0
C      1  0.4902250000000  0.4888160000000  0.4364270000000 1.0
C      1  0.4984790000000  0.4501000000000  0.4348790000000 1.0
C      1  0.4504490000000  0.5081320000000  0.4728550000000 1.0
C      1  0.5303830000000  0.5262780000000  0.4077680000000 1.0
C      1  0.5066260000000  0.4924860000000  0.5282450000000 1.0
C      1  0.4646640000000  0.5275670000000  0.5151640000000 1.0
C      1  0.4992220000000  0.4669670000000  0.6041510000000 1.0
C      1  0.5318620000000  0.5043900000000  0.4699540000000 1.0
C      1  0.5741940000000  0.4395490000000  0.4998170000000 1.0
C      1  0.4214680000000  0.5181090000000  0.4765990000000 1.0
C      1  0.4536890000000  0.4678600000000  0.5631140000000 1.0
C      1  0.5684170000000  0.5419420000000  0.4867740000000 1.0
C      1  0.4552370000000  0.4141250000000  0.5000980000000 1.0
C      1  0.4108360000000  0.4895730000000  0.5309630000000 1.0
C      1  0.4848800000000  0.5893180000000  0.5387010000000 1.0
C      1  0.5253630000000  0.4647540000000  0.5338910000000 1.0
C      1  0.5686120000000  0.5067860000000  0.4348940000000 1.0
C      1  0.4696500000000  0.5559850000000  0.4251930000000 1.0
C      1  0.5767700000000  0.4881830000000  0.5387230000000 1.0
C      1  0.5649050000000  0.5141060000000  0.5252300000000 1.0
C      1  0.4973740000000  0.5183260000000  0.4084170000000 1.0
C      1  0.5643470000000  0.5123290000000  0.4924130000000 1.0
C      1  0.5683280000000  0.4421830000000  0.5593950000000 1.0
C      1  0.3976200000000  0.5034560000000  0.5094130000000 1.0
C      1  0.4702600000000  0.4472810000000  0.5846760000000 1.0
C      1  0.4673810000000  0.4625320000000  0.5093940000000 1.0
C      1  0.5410080000000  0.4739520000000  0.4707880000000 1.0
C      1  0.5489710000000  0.4210190000000  0.4862030000000 1.0
C      1  0.5030390000000  0.4635190000000  0.4843620000000 1.0
C      1  0.5558040000000  0.5380540000000  0.4278430000000 1.0
C      1  0.5003390000000  0.5704270000000  0.4737430000000 1.0
C      1  0.5650950000000  0.4616780000000  0.5315220000000 1.0
C      1  0.5588830000000  0.5710320000000  0.5260380000000 1.0
C      1  0.4385410000000  0.4728260000000  0.4290280000000 1.0
C      1  0.5173360000000  0.4483640000000  0.5064750000000 1.0
C      1  0.5687830000000  0.4553890000000  0.4437040000000 1.0
C      1  0.5593390000000  0.4496990000000  0.5834520000000 1.0
C      1  0.4580580000000  0.4572660000000  0.4146020000000 1.0
C      1  0.4659450000000  0.5228850000000  0.4206650000000 1.0
C      1  0.4427830000000  0.4437150000000  0.4986970000000 1.0
C      1  0.5472100000000  0.4159960000000  0.5175250000000 1.0
C      1  0.4527110000000  0.5170130000000  0.5407220000000 1.0
C      1  0.5352450000000  0.5872560000000  0.5260120000000 1.0
C      1  0.5097680000000  0.5119930000000  0.5838810000000 1.0
C      1  0.5449640000000  0.4526770000000  0.4207810000000 1.0
C      1  0.5771510000000  0.4890600000000  0.4787910000000 1.0
C      1  0.4312310000000  0.4599230000000  0.4535570000000 1.0
C      1  0.5038940000000  0.5315650000000  0.4368620000000 1.0
C      1  0.4445790000000  0.5767780000000  0.5022560000000 1.0
C      1  0.5355040000000  0.5415940000000  0.5766320000000 1.0
C      1  0.4196150000000  0.5380370000000  0.5331670000000 1.0
C      1  0.4961420000000  0.5617220000000  0.5247910000000 1.0
C      1  0.5742390000000  0.4283610000000  0.5309450000000 1.0
C      1  0.5098700000000  0.5735550000000  0.5828470000000 1.0
C      1  0.4659380000000  0.4301290000000  0.4233540000000 1.0
C      1  0.5661110000000  0.5297630000000  0.5682180000000 1.0
C      1  0.5332680000000  0.5263350000000  0.4476570000000 1.0
C      1  0.5382760000000  0.4796670000000  0.4371200000000 1.0
C      1  0.5754540000000  0.4837750000000  0.4512310000000 1.0
C      1  0.5154240000000  0.4579140000000  0.4126900000000 1.0
C      1  0.4530450000000  0.5309600000000  0.4512100000000 1.0
C      1  0.5195220000000  0.4039830000000  0.5332270000000 1.0
C      1  0.4823530000000  0.4117350000000  0.4958300000000 1.0
C      1  0.4686660000000  0.4943240000000  0.5124720000000 1.0
C      1  0.4691880000000  0.5596510000000  0.5452550000000 1.0
C      1  0.5073980000000  0.4879470000000  0.4037660000000 1.0
C      1  0.4044970000000  0.5314080000000  0.5098790000000 1.0
C      1  0.4801280000000  0.4658080000000  0.4592250000000 1.0
C      1  0.4689650000000  0.4267080000000  0.4523120000000 1.0
C      1  0.5020890000000  0.4387720000000  0.5871920000000 1.0
C      1  0.5141390000000  0.5870130000000  0.5525080000000 1.0
C      1  0.4104420000000  0.5487400000000  0.4818560000000 1.0
C      1  0.5000020000000  0.4242560000000  0.5167730000000 1.0
C      1  0.4235570000000  0.5479380000000  0.4504310000000 1.0
C      1  0.4965060000000  0.5223800000000  0.5185520000000 1.0
C      1  0.4228710000000  0.5114590000000  0.5533410000000 1.0
C      1  0.4179550000000  0.5179730000000  0.4370710000000 1.0
C      1  0.5059860000000  0.4872190000000  0.5606210000000 1.0
C      1  0.4879010000000  0.5963510000000  0.5065890000000 1.0
C      1  0.5423340000000  0.4721090000000  0.5841880000000 1.0
C      1  0.4800990000000  0.4138510000000  0.5650620000000 1.0
C      1  0.5844980000000  0.5532040000000  0.5119860000000 1.0
C      1  0.4601720000000  0.5950920000000  0.4620050000000 1.0
C      1  0.4593930000000  0.5506540000000  0.4959720000000 1.0
C      1  0.5484340000000  0.4613150000000  0.5015220000000 1.0
C      1  0.4826090000000  0.4474240000000  0.5311570000000 1.0
C      1  0.5716580000000  0.5434780000000  0.5413070000000 1.0
C      1  0.5337890000000  0.5212290000000  0.5326250000000 1.0
C      1  0.5104530000000  0.4181950000000  0.5627980000000 1.0
C      1  0.4233750000000  0.4778090000000  0.4763520000000 1.0
C      1  0.5984420000000  0.4972880000000  0.5114500000000 1.0
C      1  0.5178150000000  0.4532060000000  0.4584720000000 1.0
C      1  0.5755150000000  0.5532610000000  0.4588240000000 1.0
C      1  0.5310490000000  0.4347720000000  0.5413320000000 1.0
C      1  0.5262240000000  0.5570410000000  0.5504500000000 1.0
C      1  0.3995700000000  0.5033910000000  0.4569850000000 1.0
C      1  0.5454980000000  0.4365330000000  0.4573310000000 1.0
C      1  0.5385950000000  0.5808140000000  0.4728920000000 1.0
C      1  0.5263930000000  0.5492240000000  0.5179790000000 1.0
C      1  0.4802690000000  0.5079220000000  0.4840540000000 1.0
C      1  0.4766560000000  0.5361890000000  0.5663890000000 1.0
C      1  0.4792100000000  0.4741280000000  0.4093640000000 1.0
C      1  0.4931620000000  0.5478760000000  0.4962270000000 1.0
C      1  0.5045960000000  0.4909620000000  0.4956450000000 1.0
C      1  0.4741850000000  0.4112550000000  0.4055780000000 1.0
C      1  0.4704730000000  0.5565860000000  0.4651140000000 1.0
C      1  0.4289380000000  0.4662740000000  0.5197190000000 1.0
C      1  0.5191720000000  0.5772210000000  0.4465020000000 1.0
C      1  0.4741680000000  0.4803370000000  0.6066740000000 1.0
C      1  0.4643870000000  0.5948910000000  0.4905990000000 1.0
C      1  0.4181700000000  0.5753070000000  0.4959470000000 1.0
C      1  0.5205150000000  0.4839480000000  0.5977390000000 1.0
C      1  0.3968130000000  0.4881960000000  0.4849150000000 1.0
C      1  0.4396180000000  0.5563670000000  0.5362480000000 1.0
C      1  0.5208950000000  0.4148220000000  0.4677180000000 1.0
C      1  0.4969450000000  0.5609070000000  0.4337180000000 1.0
END
