TITL C-2778429-3646-700 -0.00108220346417355 125000 -951.633783625209 0 0 161 (C1) n - 1
REM
REM in /home/nfs/bkarasulu/CARBON/AIRSS/Generating-Clusters/REBO/Only-C1/SD-CG/HFTN-CG
REM
REM
REM
REM
REM
REM ./C.cell (11c1c37f851c82e70ff6c80c92926a4b)
REM
REM compiler GCC version 9.2.1 20190827 (Red Hat 9.2.1-1)
REM options -cpp -mtune=generic -march=x86-64 -g -O0 -fpre-include=/usr/include/finclude/math-vector-fortran.h
REM seed -644195850 459600996 297632221 -1750659836 1579909412 -1364735186 -586498587 -479756519 657386807 913722979 -2111477409 -662666041 430293592 -1456517823 345480533 -1498209463 -2142026614 1306801577 1507003857 706963923 -11919292 -720348695 63573009 1329207935 760000854 -1050158710 1594837824 813537793 799522903 -315563280 1992849250 167211317 -1970901676
REM
CELL 1.54180   50.00000   50.00000   50.00000   90.00000   90.00000   90.00000
LATT -1
SFAC C  
C      1  0.5547100000000  0.5656150000000  0.5618680000000 1.0
C      1  0.4826320000000  0.5446920000000  0.4677710000000 1.0
C      1  0.5358870000000  0.5159480000000  0.5870400000000 1.0
C      1  0.5283110000000  0.3896910000000  0.4950970000000 1.0
C      1  0.5110960000000  0.5879290000000  0.4643730000000 1.0
C      1  0.6116890000000  0.4838210000000  0.5657670000000 1.0
C      1  0.4158750000000  0.4436150000000  0.5422710000000 1.0
C      1  0.4951590000000  0.4911610000000  0.5041240000000 1.0
C      1  0.5328480000000  0.5287760000000  0.5496370000000 1.0
C      1  0.4857970000000  0.4242700000000  0.5626510000000 1.0
C      1  0.4010760000000  0.5479690000000  0.5134500000000 1.0
C      1  0.4995620000000  0.4556630000000  0.4059500000000 1.0
C      1  0.4590470000000  0.4594430000000  0.5871340000000 1.0
C      1  0.4524260000000  0.4842770000000  0.6000940000000 1.0
C      1  0.5675880000000  0.4280480000000  0.5199170000000 1.0
C      1  0.4617100000000  0.4160120000000  0.5524550000000 1.0
C      1  0.5164340000000  0.5244860000000  0.4552000000000 1.0
C      1  0.5167780000000  0.5398710000000  0.5845380000000 1.0
C      1  0.5597250000000  0.5163160000000  0.5627030000000 1.0
C      1  0.5134780000000  0.4124200000000  0.5468470000000 1.0
C      1  0.4282630000000  0.5757510000000  0.5474180000000 1.0
C      1  0.4177320000000  0.5019500000000  0.4693490000000 1.0
C      1  0.4497390000000  0.5128820000000  0.4906510000000 1.0
C      1  0.5666690000000  0.4350160000000  0.4460910000000 1.0
C      1  0.5617880000000  0.5070590000000  0.4245790000000 1.0
C      1  0.4408470000000  0.5834870000000  0.4640370000000 1.0
C      1  0.5706520000000  0.5531190000000  0.4426820000000 1.0
C      1  0.4584530000000  0.4184980000000  0.4826480000000 1.0
C      1  0.4724690000000  0.4570190000000  0.4393270000000 1.0
C      1  0.4340180000000  0.5971760000000  0.4876970000000 1.0
C      1  0.5277990000000  0.4523200000000  0.4174920000000 1.0
C      1  0.4368260000000  0.4200240000000  0.5311350000000 1.0
C      1  0.4822760000000  0.4090620000000  0.4674400000000 1.0
C      1  0.5515190000000  0.4944180000000  0.4884070000000 1.0
C      1  0.5341400000000  0.4704560000000  0.5692950000000 1.0
C      1  0.4344010000000  0.5362000000000  0.4327230000000 1.0
C      1  0.5445600000000  0.4433440000000  0.4706180000000 1.0
C      1  0.4436720000000  0.5087070000000  0.5878710000000 1.0
C      1  0.4563220000000  0.5237750000000  0.4634010000000 1.0
C      1  0.5430700000000  0.5615240000000  0.5077970000000 1.0
C      1  0.4528190000000  0.4651400000000  0.5169050000000 1.0
C      1  0.5121980000000  0.4371640000000  0.5042260000000 1.0
C      1  0.4070660000000  0.4977310000000  0.4985230000000 1.0
C      1  0.5909320000000  0.5365870000000  0.4545570000000 1.0
C      1  0.4189330000000  0.4829300000000  0.4412010000000 1.0
C      1  0.3940740000000  0.4681130000000  0.5383130000000 1.0
C      1  0.4189450000000  0.5499340000000  0.4915580000000 1.0
C      1  0.5391800000000  0.5839950000000  0.5405310000000 1.0
C      1  0.5687490000000  0.4948360000000  0.5415000000000 1.0
C      1  0.4928090000000  0.5753770000000  0.5085990000000 1.0
C      1  0.4863040000000  0.4533070000000  0.5352860000000 1.0
C      1  0.4173370000000  0.5316220000000  0.4628260000000 1.0
C      1  0.5326530000000  0.4351020000000  0.5877830000000 1.0
C      1  0.4721450000000  0.5702200000000  0.4850190000000 1.0
C      1  0.5223500000000  0.4413480000000  0.4469470000000 1.0
C      1  0.4484060000000  0.4347260000000  0.4375400000000 1.0
C      1  0.5275410000000  0.5793010000000  0.4425690000000 1.0
C      1  0.4700270000000  0.5761660000000  0.4284410000000 1.0
C      1  0.3919370000000  0.4811680000000  0.5135260000000 1.0
C      1  0.5574010000000  0.4392970000000  0.5468930000000 1.0
C      1  0.5998920000000  0.4649960000000  0.5176890000000 1.0
C      1  0.4503060000000  0.5550630000000  0.5473220000000 1.0
C      1  0.4422510000000  0.4667240000000  0.4271030000000 1.0
C      1  0.5434590000000  0.4821760000000  0.4145630000000 1.0
C      1  0.4790770000000  0.5822330000000  0.5389900000000 1.0
C      1  0.5604830000000  0.4541430000000  0.4237560000000 1.0
C      1  0.4967250000000  0.6087250000000  0.5315110000000 1.0
C      1  0.4635270000000  0.5932920000000  0.4504370000000 1.0
C      1  0.4039970000000  0.5620500000000  0.5419590000000 1.0
C      1  0.5955460000000  0.4678420000000  0.4583830000000 1.0
C      1  0.4934790000000  0.4847840000000  0.5336370000000 1.0
C      1  0.4913130000000  0.4826970000000  0.4091320000000 1.0
C      1  0.4779900000000  0.4177190000000  0.4350560000000 1.0
C      1  0.6131570000000  0.5274180000000  0.4408480000000 1.0
C      1  0.4208910000000  0.4496590000000  0.4810550000000 1.0
C      1  0.5696640000000  0.5439280000000  0.5514160000000 1.0
C      1  0.4496680000000  0.5926910000000  0.5342250000000 1.0
C      1  0.5509410000000  0.4704130000000  0.5442740000000 1.0
C      1  0.5090070000000  0.4121420000000  0.4483760000000 1.0
C      1  0.4201090000000  0.5072130000000  0.5650830000000 1.0
C      1  0.5691240000000  0.4120770000000  0.4712500000000 1.0
C      1  0.4979350000000  0.4810610000000  0.4760700000000 1.0
C      1  0.4683910000000  0.4829680000000  0.4594750000000 1.0
C      1  0.5222160000000  0.5549650000000  0.5411380000000 1.0
C      1  0.4080280000000  0.5285040000000  0.5413820000000 1.0
C      1  0.4434710000000  0.5106170000000  0.5432780000000 1.0
C      1  0.5411710000000  0.5946590000000  0.5097360000000 1.0
C      1  0.5556890000000  0.5015750000000  0.4566360000000 1.0
C      1  0.5193040000000  0.5300220000000  0.4145690000000 1.0
C      1  0.4840550000000  0.4467770000000  0.5811840000000 1.0
C      1  0.4689400000000  0.5511510000000  0.5679030000000 1.0
C      1  0.5154780000000  0.4522340000000  0.5410400000000 1.0
C      1  0.4110030000000  0.4777090000000  0.5621730000000 1.0
C      1  0.4442090000000  0.5053410000000  0.4372420000000 1.0
C      1  0.5349110000000  0.4588990000000  0.5171930000000 1.0
C      1  0.5991100000000  0.4871290000000  0.5413020000000 1.0
C      1  0.6145630000000  0.5021280000000  0.5175250000000 1.0
C      1  0.5384180000000  0.4249640000000  0.5628100000000 1.0
C      1  0.5528150000000  0.5360020000000  0.4200860000000 1.0
C      1  0.4925240000000  0.5194120000000  0.5737190000000 1.0
C      1  0.5021580000000  0.4090730000000  0.4911560000000 1.0
C      1  0.4573010000000  0.5472150000000  0.5216550000000 1.0
C      1  0.4849430000000  0.6005230000000  0.4717880000000 1.0
C      1  0.5105760000000  0.5596300000000  0.4729100000000 1.0
C      1  0.5640330000000  0.5805230000000  0.4888620000000 1.0
C      1  0.5360180000000  0.5488020000000  0.4801280000000 1.0
C      1  0.5525080000000  0.4633790000000  0.4927130000000 1.0
C      1  0.5555010000000  0.5304810000000  0.4718460000000 1.0
C      1  0.4717030000000  0.4995460000000  0.5552870000000 1.0
C      1  0.5236340000000  0.5113100000000  0.4857800000000 1.0
C      1  0.4873130000000  0.5295720000000  0.4244770000000 1.0
C      1  0.4405680000000  0.4771360000000  0.4741610000000 1.0
C      1  0.4610690000000  0.4102400000000  0.5130150000000 1.0
C      1  0.5770730000000  0.5408110000000  0.5239630000000 1.0
C      1  0.4804760000000  0.4373240000000  0.5099000000000 1.0
C      1  0.4984770000000  0.4572770000000  0.4552600000000 1.0
C      1  0.5233930000000  0.4908640000000  0.5900020000000 1.0
C      1  0.4797130000000  0.6125310000000  0.5019710000000 1.0
C      1  0.4028180000000  0.4660700000000  0.4604050000000 1.0
C      1  0.4355330000000  0.4281450000000  0.4645200000000 1.0
C      1  0.4882430000000  0.5064770000000  0.4468910000000 1.0
C      1  0.5126990000000  0.6025380000000  0.5031390000000 1.0
C      1  0.5744750000000  0.4791140000000  0.4395080000000 1.0
C      1  0.5119220000000  0.5506150000000  0.5120880000000 1.0
C      1  0.4729480000000  0.5229310000000  0.5131410000000 1.0
C      1  0.5298980000000  0.5488940000000  0.4396670000000 1.0
C      1  0.5858840000000  0.4417040000000  0.4733820000000 1.0
C      1  0.5153840000000  0.4986850000000  0.4186050000000 1.0
C      1  0.4600890000000  0.4523350000000  0.4874500000000 1.0
C      1  0.5855880000000  0.5253040000000  0.4845240000000 1.0
C      1  0.5106580000000  0.4589760000000  0.5904530000000 1.0
C      1  0.4634270000000  0.5277230000000  0.5841590000000 1.0
C      1  0.4414380000000  0.5548020000000  0.4590710000000 1.0
C      1  0.4276310000000  0.4458270000000  0.5107640000000 1.0
C      1  0.4360820000000  0.4568250000000  0.5650090000000 1.0
C      1  0.4654600000000  0.4895470000000  0.4174350000000 1.0
C      1  0.6114510000000  0.4850210000000  0.4720490000000 1.0
C      1  0.5346840000000  0.4192610000000  0.5210270000000 1.0
C      1  0.4451650000000  0.5602590000000  0.4983990000000 1.0
C      1  0.5192410000000  0.4912520000000  0.4515810000000 1.0
C      1  0.5809040000000  0.4500670000000  0.5032710000000 1.0
C      1  0.4652420000000  0.5481070000000  0.4247180000000 1.0
C      1  0.5246100000000  0.5721030000000  0.5766790000000 1.0
C      1  0.4900330000000  0.5193110000000  0.4846280000000 1.0
C      1  0.5149420000000  0.5985790000000  0.5569800000000 1.0
C      1  0.6081090000000  0.5050500000000  0.4914410000000 1.0
C      1  0.5575690000000  0.4037010000000  0.5005900000000 1.0
C      1  0.4604400000000  0.4682110000000  0.5483090000000 1.0
C      1  0.5638450000000  0.5745230000000  0.4584040000000 1.0
C      1  0.5829740000000  0.5609410000000  0.5066670000000 1.0
C      1  0.4257090000000  0.5168290000000  0.5147490000000 1.0
C      1  0.5123370000000  0.5180720000000  0.5171850000000 1.0
C      1  0.4503500000000  0.6058450000000  0.5091560000000 1.0
C      1  0.5100560000000  0.5079030000000  0.5491980000000 1.0
C      1  0.4958350000000  0.5639000000000  0.5601120000000 1.0
C      1  0.5349980000000  0.4102650000000  0.4685240000000 1.0
C      1  0.5058350000000  0.3919590000000  0.5207480000000 1.0
C      1  0.4832800000000  0.4339570000000  0.4081410000000 1.0
C      1  0.4579330000000  0.4942120000000  0.5180840000000 1.0
C      1  0.4764740000000  0.3873310000000  0.5200990000000 1.0
C      1  0.5696620000000  0.5106140000000  0.5113630000000 1.0
END
