TITL C-2778436-5916-734 -0.00234713701518956 125000 -631.558645380058 0 0 109 (C1) n - 1
REM
REM in /home/nfs/bkarasulu/CARBON/AIRSS/Generating-Clusters/REBO/Only-C1/SD-CG/HFTN-CG
REM
REM
REM
REM
REM
REM ./C.cell (11c1c37f851c82e70ff6c80c92926a4b)
REM
REM compiler GCC version 9.2.1 20190827 (Red Hat 9.2.1-1)
REM options -cpp -mtune=generic -march=x86-64 -g -O0 -fpre-include=/usr/include/finclude/math-vector-fortran.h
REM seed -2143763839 -1898913088 -1537779095 -2063573047 1063842698 -1209191400 -204911281 879870525 -2040414786 -2031255856 -833650861 842224096 472696173 -1374821238 256373627 2009084092 1522622854 352469488 -1015034488 913336907 675390297 1647335997 -2007950212 843058248 1041723143 -1915340104 1559572748 847938989 1510011670 -1314744988 2116271138 1254799758 2089979202
REM
CELL 1.54180   50.00000   50.00000   50.00000   90.00000   90.00000   90.00000
LATT -1
SFAC C  
C      1  0.5376450000000  0.4988720000000  0.4708980000000 1.0
C      1  0.4710380000000  0.4824380000000  0.5472860000000 1.0
C      1  0.4949110000000  0.4508580000000  0.5229650000000 1.0
C      1  0.5578210000000  0.4561850000000  0.4265600000000 1.0
C      1  0.4606780000000  0.5668310000000  0.4879740000000 1.0
C      1  0.4349550000000  0.5035230000000  0.4952540000000 1.0
C      1  0.5074410000000  0.5064650000000  0.5191200000000 1.0
C      1  0.5854150000000  0.5080990000000  0.4849520000000 1.0
C      1  0.4415370000000  0.5040800000000  0.4628940000000 1.0
C      1  0.4876070000000  0.4553990000000  0.4668210000000 1.0
C      1  0.4601170000000  0.4675950000000  0.4740050000000 1.0
C      1  0.4416140000000  0.4484440000000  0.5170570000000 1.0
C      1  0.4832170000000  0.4825270000000  0.5181080000000 1.0
C      1  0.5150240000000  0.4086330000000  0.5097280000000 1.0
C      1  0.4693180000000  0.5164070000000  0.5859490000000 1.0
C      1  0.5267700000000  0.5333690000000  0.5651550000000 1.0
C      1  0.4893060000000  0.5429510000000  0.5313990000000 1.0
C      1  0.4654170000000  0.4912040000000  0.4930870000000 1.0
C      1  0.4139000000000  0.4986320000000  0.5286900000000 1.0
C      1  0.5938040000000  0.4984150000000  0.5135430000000 1.0
C      1  0.4542140000000  0.4653680000000  0.4245320000000 1.0
C      1  0.5597750000000  0.4812290000000  0.5694940000000 1.0
C      1  0.4805130000000  0.5700450000000  0.4536410000000 1.0
C      1  0.4684290000000  0.4220820000000  0.4873380000000 1.0
C      1  0.4430260000000  0.5265890000000  0.5138980000000 1.0
C      1  0.4847070000000  0.5545800000000  0.5630000000000 1.0
C      1  0.4820310000000  0.5184360000000  0.4832970000000 1.0
C      1  0.5269280000000  0.4115240000000  0.4839450000000 1.0
C      1  0.5449760000000  0.4497170000000  0.4566060000000 1.0
C      1  0.4492190000000  0.4435200000000  0.4897430000000 1.0
C      1  0.5242790000000  0.4705310000000  0.4645390000000 1.0
C      1  0.5464620000000  0.5504730000000  0.4401460000000 1.0
C      1  0.5229170000000  0.4784710000000  0.5162610000000 1.0
C      1  0.4414340000000  0.5615520000000  0.5330940000000 1.0
C      1  0.5485310000000  0.4606320000000  0.5859820000000 1.0
C      1  0.4863840000000  0.4202970000000  0.5135400000000 1.0
C      1  0.4324460000000  0.4729830000000  0.5786850000000 1.0
C      1  0.5792730000000  0.4853750000000  0.5480420000000 1.0
C      1  0.4123870000000  0.4802600000000  0.4493750000000 1.0
C      1  0.5088600000000  0.4091990000000  0.4620460000000 1.0
C      1  0.5518290000000  0.5237770000000  0.4536260000000 1.0
C      1  0.5483000000000  0.4298360000000  0.4812360000000 1.0
C      1  0.4082280000000  0.5160140000000  0.4814620000000 1.0
C      1  0.4131450000000  0.5445290000000  0.4855630000000 1.0
C      1  0.4522090000000  0.5815120000000  0.4583120000000 1.0
C      1  0.4822840000000  0.4972340000000  0.4367000000000 1.0
C      1  0.5604270000000  0.5001920000000  0.5148790000000 1.0
C      1  0.5065020000000  0.4762010000000  0.5680020000000 1.0
C      1  0.5194630000000  0.5876250000000  0.4877330000000 1.0
C      1  0.5326370000000  0.5141960000000  0.5008980000000 1.0
C      1  0.5296600000000  0.4444360000000  0.5740030000000 1.0
C      1  0.5002910000000  0.4716970000000  0.4429390000000 1.0
C      1  0.4363350000000  0.5535650000000  0.4678520000000 1.0
C      1  0.5857890000000  0.5180720000000  0.5399350000000 1.0
C      1  0.5660810000000  0.5774590000000  0.4911790000000 1.0
C      1  0.4753690000000  0.4665010000000  0.5771370000000 1.0
C      1  0.5674420000000  0.5462070000000  0.5326560000000 1.0
C      1  0.5854500000000  0.4903120000000  0.4629520000000 1.0
C      1  0.5681070000000  0.5529240000000  0.5026930000000 1.0
C      1  0.5369690000000  0.5547090000000  0.5452230000000 1.0
C      1  0.4405220000000  0.5417110000000  0.5557920000000 1.0
C      1  0.5020870000000  0.6035220000000  0.5041920000000 1.0
C      1  0.4287010000000  0.5165080000000  0.5497770000000 1.0
C      1  0.4615990000000  0.5021580000000  0.4106880000000 1.0
C      1  0.4573710000000  0.5299630000000  0.4256500000000 1.0
C      1  0.5792700000000  0.4443320000000  0.4456950000000 1.0
C      1  0.4881590000000  0.5507900000000  0.4808190000000 1.0
C      1  0.4440590000000  0.4751590000000  0.4482870000000 1.0
C      1  0.4607490000000  0.4323280000000  0.5323710000000 1.0
C      1  0.4851510000000  0.4243380000000  0.4633530000000 1.0
C      1  0.3974700000000  0.4991690000000  0.4619280000000 1.0
C      1  0.5820400000000  0.4672880000000  0.5207840000000 1.0
C      1  0.5326700000000  0.4118560000000  0.5302770000000 1.0
C      1  0.4908510000000  0.5452430000000  0.4413170000000 1.0
C      1  0.5253370000000  0.5504590000000  0.5157470000000 1.0
C      1  0.4644770000000  0.5531400000000  0.4123100000000 1.0
C      1  0.4885110000000  0.5023650000000  0.5654890000000 1.0
C      1  0.4216120000000  0.5489790000000  0.5133710000000 1.0
C      1  0.5453260000000  0.5764630000000  0.4480650000000 1.0
C      1  0.5077840000000  0.4611950000000  0.4929010000000 1.0
C      1  0.5299590000000  0.4715310000000  0.5447180000000 1.0
C      1  0.5012350000000  0.4457740000000  0.5548900000000 1.0
C      1  0.5625020000000  0.4161870000000  0.5394730000000 1.0
C      1  0.4617070000000  0.5760110000000  0.5173740000000 1.0
C      1  0.5367630000000  0.5011290000000  0.5606630000000 1.0
C      1  0.4405050000000  0.4849240000000  0.5546460000000 1.0
C      1  0.4383200000000  0.4920500000000  0.3994150000000 1.0
C      1  0.5129060000000  0.5600610000000  0.4941130000000 1.0
C      1  0.5854620000000  0.4619070000000  0.4683950000000 1.0
C      1  0.5479570000000  0.4779000000000  0.4958410000000 1.0
C      1  0.4709430000000  0.5319340000000  0.5114260000000 1.0
C      1  0.5603420000000  0.5279300000000  0.4861730000000 1.0
C      1  0.5045270000000  0.5712610000000  0.5426900000000 1.0
C      1  0.4869950000000  0.5887860000000  0.5238840000000 1.0
C      1  0.4625500000000  0.5418090000000  0.5746810000000 1.0
C      1  0.5039540000000  0.4749670000000  0.4115520000000 1.0
C      1  0.4283090000000  0.4709600000000  0.5268880000000 1.0
C      1  0.4748520000000  0.4338390000000  0.5722740000000 1.0
C      1  0.5611880000000  0.4836260000000  0.4204000000000 1.0
C      1  0.4642670000000  0.4896010000000  0.5960740000000 1.0
C      1  0.5453010000000  0.5878300000000  0.4743520000000 1.0
C      1  0.4872650000000  0.5198380000000  0.4526750000000 1.0
C      1  0.5523040000000  0.5175560000000  0.5396320000000 1.0
C      1  0.4454200000000  0.5292910000000  0.4507510000000 1.0
C      1  0.5682460000000  0.4539550000000  0.4933650000000 1.0
C      1  0.5393640000000  0.4407580000000  0.5440700000000 1.0
C      1  0.4886980000000  0.4897510000000  0.3980160000000 1.0
C      1  0.5695050000000  0.5008220000000  0.4412670000000 1.0
C      1  0.5040680000000  0.5202560000000  0.5478590000000 1.0
END
