TITL C-2778425-5191-1458 -0.00223941971397055 125000 -1003.59759537828 0 0 174 (C1) n - 1
REM
REM in /home/nfs/bkarasulu/CARBON/AIRSS/Generating-Clusters/REBO/Only-C1/SD-CG/HFTN-CG
REM
REM
REM
REM
REM
REM ./C.cell (11c1c37f851c82e70ff6c80c92926a4b)
REM
REM compiler GCC version 9.2.1 20190827 (Red Hat 9.2.1-1)
REM options -cpp -mtune=generic -march=x86-64 -g -O0 -fpre-include=/usr/include/finclude/math-vector-fortran.h
REM seed 479324348 278386909 -1656949590 1314112222 1010449423 1080239221 1234298291 1657437859 -1038046198 -92686792 907106391 148596950 840653463 -1948212995 1819107755 -1660531534 -1738161841 89161161 345559652 378623482 794643385 -2102397643 -1205583204 -1740841953 1289817426 361605701 401798472 -1738113249 470000793 2116774735 -833294352 1941385214 1478929916
REM
CELL 1.54180   50.00000   50.00000   50.00000   90.00000   90.00000   90.00000
LATT -1
SFAC C  
C      1  0.5953100000000  0.4829140000000  0.5421490000000 1.0
C      1  0.4006610000000  0.4750360000000  0.4688510000000 1.0
C      1  0.5772830000000  0.4317710000000  0.4504460000000 1.0
C      1  0.5103230000000  0.4711530000000  0.4755170000000 1.0
C      1  0.4575860000000  0.3988490000000  0.5153100000000 1.0
C      1  0.5272160000000  0.5211410000000  0.4560190000000 1.0
C      1  0.5182930000000  0.5975630000000  0.5363350000000 1.0
C      1  0.4573810000000  0.4394600000000  0.4399440000000 1.0
C      1  0.5273870000000  0.3973750000000  0.5090200000000 1.0
C      1  0.4127210000000  0.4456540000000  0.4688500000000 1.0
C      1  0.4293270000000  0.5389530000000  0.4171720000000 1.0
C      1  0.4691790000000  0.5420760000000  0.5062390000000 1.0
C      1  0.5309570000000  0.4366310000000  0.5022210000000 1.0
C      1  0.5088080000000  0.4047340000000  0.4573040000000 1.0
C      1  0.4829350000000  0.4881190000000  0.4518530000000 1.0
C      1  0.5585460000000  0.4407650000000  0.6026750000000 1.0
C      1  0.5029130000000  0.5263320000000  0.5448870000000 1.0
C      1  0.5637900000000  0.5308900000000  0.4041550000000 1.0
C      1  0.5075160000000  0.4528450000000  0.4538860000000 1.0
C      1  0.5720000000000  0.5615740000000  0.5603610000000 1.0
C      1  0.4615930000000  0.5982230000000  0.4794690000000 1.0
C      1  0.4516720000000  0.5714200000000  0.4743350000000 1.0
C      1  0.4416370000000  0.4272320000000  0.4664580000000 1.0
C      1  0.4249940000000  0.4753300000000  0.5584750000000 1.0
C      1  0.4051440000000  0.5236120000000  0.4605390000000 1.0
C      1  0.4671800000000  0.5608710000000  0.5316660000000 1.0
C      1  0.4948550000000  0.5010580000000  0.4032480000000 1.0
C      1  0.4859630000000  0.4320450000000  0.5829110000000 1.0
C      1  0.5145680000000  0.5044120000000  0.3828950000000 1.0
C      1  0.4429640000000  0.5074920000000  0.4622350000000 1.0
C      1  0.5321270000000  0.5615270000000  0.4635080000000 1.0
C      1  0.5057050000000  0.5575100000000  0.5795510000000 1.0
C      1  0.4000980000000  0.4737330000000  0.5164730000000 1.0
C      1  0.4552880000000  0.5493660000000  0.4102810000000 1.0
C      1  0.5217280000000  0.5234860000000  0.4229470000000 1.0
C      1  0.5432380000000  0.5695450000000  0.5728190000000 1.0
C      1  0.4509540000000  0.4841520000000  0.4036970000000 1.0
C      1  0.4712220000000  0.4005660000000  0.4910530000000 1.0
C      1  0.4330280000000  0.5408390000000  0.5363650000000 1.0
C      1  0.4764250000000  0.4339780000000  0.5121460000000 1.0
C      1  0.4873700000000  0.4523610000000  0.4339590000000 1.0
C      1  0.4111160000000  0.4478400000000  0.5211000000000 1.0
C      1  0.5640890000000  0.5715810000000  0.4976890000000 1.0
C      1  0.5682810000000  0.5277410000000  0.5548550000000 1.0
C      1  0.5090720000000  0.4623120000000  0.5069200000000 1.0
C      1  0.4659870000000  0.5764050000000  0.4279190000000 1.0
C      1  0.5522070000000  0.5629500000000  0.5345090000000 1.0
C      1  0.4966550000000  0.4385770000000  0.4071930000000 1.0
C      1  0.4751600000000  0.5479420000000  0.4754300000000 1.0
C      1  0.4780390000000  0.4712230000000  0.4991160000000 1.0
C      1  0.5159390000000  0.5315770000000  0.4842420000000 1.0
C      1  0.5723780000000  0.4633090000000  0.5551610000000 1.0
C      1  0.4142060000000  0.5473510000000  0.4435690000000 1.0
C      1  0.4370520000000  0.4869440000000  0.5088080000000 1.0
C      1  0.5220100000000  0.5380020000000  0.6024800000000 1.0
C      1  0.5733630000000  0.4529570000000  0.4301340000000 1.0
C      1  0.3916650000000  0.5375050000000  0.5209200000000 1.0
C      1  0.5242200000000  0.4405630000000  0.4018970000000 1.0
C      1  0.4544800000000  0.5018620000000  0.5660140000000 1.0
C      1  0.4268700000000  0.4956390000000  0.5854050000000 1.0
C      1  0.5859580000000  0.5343700000000  0.4541330000000 1.0
C      1  0.5405570000000  0.4429260000000  0.5836230000000 1.0
C      1  0.5525940000000  0.4034500000000  0.4970970000000 1.0
C      1  0.4758090000000  0.4385270000000  0.5449000000000 1.0
C      1  0.3989860000000  0.5202450000000  0.4925440000000 1.0
C      1  0.5425180000000  0.5902070000000  0.5166580000000 1.0
C      1  0.4844370000000  0.5065490000000  0.5782400000000 1.0
C      1  0.6059120000000  0.4740970000000  0.5126150000000 1.0
C      1  0.5587690000000  0.5555160000000  0.4177300000000 1.0
C      1  0.4878590000000  0.6071830000000  0.4865340000000 1.0
C      1  0.5410860000000  0.4776010000000  0.4341070000000 1.0
C      1  0.4572530000000  0.5504080000000  0.5855600000000 1.0
C      1  0.4516340000000  0.5144800000000  0.4943820000000 1.0
C      1  0.4457780000000  0.4675970000000  0.5843290000000 1.0
C      1  0.5636170000000  0.5386780000000  0.5009610000000 1.0
C      1  0.4000610000000  0.5192420000000  0.5419360000000 1.0
C      1  0.4735300000000  0.4193150000000  0.4175050000000 1.0
C      1  0.5816580000000  0.4812920000000  0.4337420000000 1.0
C      1  0.5104110000000  0.4923020000000  0.4322420000000 1.0
C      1  0.4269810000000  0.5194450000000  0.5611940000000 1.0
C      1  0.5579330000000  0.4882740000000  0.4849850000000 1.0
C      1  0.4554330000000  0.4398630000000  0.5722220000000 1.0
C      1  0.5324750000000  0.5032410000000  0.5258050000000 1.0
C      1  0.4820590000000  0.4081850000000  0.4437480000000 1.0
C      1  0.5316060000000  0.5080760000000  0.6158100000000 1.0
C      1  0.4262390000000  0.5645090000000  0.4929740000000 1.0
C      1  0.5637740000000  0.5851400000000  0.4693060000000 1.0
C      1  0.4639500000000  0.5934840000000  0.5299720000000 1.0
C      1  0.4443580000000  0.5550300000000  0.5650990000000 1.0
C      1  0.6078080000000  0.4692700000000  0.4812930000000 1.0
C      1  0.5577950000000  0.5716390000000  0.4431410000000 1.0
C      1  0.4959650000000  0.5624440000000  0.4254480000000 1.0
C      1  0.5563600000000  0.5244490000000  0.4427800000000 1.0
C      1  0.4948510000000  0.4631000000000  0.5593350000000 1.0
C      1  0.5433520000000  0.4637620000000  0.5373240000000 1.0
C      1  0.5784520000000  0.5118320000000  0.4860790000000 1.0
C      1  0.5740130000000  0.4386460000000  0.5338470000000 1.0
C      1  0.4245070000000  0.4782990000000  0.4243950000000 1.0
C      1  0.5137860000000  0.5034140000000  0.5005830000000 1.0
C      1  0.5581250000000  0.5428320000000  0.4705410000000 1.0
C      1  0.5420200000000  0.5366570000000  0.5753860000000 1.0
C      1  0.5099910000000  0.4832190000000  0.6071960000000 1.0
C      1  0.5219110000000  0.4668560000000  0.5796270000000 1.0
C      1  0.4367240000000  0.4466720000000  0.5434510000000 1.0
C      1  0.5368640000000  0.4940220000000  0.5789240000000 1.0
C      1  0.5650450000000  0.4952070000000  0.5650790000000 1.0
C      1  0.4348670000000  0.4611860000000  0.4482090000000 1.0
C      1  0.4209370000000  0.4363690000000  0.4980580000000 1.0
C      1  0.5401600000000  0.5992160000000  0.4839040000000 1.0
C      1  0.5192860000000  0.4412770000000  0.5396900000000 1.0
C      1  0.5039990000000  0.3926210000000  0.4863040000000 1.0
C      1  0.5201330000000  0.5585870000000  0.5288300000000 1.0
C      1  0.4813820000000  0.5017480000000  0.5006220000000 1.0
C      1  0.4732330000000  0.4789440000000  0.5927090000000 1.0
C      1  0.5474160000000  0.4250380000000  0.5300650000000 1.0
C      1  0.5176490000000  0.5865680000000  0.4366790000000 1.0
C      1  0.4836310000000  0.5363680000000  0.5925340000000 1.0
C      1  0.4357340000000  0.5745030000000  0.5316800000000 1.0
C      1  0.5590600000000  0.4993260000000  0.6042950000000 1.0
C      1  0.4992500000000  0.5150420000000  0.6139790000000 1.0
C      1  0.4882640000000  0.5039960000000  0.5311350000000 1.0
C      1  0.5462380000000  0.4516070000000  0.4148390000000 1.0
C      1  0.5234140000000  0.4288220000000  0.4570200000000 1.0
C      1  0.4988520000000  0.5379940000000  0.5131090000000 1.0
C      1  0.4314140000000  0.5100970000000  0.4145170000000 1.0
C      1  0.4057680000000  0.5639570000000  0.5191420000000 1.0
C      1  0.5381120000000  0.5179310000000  0.3934810000000 1.0
C      1  0.4136470000000  0.4949400000000  0.4500370000000 1.0
C      1  0.5019630000000  0.4159290000000  0.5649430000000 1.0
C      1  0.5279280000000  0.5591800000000  0.4963130000000 1.0
C      1  0.5855290000000  0.4471990000000  0.5059360000000 1.0
C      1  0.5841070000000  0.4970640000000  0.6098660000000 1.0
C      1  0.5117150000000  0.4081510000000  0.5331790000000 1.0
C      1  0.5019370000000  0.4249270000000  0.4961010000000 1.0
C      1  0.4429070000000  0.4778320000000  0.4769080000000 1.0
C      1  0.5865230000000  0.4651730000000  0.4694980000000 1.0
C      1  0.4764700000000  0.5229800000000  0.4068670000000 1.0
C      1  0.4506460000000  0.4160660000000  0.5361020000000 1.0
C      1  0.4908790000000  0.6041640000000  0.5200620000000 1.0
C      1  0.4795160000000  0.4280030000000  0.4711820000000 1.0
C      1  0.4401690000000  0.5696390000000  0.4439640000000 1.0
C      1  0.4991770000000  0.5677800000000  0.4700640000000 1.0
C      1  0.5623800000000  0.4710270000000  0.5100580000000 1.0
C      1  0.5649320000000  0.4949780000000  0.5322010000000 1.0
C      1  0.4907380000000  0.4555670000000  0.6010370000000 1.0
C      1  0.4566880000000  0.4674960000000  0.5252720000000 1.0
C      1  0.4277320000000  0.5337960000000  0.5049590000000 1.0
C      1  0.5536340000000  0.4664060000000  0.4620280000000 1.0
C      1  0.5162500000000  0.5156680000000  0.5700600000000 1.0
C      1  0.5351280000000  0.4217880000000  0.5620460000000 1.0
C      1  0.5485000000000  0.5306080000000  0.5270770000000 1.0
C      1  0.4848660000000  0.5354640000000  0.4327560000000 1.0
C      1  0.5272840000000  0.5572150000000  0.4221070000000 1.0
C      1  0.5606060000000  0.5021220000000  0.4222020000000 1.0
C      1  0.5089800000000  0.4795680000000  0.5331030000000 1.0
C      1  0.3938020000000  0.4878450000000  0.4932460000000 1.0
C      1  0.5978550000000  0.5066030000000  0.5104780000000 1.0
C      1  0.5291330000000  0.4954610000000  0.4740380000000 1.0
C      1  0.5944890000000  0.5218570000000  0.5339240000000 1.0
C      1  0.4929730000000  0.5567590000000  0.5479290000000 1.0
C      1  0.4132520000000  0.5727310000000  0.4645780000000 1.0
C      1  0.4574140000000  0.4987950000000  0.4339260000000 1.0
C      1  0.4798570000000  0.5216750000000  0.4576230000000 1.0
C      1  0.4719140000000  0.4834140000000  0.5476230000000 1.0
C      1  0.5462490000000  0.4381540000000  0.4748180000000 1.0
C      1  0.5193650000000  0.5832940000000  0.5616570000000 1.0
C      1  0.4155640000000  0.4918840000000  0.5348610000000 1.0
C      1  0.4870530000000  0.5922360000000  0.4495140000000 1.0
C      1  0.4513240000000  0.4343940000000  0.4983420000000 1.0
C      1  0.5896910000000  0.5023010000000  0.4551500000000 1.0
C      1  0.5071470000000  0.5831250000000  0.4994450000000 1.0
C      1  0.5746580000000  0.4259280000000  0.4839360000000 1.0
C      1  0.4719920000000  0.4612890000000  0.4699850000000 1.0
C      1  0.5151590000000  0.6038990000000  0.4662300000000 1.0
END
