TITL C-2778435-5768-277 1.25464951864048e-05 125000 -743.504591878424 0 0 129 (C1) n - 1
REM
REM in /home/nfs/bkarasulu/CARBON/AIRSS/Generating-Clusters/REBO/Only-C1/SD-CG/HFTN-CG
REM
REM
REM
REM
REM
REM ./C.cell (11c1c37f851c82e70ff6c80c92926a4b)
REM
REM compiler GCC version 9.2.1 20190827 (Red Hat 9.2.1-1)
REM options -cpp -mtune=generic -march=x86-64 -g -O0 -fpre-include=/usr/include/finclude/math-vector-fortran.h
REM seed 1823704128 435069155 -160182372 -276468892 -446631676 1299479437 -912319435 -705543073 -1618793084 -654633730 902153011 -1192882786 -1444346052 -159635057 -278775577 189248378 819070276 1578066064 228848143 2106983956 2080304053 425978915 1036554709 603638084 -99302156 -703280717 -635821774 1941241270 1928497012 1896641835 -175379670 1255936100 -1350406644
REM
CELL 1.54180   50.00000   50.00000   50.00000   90.00000   90.00000   90.00000
LATT -1
SFAC C  
C      1  0.4098460000000  0.5206090000000  0.4944090000000 1.0
C      1  0.4990300000000  0.4803930000000  0.5127590000000 1.0
C      1  0.5853600000000  0.4854810000000  0.5122200000000 1.0
C      1  0.3977980000000  0.4931990000000  0.5008980000000 1.0
C      1  0.4486600000000  0.4932030000000  0.4694030000000 1.0
C      1  0.4469220000000  0.4697580000000  0.4225440000000 1.0
C      1  0.4454900000000  0.5546630000000  0.5809340000000 1.0
C      1  0.5683450000000  0.4753240000000  0.4394160000000 1.0
C      1  0.5519160000000  0.5439520000000  0.5329420000000 1.0
C      1  0.5396480000000  0.5751810000000  0.5388750000000 1.0
C      1  0.5285290000000  0.4993830000000  0.5997300000000 1.0
C      1  0.4620780000000  0.5714630000000  0.4673920000000 1.0
C      1  0.5003910000000  0.5128200000000  0.4109430000000 1.0
C      1  0.4098300000000  0.4957120000000  0.4416570000000 1.0
C      1  0.4183530000000  0.5312740000000  0.5259380000000 1.0
C      1  0.5466280000000  0.5746500000000  0.5081420000000 1.0
C      1  0.4960750000000  0.4797790000000  0.4070580000000 1.0
C      1  0.4689110000000  0.5118550000000  0.4819790000000 1.0
C      1  0.5252040000000  0.5662230000000  0.4919710000000 1.0
C      1  0.5543860000000  0.5050950000000  0.4168280000000 1.0
C      1  0.4947440000000  0.5573790000000  0.5042380000000 1.0
C      1  0.4504980000000  0.4404200000000  0.4661940000000 1.0
C      1  0.4699460000000  0.5879540000000  0.5138820000000 1.0
C      1  0.4378850000000  0.5453490000000  0.4506070000000 1.0
C      1  0.5481650000000  0.4327510000000  0.5292560000000 1.0
C      1  0.5564470000000  0.5344420000000  0.4330500000000 1.0
C      1  0.4575440000000  0.4228530000000  0.4921460000000 1.0
C      1  0.4535710000000  0.4950410000000  0.5320770000000 1.0
C      1  0.5262780000000  0.4474650000000  0.4993580000000 1.0
C      1  0.5004210000000  0.4722890000000  0.5723970000000 1.0
C      1  0.4115110000000  0.4508130000000  0.5198000000000 1.0
C      1  0.5080680000000  0.5177680000000  0.6019900000000 1.0
C      1  0.4758390000000  0.5827290000000  0.5444160000000 1.0
C      1  0.4944240000000  0.5908360000000  0.4958800000000 1.0
C      1  0.4105000000000  0.4665680000000  0.4964470000000 1.0
C      1  0.5078440000000  0.5486450000000  0.4256400000000 1.0
C      1  0.5528380000000  0.5586780000000  0.4508650000000 1.0
C      1  0.4750590000000  0.4740720000000  0.4331740000000 1.0
C      1  0.5801470000000  0.5363540000000  0.5153580000000 1.0
C      1  0.5414490000000  0.4938390000000  0.5063100000000 1.0
C      1  0.4866160000000  0.5809860000000  0.4378650000000 1.0
C      1  0.5056970000000  0.4047430000000  0.5238660000000 1.0
C      1  0.4776420000000  0.5306880000000  0.6037540000000 1.0
C      1  0.5537590000000  0.5091650000000  0.4811090000000 1.0
C      1  0.5273270000000  0.5066080000000  0.5510550000000 1.0
C      1  0.4890200000000  0.4604830000000  0.5357060000000 1.0
C      1  0.4851820000000  0.4960800000000  0.5728260000000 1.0
C      1  0.5307290000000  0.4910030000000  0.4680540000000 1.0
C      1  0.4790100000000  0.4588900000000  0.4618160000000 1.0
C      1  0.4855370000000  0.4756540000000  0.4856570000000 1.0
C      1  0.5187550000000  0.5443390000000  0.5247600000000 1.0
C      1  0.4590810000000  0.4353540000000  0.5395400000000 1.0
C      1  0.5937680000000  0.5083850000000  0.4703290000000 1.0
C      1  0.5723780000000  0.5646590000000  0.5012830000000 1.0
C      1  0.5762450000000  0.5082070000000  0.4431020000000 1.0
C      1  0.5141240000000  0.4241610000000  0.4344480000000 1.0
C      1  0.5618760000000  0.4661450000000  0.4705770000000 1.0
C      1  0.4603480000000  0.4186770000000  0.4428210000000 1.0
C      1  0.5084730000000  0.4499820000000  0.4520820000000 1.0
C      1  0.5494430000000  0.4895300000000  0.5369360000000 1.0
C      1  0.5284320000000  0.5588280000000  0.5665510000000 1.0
C      1  0.5070480000000  0.5741420000000  0.5376040000000 1.0
C      1  0.5298770000000  0.5277610000000  0.4124700000000 1.0
C      1  0.4559090000000  0.4502080000000  0.5788590000000 1.0
C      1  0.4904710000000  0.5869520000000  0.4669930000000 1.0
C      1  0.5643470000000  0.4358050000000  0.5010630000000 1.0
C      1  0.5192840000000  0.4783740000000  0.4410370000000 1.0
C      1  0.5734490000000  0.4430810000000  0.4497350000000 1.0
C      1  0.4631500000000  0.5395130000000  0.4708440000000 1.0
C      1  0.3963640000000  0.5053740000000  0.5284350000000 1.0
C      1  0.5899770000000  0.5096150000000  0.4980430000000 1.0
C      1  0.4874630000000  0.5195990000000  0.5527260000000 1.0
C      1  0.4726270000000  0.5103380000000  0.5132270000000 1.0
C      1  0.5650490000000  0.4783930000000  0.5717310000000 1.0
C      1  0.4972970000000  0.4446230000000  0.5078530000000 1.0
C      1  0.4326870000000  0.5096210000000  0.5445540000000 1.0
C      1  0.4502880000000  0.5758610000000  0.4964310000000 1.0
C      1  0.5010190000000  0.4129140000000  0.4702900000000 1.0
C      1  0.5423650000000  0.4635550000000  0.5196100000000 1.0
C      1  0.5311050000000  0.4583890000000  0.4732750000000 1.0
C      1  0.5309480000000  0.4799250000000  0.5714550000000 1.0
C      1  0.5277600000000  0.5598410000000  0.4650790000000 1.0
C      1  0.4464080000000  0.5251990000000  0.5930560000000 1.0
C      1  0.4012550000000  0.4503680000000  0.4705670000000 1.0
C      1  0.4660650000000  0.5560260000000  0.4347990000000 1.0
C      1  0.4957010000000  0.5678630000000  0.5683530000000 1.0
C      1  0.5756990000000  0.5612150000000  0.4710540000000 1.0
C      1  0.4961470000000  0.5377740000000  0.5772420000000 1.0
C      1  0.5762230000000  0.4636270000000  0.4983850000000 1.0
C      1  0.4579930000000  0.5601360000000  0.5574930000000 1.0
C      1  0.5307650000000  0.4190050000000  0.4640330000000 1.0
C      1  0.4956910000000  0.4998660000000  0.4411350000000 1.0
C      1  0.5060290000000  0.5464980000000  0.4529890000000 1.0
C      1  0.4234950000000  0.5382490000000  0.4753170000000 1.0
C      1  0.5620450000000  0.5267540000000  0.5789850000000 1.0
C      1  0.5193180000000  0.4631100000000  0.4041410000000 1.0
C      1  0.4631120000000  0.4965130000000  0.5899450000000 1.0
C      1  0.4365200000000  0.5013490000000  0.4447120000000 1.0
C      1  0.5636740000000  0.5329360000000  0.4790730000000 1.0
C      1  0.5237010000000  0.4150040000000  0.5030830000000 1.0
C      1  0.5583370000000  0.5009990000000  0.5913000000000 1.0
C      1  0.5803250000000  0.4881920000000  0.5444520000000 1.0
C      1  0.5356160000000  0.5316470000000  0.5672900000000 1.0
C      1  0.5565050000000  0.4266990000000  0.4726440000000 1.0
C      1  0.5931140000000  0.5164530000000  0.5397070000000 1.0
C      1  0.4858800000000  0.4225080000000  0.4925180000000 1.0
C      1  0.5258160000000  0.4216090000000  0.5424360000000 1.0
C      1  0.5773800000000  0.5396620000000  0.5550700000000 1.0
C      1  0.4838660000000  0.4494710000000  0.5763430000000 1.0
C      1  0.4858610000000  0.4096630000000  0.4438410000000 1.0
C      1  0.4288850000000  0.5043620000000  0.5723010000000 1.0
C      1  0.4385830000000  0.4688480000000  0.4807680000000 1.0
C      1  0.5183290000000  0.4356660000000  0.4062890000000 1.0
C      1  0.4424760000000  0.4751200000000  0.5831220000000 1.0
C      1  0.4568420000000  0.4673860000000  0.5359180000000 1.0
C      1  0.4504660000000  0.5107600000000  0.4212790000000 1.0
C      1  0.4966380000000  0.5188120000000  0.4650800000000 1.0
C      1  0.4459680000000  0.4215370000000  0.5179780000000 1.0
C      1  0.4733470000000  0.5285890000000  0.4215780000000 1.0
C      1  0.5059690000000  0.5121790000000  0.5246550000000 1.0
C      1  0.5152970000000  0.5098480000000  0.4912980000000 1.0
C      1  0.4182960000000  0.4369680000000  0.4576030000000 1.0
C      1  0.4361130000000  0.5488260000000  0.5043390000000 1.0
C      1  0.4411540000000  0.5025880000000  0.3968380000000 1.0
C      1  0.4921170000000  0.4280640000000  0.5438320000000 1.0
C      1  0.4650840000000  0.5372120000000  0.5416200000000 1.0
C      1  0.5923440000000  0.5625460000000  0.5610720000000 1.0
C      1  0.4682100000000  0.5430130000000  0.5103570000000 1.0
C      1  0.5428330000000  0.4765690000000  0.4195380000000 1.0
END
