TITL C-2778430-5657-72 -0.00333191332712504 125000 -312.279283453041 0 0 54 (C1) n - 1
REM
REM in /home/nfs/bkarasulu/CARBON/AIRSS/Generating-Clusters/REBO/Only-C1/SD-CG/HFTN-CG
REM
REM
REM
REM
REM
REM ./C.cell (11c1c37f851c82e70ff6c80c92926a4b)
REM
REM compiler GCC version 9.2.1 20190827 (Red Hat 9.2.1-1)
REM options -cpp -mtune=generic -march=x86-64 -g -O0 -fpre-include=/usr/include/finclude/math-vector-fortran.h
REM seed -1862941416 1613704752 1595882132 -1603815502 1690318793 1327751899 -1206216964 -210634944 -263992158 1318946310 1521732705 -798596077 -1525349695 1829690888 -630293563 1799001616 -1613493154 -285700231 1963010796 1796430756 -1722307882 -89214576 136756226 -1335119240 1203548932 82152272 1521134154 -147899798 -1387536407 2022123918 2015837821 -2059591162 -594964668
REM
CELL 1.54180   50.00000   50.00000   50.00000   90.00000   90.00000   90.00000
LATT -1
SFAC C  
C      1  0.4693540000000  0.4921640000000  0.4411960000000 1.0
C      1  0.4771810000000  0.4537410000000  0.4768840000000 1.0
C      1  0.5387330000000  0.4804260000000  0.5190490000000 1.0
C      1  0.5557950000000  0.4575730000000  0.5270730000000 1.0
C      1  0.4751380000000  0.5682240000000  0.4728280000000 1.0
C      1  0.4622460000000  0.5644590000000  0.4990300000000 1.0
C      1  0.5145680000000  0.5236230000000  0.4574180000000 1.0
C      1  0.4607140000000  0.4801390000000  0.5818500000000 1.0
C      1  0.4723740000000  0.4875900000000  0.5575150000000 1.0
C      1  0.5073310000000  0.4506440000000  0.5614270000000 1.0
C      1  0.5235140000000  0.4993520000000  0.5622570000000 1.0
C      1  0.4809580000000  0.5309500000000  0.5204250000000 1.0
C      1  0.4344030000000  0.5337590000000  0.4719270000000 1.0
C      1  0.4945230000000  0.5322540000000  0.5451850000000 1.0
C      1  0.5287190000000  0.4400140000000  0.4802420000000 1.0
C      1  0.5285220000000  0.5816530000000  0.5045300000000 1.0
C      1  0.4859110000000  0.4194510000000  0.4942030000000 1.0
C      1  0.5189340000000  0.5476070000000  0.5396130000000 1.0
C      1  0.4893390000000  0.4489930000000  0.4496980000000 1.0
C      1  0.4444010000000  0.5410920000000  0.4980510000000 1.0
C      1  0.4815350000000  0.5723260000000  0.5196160000000 1.0
C      1  0.4568290000000  0.4863720000000  0.4662590000000 1.0
C      1  0.4616820000000  0.5635080000000  0.4482410000000 1.0
C      1  0.4618520000000  0.4913600000000  0.4959010000000 1.0
C      1  0.4632610000000  0.4423240000000  0.5033290000000 1.0
C      1  0.4922090000000  0.4982110000000  0.5005150000000 1.0
C      1  0.5419340000000  0.4865670000000  0.4883800000000 1.0
C      1  0.4960690000000  0.4698750000000  0.5462580000000 1.0
C      1  0.5040050000000  0.4260430000000  0.4675600000000 1.0
C      1  0.5009420000000  0.5311020000000  0.4950470000000 1.0
C      1  0.5476840000000  0.4587930000000  0.4759380000000 1.0
C      1  0.4478830000000  0.5385490000000  0.4467570000000 1.0
C      1  0.5068250000000  0.4741480000000  0.5175120000000 1.0
C      1  0.5185950000000  0.4830720000000  0.4296550000000 1.0
C      1  0.5525680000000  0.4352200000000  0.5498790000000 1.0
C      1  0.5291990000000  0.4349360000000  0.5647190000000 1.0
C      1  0.5343830000000  0.5022120000000  0.4435150000000 1.0
C      1  0.5403630000000  0.5032670000000  0.5393970000000 1.0
C      1  0.5004050000000  0.5555570000000  0.4763610000000 1.0
C      1  0.5105220000000  0.5716210000000  0.5248530000000 1.0
C      1  0.5327870000000  0.5260560000000  0.4988950000000 1.0
C      1  0.4526540000000  0.4905590000000  0.5343970000000 1.0
C      1  0.5269580000000  0.5696350000000  0.4786290000000 1.0
C      1  0.5500750000000  0.5143520000000  0.4718720000000 1.0
C      1  0.4965200000000  0.5081570000000  0.5598510000000 1.0
C      1  0.5023570000000  0.4495710000000  0.4996340000000 1.0
C      1  0.5138430000000  0.4985050000000  0.4770740000000 1.0
C      1  0.4527770000000  0.4661770000000  0.5150610000000 1.0
C      1  0.4917170000000  0.4737810000000  0.4348770000000 1.0
C      1  0.4541800000000  0.5172190000000  0.5152190000000 1.0
C      1  0.5370520000000  0.5452490000000  0.4644580000000 1.0
C      1  0.4599920000000  0.5173320000000  0.4315570000000 1.0
C      1  0.5384270000000  0.5290030000000  0.5269180000000 1.0
C      1  0.5792580000000  0.4356330000000  0.5314640000000 1.0
END
