TITL C-2778430-5657-520 0.00256703440879333 125000 -331.728504300279 0 0 59 (C1) n - 1
REM
REM in /home/nfs/bkarasulu/CARBON/AIRSS/Generating-Clusters/REBO/Only-C1/SD-CG/HFTN-CG
REM
REM
REM
REM
REM
REM ./C.cell (11c1c37f851c82e70ff6c80c92926a4b)
REM
REM compiler GCC version 9.2.1 20190827 (Red Hat 9.2.1-1)
REM options -cpp -mtune=generic -march=x86-64 -g -O0 -fpre-include=/usr/include/finclude/math-vector-fortran.h
REM seed 929642813 -89824062 345055571 -211884438 1918685918 -1781424485 -474261891 148830772 -617299231 -1951657033 555298425 -1044249132 -1112704283 209343655 72481279 863187672 14467260 -529158835 -600510386 -2099584973 -593507427 92967174 -1748422308 -897134477 1674027398 974303564 1819270272 1872725348 -793240732 -1719672755 139990502 -1045749126 -159854784
REM
CELL 1.54180   50.00000   50.00000   50.00000   90.00000   90.00000   90.00000
LATT -1
SFAC C  
C      1  0.4688920000000  0.5132390000000  0.4415850000000 1.0
C      1  0.4638280000000  0.4693290000000  0.4818980000000 1.0
C      1  0.4935590000000  0.5266840000000  0.5132860000000 1.0
C      1  0.4786600000000  0.5743470000000  0.4911800000000 1.0
C      1  0.5246720000000  0.4639670000000  0.4450350000000 1.0
C      1  0.5016050000000  0.5312070000000  0.4805000000000 1.0
C      1  0.4957780000000  0.5730670000000  0.5179790000000 1.0
C      1  0.4820100000000  0.4155520000000  0.5312540000000 1.0
C      1  0.3981230000000  0.4701800000000  0.4994700000000 1.0
C      1  0.5479130000000  0.5545700000000  0.5228110000000 1.0
C      1  0.4806410000000  0.4596890000000  0.4470520000000 1.0
C      1  0.4817030000000  0.5538650000000  0.4718580000000 1.0
C      1  0.4721670000000  0.5108870000000  0.4119870000000 1.0
C      1  0.4971880000000  0.4855520000000  0.5150430000000 1.0
C      1  0.4767450000000  0.5453880000000  0.5611820000000 1.0
C      1  0.4796560000000  0.4972080000000  0.4907120000000 1.0
C      1  0.4675500000000  0.4396720000000  0.4682270000000 1.0
C      1  0.4571070000000  0.5379120000000  0.4606260000000 1.0
C      1  0.4696820000000  0.5732490000000  0.5482060000000 1.0
C      1  0.5138280000000  0.4920370000000  0.4414700000000 1.0
C      1  0.4621410000000  0.5655620000000  0.5183000000000 1.0
C      1  0.5498570000000  0.5188650000000  0.4551430000000 1.0
C      1  0.5340980000000  0.5437780000000  0.5502160000000 1.0
C      1  0.5319770000000  0.5058740000000  0.4849930000000 1.0
C      1  0.4500860000000  0.5378440000000  0.5140100000000 1.0
C      1  0.4748930000000  0.5232400000000  0.5416240000000 1.0
C      1  0.5170290000000  0.4909660000000  0.5669940000000 1.0
C      1  0.5290270000000  0.4776710000000  0.4754710000000 1.0
C      1  0.5329410000000  0.5101820000000  0.4328900000000 1.0
C      1  0.4202630000000  0.4856880000000  0.5049080000000 1.0
C      1  0.5699650000000  0.4980860000000  0.4646010000000 1.0
C      1  0.5517120000000  0.4589910000000  0.4920890000000 1.0
C      1  0.5039120000000  0.4447750000000  0.5631730000000 1.0
C      1  0.4956230000000  0.4384350000000  0.5369260000000 1.0
C      1  0.5530910000000  0.5356440000000  0.5031830000000 1.0
C      1  0.4929510000000  0.5050890000000  0.4603700000000 1.0
C      1  0.4262050000000  0.4974680000000  0.5298900000000 1.0
C      1  0.5222410000000  0.5651920000000  0.5707670000000 1.0
C      1  0.4970670000000  0.4664790000000  0.4733200000000 1.0
C      1  0.4408210000000  0.4916430000000  0.4838830000000 1.0
C      1  0.5225020000000  0.4358850000000  0.4494790000000 1.0
C      1  0.5670280000000  0.4878580000000  0.4903860000000 1.0
C      1  0.5730400000000  0.4372280000000  0.4922910000000 1.0
C      1  0.4858650000000  0.4201430000000  0.4773110000000 1.0
C      1  0.5190500000000  0.5662840000000  0.5286600000000 1.0
C      1  0.5047190000000  0.4558710000000  0.5159030000000 1.0
C      1  0.5638540000000  0.5094840000000  0.5088310000000 1.0
C      1  0.4565110000000  0.5216470000000  0.4896100000000 1.0
C      1  0.5270540000000  0.5154210000000  0.5464350000000 1.0
C      1  0.4946550000000  0.5703240000000  0.5693400000000 1.0
C      1  0.4393820000000  0.5089390000000  0.4564790000000 1.0
C      1  0.5348180000000  0.5374610000000  0.4767460000000 1.0
C      1  0.5217240000000  0.5079120000000  0.5136860000000 1.0
C      1  0.5909010000000  0.4190020000000  0.4924600000000 1.0
C      1  0.4442470000000  0.5178170000000  0.5358890000000 1.0
C      1  0.4961880000000  0.5008740000000  0.5433420000000 1.0
C      1  0.5134020000000  0.4279310000000  0.4758500000000 1.0
C      1  0.5229340000000  0.4447910000000  0.4970930000000 1.0
C      1  0.5149180000000  0.4660520000000  0.5760950000000 1.0
END
