TITL C-2778434-4341-1353 -0.00220341603128492 125000 -429.760436537007 0 0 75 (C1) n - 1
REM
REM in /home/nfs/bkarasulu/CARBON/AIRSS/Generating-Clusters/REBO/Only-C1/SD-CG/HFTN-CG
REM
REM
REM
REM
REM
REM ./C.cell (11c1c37f851c82e70ff6c80c92926a4b)
REM
REM compiler GCC version 9.2.1 20190827 (Red Hat 9.2.1-1)
REM options -cpp -mtune=generic -march=x86-64 -g -O0 -fpre-include=/usr/include/finclude/math-vector-fortran.h
REM seed 1870470777 792661207 1343374704 371645737 2097593088 1557524285 -653632948 -68071559 -1004900732 -1311563462 -1495851835 -311311672 1169437715 -921141416 1916064477 1867991034 1010352311 -674468608 871599345 1720361455 -2068161007 1910932352 -1068112475 -421370949 -1150459063 -1100519052 1860052386 -1973128128 163697133 -467787509 -1501149342 -986040684 1630820733
REM
CELL 1.54180   50.00000   50.00000   50.00000   90.00000   90.00000   90.00000
LATT -1
SFAC C  
C      1  0.5148040000000  0.4959600000000  0.5545560000000 1.0
C      1  0.4707130000000  0.4992450000000  0.4896680000000 1.0
C      1  0.5137980000000  0.5841570000000  0.4931260000000 1.0
C      1  0.5436350000000  0.4774490000000  0.4696480000000 1.0
C      1  0.5136220000000  0.5648680000000  0.5190850000000 1.0
C      1  0.5240690000000  0.4723420000000  0.5756030000000 1.0
C      1  0.4467650000000  0.5391620000000  0.4982800000000 1.0
C      1  0.5396150000000  0.5468050000000  0.4742390000000 1.0
C      1  0.4530140000000  0.5416470000000  0.5463400000000 1.0
C      1  0.4777640000000  0.4984900000000  0.5206980000000 1.0
C      1  0.4375860000000  0.4709830000000  0.5216200000000 1.0
C      1  0.5468610000000  0.4593090000000  0.5701770000000 1.0
C      1  0.5314750000000  0.4963860000000  0.5271800000000 1.0
C      1  0.4950800000000  0.5084180000000  0.4714460000000 1.0
C      1  0.5033640000000  0.5207300000000  0.4218340000000 1.0
C      1  0.4914470000000  0.4762840000000  0.5698660000000 1.0
C      1  0.4970520000000  0.5198590000000  0.5280500000000 1.0
C      1  0.5082000000000  0.5365730000000  0.5099330000000 1.0
C      1  0.4351970000000  0.4653240000000  0.4725770000000 1.0
C      1  0.5596060000000  0.5262320000000  0.4657370000000 1.0
C      1  0.5453310000000  0.5466410000000  0.5349170000000 1.0
C      1  0.4446380000000  0.5010210000000  0.4390860000000 1.0
C      1  0.5203940000000  0.5551550000000  0.4508470000000 1.0
C      1  0.5130140000000  0.5306410000000  0.4829250000000 1.0
C      1  0.5023930000000  0.5735250000000  0.4627550000000 1.0
C      1  0.5494830000000  0.5179230000000  0.4398440000000 1.0
C      1  0.4695340000000  0.5297970000000  0.5671470000000 1.0
C      1  0.5576690000000  0.4560970000000  0.5452160000000 1.0
C      1  0.4350680000000  0.5223270000000  0.5249310000000 1.0
C      1  0.4602710000000  0.4865260000000  0.5650680000000 1.0
C      1  0.4889570000000  0.4681410000000  0.5223120000000 1.0
C      1  0.4644760000000  0.4672240000000  0.4997080000000 1.0
C      1  0.5162940000000  0.4295260000000  0.4867810000000 1.0
C      1  0.5662570000000  0.5070370000000  0.4842070000000 1.0
C      1  0.4827950000000  0.5114800000000  0.4429300000000 1.0
C      1  0.5480680000000  0.4599130000000  0.5200480000000 1.0
C      1  0.4692120000000  0.4804610000000  0.4375820000000 1.0
C      1  0.4527280000000  0.4353230000000  0.5034260000000 1.0
C      1  0.4755200000000  0.4515530000000  0.5556260000000 1.0
C      1  0.5538770000000  0.4833120000000  0.5009370000000 1.0
C      1  0.5263460000000  0.5345080000000  0.4313040000000 1.0
C      1  0.4953850000000  0.5224150000000  0.5578020000000 1.0
C      1  0.5513830000000  0.5195090000000  0.5288310000000 1.0
C      1  0.5562680000000  0.5654700000000  0.5163720000000 1.0
C      1  0.5150420000000  0.4781530000000  0.5073240000000 1.0
C      1  0.5199640000000  0.4449420000000  0.5130260000000 1.0
C      1  0.5012380000000  0.4761230000000  0.4404840000000 1.0
C      1  0.4929570000000  0.4369990000000  0.5322640000000 1.0
C      1  0.4603580000000  0.5247750000000  0.5921900000000 1.0
C      1  0.4846630000000  0.4209070000000  0.4843010000000 1.0
C      1  0.5773100000000  0.5135680000000  0.5220670000000 1.0
C      1  0.4862730000000  0.4545420000000  0.4783310000000 1.0
C      1  0.5816360000000  0.4496180000000  0.4487060000000 1.0
C      1  0.5270430000000  0.5649070000000  0.5789200000000 1.0
C      1  0.4272650000000  0.4804710000000  0.4945800000000 1.0
C      1  0.5220170000000  0.5616330000000  0.5521710000000 1.0
C      1  0.4613940000000  0.4565630000000  0.4558400000000 1.0
C      1  0.5433440000000  0.5703600000000  0.4929690000000 1.0
C      1  0.4467800000000  0.4631700000000  0.5473370000000 1.0
C      1  0.5098280000000  0.4778290000000  0.4736150000000 1.0
C      1  0.5545060000000  0.4532630000000  0.4520360000000 1.0
C      1  0.4623140000000  0.5615000000000  0.5037190000000 1.0
C      1  0.4819970000000  0.5728830000000  0.4877110000000 1.0
C      1  0.5109830000000  0.4297780000000  0.4559150000000 1.0
C      1  0.4279850000000  0.5111900000000  0.4933250000000 1.0
C      1  0.4788390000000  0.4275860000000  0.4512000000000 1.0
C      1  0.4656200000000  0.5636730000000  0.5326620000000 1.0
C      1  0.5454250000000  0.4899240000000  0.4392230000000 1.0
C      1  0.4545410000000  0.5022760000000  0.5397460000000 1.0
C      1  0.5338120000000  0.4373340000000  0.4412230000000 1.0
C      1  0.4325060000000  0.5193720000000  0.4634270000000 1.0
C      1  0.5230560000000  0.4800680000000  0.4246290000000 1.0
C      1  0.4747030000000  0.4183920000000  0.5145410000000 1.0
C      1  0.4563000000000  0.5309840000000  0.4449500000000 1.0
C      1  0.4912720000000  0.5714710000000  0.5413020000000 1.0
END
