TITL C-2778433-5640-117 0.00243456610741494 125000 -773.388428558073 0 0 132 (C1) n - 1
REM
REM in /home/nfs/bkarasulu/CARBON/AIRSS/Generating-Clusters/REBO/Only-C1/SD-CG/HFTN-CG
REM
REM
REM
REM
REM
REM ./C.cell (11c1c37f851c82e70ff6c80c92926a4b)
REM
REM compiler GCC version 9.2.1 20190827 (Red Hat 9.2.1-1)
REM options -cpp -mtune=generic -march=x86-64 -g -O0 -fpre-include=/usr/include/finclude/math-vector-fortran.h
REM seed -1044656672 -1580682390 260444535 -320398630 -1355584593 381415496 163725755 1935000525 1165486482 1829020799 -674819960 -1281916256 -1888708100 -968385574 1758693645 605466146 -1708939140 -1171341992 -1795229208 397696298 -1234904705 -920504331 660231232 -68092824 -1995384113 -91614610 1741646333 410234826 762545394 -414201103 -326156926 -1542854835 -1611466148
REM
CELL 1.54180   50.00000   50.00000   50.00000   90.00000   90.00000   90.00000
LATT -1
SFAC C  
C      1  0.4773840000000  0.4968080000000  0.5339980000000 1.0
C      1  0.5732960000000  0.4975500000000  0.4339700000000 1.0
C      1  0.4459230000000  0.4266050000000  0.4525700000000 1.0
C      1  0.4416380000000  0.5753450000000  0.5278550000000 1.0
C      1  0.4789840000000  0.5297590000000  0.4742740000000 1.0
C      1  0.5221910000000  0.4130380000000  0.4719290000000 1.0
C      1  0.4995630000000  0.6030930000000  0.4719400000000 1.0
C      1  0.5324550000000  0.5269760000000  0.5389060000000 1.0
C      1  0.5267950000000  0.5914840000000  0.4884080000000 1.0
C      1  0.4334060000000  0.5361610000000  0.4797740000000 1.0
C      1  0.4646310000000  0.5739440000000  0.5487920000000 1.0
C      1  0.5845800000000  0.4954060000000  0.5358590000000 1.0
C      1  0.5038990000000  0.5485150000000  0.4800320000000 1.0
C      1  0.4568630000000  0.5253310000000  0.5529130000000 1.0
C      1  0.4438180000000  0.5454580000000  0.4309610000000 1.0
C      1  0.4947050000000  0.4160940000000  0.5519380000000 1.0
C      1  0.5105480000000  0.4788950000000  0.4742960000000 1.0
C      1  0.5229920000000  0.5546670000000  0.5240710000000 1.0
C      1  0.5839290000000  0.4470810000000  0.5064730000000 1.0
C      1  0.5196620000000  0.5384790000000  0.4013840000000 1.0
C      1  0.4813290000000  0.4953480000000  0.5872800000000 1.0
C      1  0.4929790000000  0.5410260000000  0.5215410000000 1.0
C      1  0.4710390000000  0.5361410000000  0.4445390000000 1.0
C      1  0.5450920000000  0.5576330000000  0.4473530000000 1.0
C      1  0.5929210000000  0.5280710000000  0.4874470000000 1.0
C      1  0.4679010000000  0.5385090000000  0.5026780000000 1.0
C      1  0.4431730000000  0.5300510000000  0.5830530000000 1.0
C      1  0.5790770000000  0.5589680000000  0.4912560000000 1.0
C      1  0.4692290000000  0.4623960000000  0.5523010000000 1.0
C      1  0.4529120000000  0.4981580000000  0.5819950000000 1.0
C      1  0.5023160000000  0.4909830000000  0.5037270000000 1.0
C      1  0.4475970000000  0.4049630000000  0.4743650000000 1.0
C      1  0.5217840000000  0.5139870000000  0.4589170000000 1.0
C      1  0.4220050000000  0.5331400000000  0.5077510000000 1.0
C      1  0.4693780000000  0.4250720000000  0.5425900000000 1.0
C      1  0.5060460000000  0.3976160000000  0.5328710000000 1.0
C      1  0.5013510000000  0.4650090000000  0.5505340000000 1.0
C      1  0.4375720000000  0.4203510000000  0.5030200000000 1.0
C      1  0.5356340000000  0.5505000000000  0.4164180000000 1.0
C      1  0.4704930000000  0.4205510000000  0.5068830000000 1.0
C      1  0.5645410000000  0.5659630000000  0.5169490000000 1.0
C      1  0.4613810000000  0.5586530000000  0.5794000000000 1.0
C      1  0.4972680000000  0.4932800000000  0.4504170000000 1.0
C      1  0.5568470000000  0.4874930000000  0.4684580000000 1.0
C      1  0.4374380000000  0.4673950000000  0.4866380000000 1.0
C      1  0.5320790000000  0.5122320000000  0.4875830000000 1.0
C      1  0.4282300000000  0.4772870000000  0.5139830000000 1.0
C      1  0.4884450000000  0.4878810000000  0.6346990000000 1.0
C      1  0.4236390000000  0.5525110000000  0.5295090000000 1.0
C      1  0.5405080000000  0.4204220000000  0.5194660000000 1.0
C      1  0.5221160000000  0.5126010000000  0.5641020000000 1.0
C      1  0.5621590000000  0.4576240000000  0.5617900000000 1.0
C      1  0.4894050000000  0.5245400000000  0.4082330000000 1.0
C      1  0.5671650000000  0.5382100000000  0.4589270000000 1.0
C      1  0.5686510000000  0.5000500000000  0.5854110000000 1.0
C      1  0.4464370000000  0.5067810000000  0.4716720000000 1.0
C      1  0.5137580000000  0.4395590000000  0.5646720000000 1.0
C      1  0.4495200000000  0.5843440000000  0.5024530000000 1.0
C      1  0.5206930000000  0.5427920000000  0.5737050000000 1.0
C      1  0.4275620000000  0.5049200000000  0.5164590000000 1.0
C      1  0.5591080000000  0.5483140000000  0.5397510000000 1.0
C      1  0.4679240000000  0.4674780000000  0.4820020000000 1.0
C      1  0.4587560000000  0.5728700000000  0.4538080000000 1.0
C      1  0.4937940000000  0.5796290000000  0.4262320000000 1.0
C      1  0.5198590000000  0.4464050000000  0.4971440000000 1.0
C      1  0.5471210000000  0.4178680000000  0.4608120000000 1.0
C      1  0.4044060000000  0.4584370000000  0.4663570000000 1.0
C      1  0.4451960000000  0.5002610000000  0.4218790000000 1.0
C      1  0.4744110000000  0.5937260000000  0.4881880000000 1.0
C      1  0.4573360000000  0.5258730000000  0.4085490000000 1.0
C      1  0.4986810000000  0.5755320000000  0.5001910000000 1.0
C      1  0.5532700000000  0.4390420000000  0.4939810000000 1.0
C      1  0.4268270000000  0.4385510000000  0.4778700000000 1.0
C      1  0.5111180000000  0.4504080000000  0.4389490000000 1.0
C      1  0.4449320000000  0.4772430000000  0.5631810000000 1.0
C      1  0.5300310000000  0.4536940000000  0.4654020000000 1.0
C      1  0.4532420000000  0.5605840000000  0.4812640000000 1.0
C      1  0.4767800000000  0.4976400000000  0.4844520000000 1.0
C      1  0.5141550000000  0.4677280000000  0.5211180000000 1.0
C      1  0.4561010000000  0.5171260000000  0.5224140000000 1.0
C      1  0.5071400000000  0.4627760000000  0.3980090000000 1.0
C      1  0.4213530000000  0.4854550000000  0.4643600000000 1.0
C      1  0.5626100000000  0.4481550000000  0.4624490000000 1.0
C      1  0.5488000000000  0.4957190000000  0.6084160000000 1.0
C      1  0.5814330000000  0.5230010000000  0.4409800000000 1.0
C      1  0.4766290000000  0.4472320000000  0.4588860000000 1.0
C      1  0.5392950000000  0.4810250000000  0.4927460000000 1.0
C      1  0.5200550000000  0.4044140000000  0.5009430000000 1.0
C      1  0.3794190000000  0.4537960000000  0.4603330000000 1.0
C      1  0.5878300000000  0.4950380000000  0.4805600000000 1.0
C      1  0.4427510000000  0.4345050000000  0.5319120000000 1.0
C      1  0.4324830000000  0.4612300000000  0.5371070000000 1.0
C      1  0.5386870000000  0.5600930000000  0.5603500000000 1.0
C      1  0.5626070000000  0.4429660000000  0.5322260000000 1.0
C      1  0.5327730000000  0.4592750000000  0.5790900000000 1.0
C      1  0.4887890000000  0.3966750000000  0.5066250000000 1.0
C      1  0.5798430000000  0.4847290000000  0.5612480000000 1.0
C      1  0.4378140000000  0.4559880000000  0.4123910000000 1.0
C      1  0.5309340000000  0.5526500000000  0.4953400000000 1.0
C      1  0.4265450000000  0.5391650000000  0.5548290000000 1.0
C      1  0.5145020000000  0.5175570000000  0.5129660000000 1.0
C      1  0.5403130000000  0.4940830000000  0.4397340000000 1.0
C      1  0.4798580000000  0.5447390000000  0.5475380000000 1.0
C      1  0.5247760000000  0.5831280000000  0.5416960000000 1.0
C      1  0.4220340000000  0.5050300000000  0.4401460000000 1.0
C      1  0.5393850000000  0.4735440000000  0.5423690000000 1.0
C      1  0.4853300000000  0.4626710000000  0.4230410000000 1.0
C      1  0.5413890000000  0.4908950000000  0.5694330000000 1.0
C      1  0.4743200000000  0.4686870000000  0.5214290000000 1.0
C      1  0.5878860000000  0.4791820000000  0.5072300000000 1.0
C      1  0.4936790000000  0.4953070000000  0.4167310000000 1.0
C      1  0.4962060000000  0.4965960000000  0.5609390000000 1.0
C      1  0.4978220000000  0.4873850000000  0.6090980000000 1.0
C      1  0.5008960000000  0.4272120000000  0.4599730000000 1.0
C      1  0.5444340000000  0.5871900000000  0.5156550000000 1.0
C      1  0.5342750000000  0.4204340000000  0.5488110000000 1.0
C      1  0.5588500000000  0.5249150000000  0.4883250000000 1.0
C      1  0.4860210000000  0.4473180000000  0.5012380000000 1.0
C      1  0.5222200000000  0.4779020000000  0.4232490000000 1.0
C      1  0.4953040000000  0.5493200000000  0.4309690000000 1.0
C      1  0.5169710000000  0.5434640000000  0.4510380000000 1.0
C      1  0.4576640000000  0.4489980000000  0.4306150000000 1.0
C      1  0.5833010000000  0.4726110000000  0.4549560000000 1.0
C      1  0.5253010000000  0.4791870000000  0.6038990000000 1.0
C      1  0.4934600000000  0.5794400000000  0.5326700000000 1.0
C      1  0.5508480000000  0.5698480000000  0.4770910000000 1.0
C      1  0.4240580000000  0.5325110000000  0.4486740000000 1.0
C      1  0.5554540000000  0.4727190000000  0.5153470000000 1.0
C      1  0.5775800000000  0.5168060000000  0.5157300000000 1.0
C      1  0.4679580000000  0.5038640000000  0.4460110000000 1.0
C      1  0.4979820000000  0.5998350000000  0.4439280000000 1.0
C      1  0.4941500000000  0.5516300000000  0.5757380000000 1.0
END
