TITL C-2778434-4341-60 -0.000467546112292246 125000 -1016.64603121915 0 0 174 (C1) n - 1
REM
REM in /home/nfs/bkarasulu/CARBON/AIRSS/Generating-Clusters/REBO/Only-C1/SD-CG/HFTN-CG
REM
REM
REM
REM
REM
REM ./C.cell (11c1c37f851c82e70ff6c80c92926a4b)
REM
REM compiler GCC version 9.2.1 20190827 (Red Hat 9.2.1-1)
REM options -cpp -mtune=generic -march=x86-64 -g -O0 -fpre-include=/usr/include/finclude/math-vector-fortran.h
REM seed -933367880 536086260 1739911092 -1312071223 -1142426594 -1790300034 -1729816490 -802448341 319343458 -798192391 714237602 -1405767077 180073494 2146955214 1028290619 -1063770636 -1333064535 -99564992 -1225032378 1633390835 1765438361 388242054 -800179394 -2021910325 1502913284 -64813215 -1856029530 -1449149571 1331692573 -581031611 400859029 1850231476 -1442507757
REM
CELL 1.54180   50.00000   50.00000   50.00000   90.00000   90.00000   90.00000
LATT -1
SFAC C  
C      1  0.5509080000000  0.5532270000000  0.4684940000000 1.0
C      1  0.5904880000000  0.5473760000000  0.5015830000000 1.0
C      1  0.4522720000000  0.5978600000000  0.5379330000000 1.0
C      1  0.5178940000000  0.4228160000000  0.5820490000000 1.0
C      1  0.4400690000000  0.5051250000000  0.4532370000000 1.0
C      1  0.5363150000000  0.4850120000000  0.4809120000000 1.0
C      1  0.4417660000000  0.4069090000000  0.4598030000000 1.0
C      1  0.3900080000000  0.4926980000000  0.4506780000000 1.0
C      1  0.4604960000000  0.4612610000000  0.4287350000000 1.0
C      1  0.5939770000000  0.4976860000000  0.5514660000000 1.0
C      1  0.5842460000000  0.5551970000000  0.5401030000000 1.0
C      1  0.5438540000000  0.5155670000000  0.4789870000000 1.0
C      1  0.4986250000000  0.4769760000000  0.5317260000000 1.0
C      1  0.4214420000000  0.5729540000000  0.5396670000000 1.0
C      1  0.5057640000000  0.4086440000000  0.4398590000000 1.0
C      1  0.4522340000000  0.4533900000000  0.5387310000000 1.0
C      1  0.5386780000000  0.5338930000000  0.5073130000000 1.0
C      1  0.5861090000000  0.4631980000000  0.4667340000000 1.0
C      1  0.3978240000000  0.5219200000000  0.5436640000000 1.0
C      1  0.4550230000000  0.3802450000000  0.5026760000000 1.0
C      1  0.4895490000000  0.5907520000000  0.5246250000000 1.0
C      1  0.4064230000000  0.4890270000000  0.5417300000000 1.0
C      1  0.5207290000000  0.4093990000000  0.5518110000000 1.0
C      1  0.4905240000000  0.5800680000000  0.4195480000000 1.0
C      1  0.5289640000000  0.4643880000000  0.5242530000000 1.0
C      1  0.5438480000000  0.4581190000000  0.4965280000000 1.0
C      1  0.4781750000000  0.5093980000000  0.6003220000000 1.0
C      1  0.4859560000000  0.5645470000000  0.5058920000000 1.0
C      1  0.5483330000000  0.5817920000000  0.4408440000000 1.0
C      1  0.5672070000000  0.4484230000000  0.4279680000000 1.0
C      1  0.5204900000000  0.5944450000000  0.5221600000000 1.0
C      1  0.5794790000000  0.4291250000000  0.4470850000000 1.0
C      1  0.4485360000000  0.4307680000000  0.4365290000000 1.0
C      1  0.4355450000000  0.4205710000000  0.4889990000000 1.0
C      1  0.5268070000000  0.4430090000000  0.5490320000000 1.0
C      1  0.4804800000000  0.5321980000000  0.4657480000000 1.0
C      1  0.4894520000000  0.5639710000000  0.5870330000000 1.0
C      1  0.4183470000000  0.4722020000000  0.5687940000000 1.0
C      1  0.4288140000000  0.5589390000000  0.5650020000000 1.0
C      1  0.5156040000000  0.4732250000000  0.5611470000000 1.0
C      1  0.5459530000000  0.4997770000000  0.5622700000000 1.0
C      1  0.5780630000000  0.4998050000000  0.5105450000000 1.0
C      1  0.4631680000000  0.5065620000000  0.4783570000000 1.0
C      1  0.4307310000000  0.5186690000000  0.4228440000000 1.0
C      1  0.4367830000000  0.4899520000000  0.5262280000000 1.0
C      1  0.5428070000000  0.4775810000000  0.4123180000000 1.0
C      1  0.4392710000000  0.4249520000000  0.5266940000000 1.0
C      1  0.5675580000000  0.4146790000000  0.5233260000000 1.0
C      1  0.4340430000000  0.4756690000000  0.5899250000000 1.0
C      1  0.5637960000000  0.4504420000000  0.5645510000000 1.0
C      1  0.5294990000000  0.6021850000000  0.4926250000000 1.0
C      1  0.3976170000000  0.5427830000000  0.4492930000000 1.0
C      1  0.4191170000000  0.4444110000000  0.5066060000000 1.0
C      1  0.5407520000000  0.4414250000000  0.5862210000000 1.0
C      1  0.4842990000000  0.4708410000000  0.5926580000000 1.0
C      1  0.5064050000000  0.4264400000000  0.4963150000000 1.0
C      1  0.4692240000000  0.6005690000000  0.5019970000000 1.0
C      1  0.4483090000000  0.5202140000000  0.6004100000000 1.0
C      1  0.4036500000000  0.5383410000000  0.5141470000000 1.0
C      1  0.4494100000000  0.5635070000000  0.4358390000000 1.0
C      1  0.5681430000000  0.5244330000000  0.5093110000000 1.0
C      1  0.5152630000000  0.5130740000000  0.4621980000000 1.0
C      1  0.5065800000000  0.5112590000000  0.4937000000000 1.0
C      1  0.5763630000000  0.4161970000000  0.4963010000000 1.0
C      1  0.4612310000000  0.5119140000000  0.4093530000000 1.0
C      1  0.5569410000000  0.4675930000000  0.4618900000000 1.0
C      1  0.4956690000000  0.4390560000000  0.5433600000000 1.0
C      1  0.5091020000000  0.5165950000000  0.6048560000000 1.0
C      1  0.5807530000000  0.5326940000000  0.4339530000000 1.0
C      1  0.5674650000000  0.4715030000000  0.5170120000000 1.0
C      1  0.4913540000000  0.4485270000000  0.5144270000000 1.0
C      1  0.5090100000000  0.5774220000000  0.4393010000000 1.0
C      1  0.4615640000000  0.4748780000000  0.5149190000000 1.0
C      1  0.4972090000000  0.5506980000000  0.5349750000000 1.0
C      1  0.5255390000000  0.4094880000000  0.5036560000000 1.0
C      1  0.5088100000000  0.5881390000000  0.4695070000000 1.0
C      1  0.5470100000000  0.5980810000000  0.4634750000000 1.0
C      1  0.4881130000000  0.4066970000000  0.5424920000000 1.0
C      1  0.5304230000000  0.5530200000000  0.4342050000000 1.0
C      1  0.6071860000000  0.5390700000000  0.5289540000000 1.0
C      1  0.4622100000000  0.5773590000000  0.4617820000000 1.0
C      1  0.5106860000000  0.4866880000000  0.5929150000000 1.0
C      1  0.4278010000000  0.5206890000000  0.5302080000000 1.0
C      1  0.4183440000000  0.4569540000000  0.5382780000000 1.0
C      1  0.5908560000000  0.4669130000000  0.5511000000000 1.0
C      1  0.4847390000000  0.4239870000000  0.5781690000000 1.0
C      1  0.5603850000000  0.4176470000000  0.4692720000000 1.0
C      1  0.5698160000000  0.5709110000000  0.5142350000000 1.0
C      1  0.5735280000000  0.5425720000000  0.5634740000000 1.0
C      1  0.4541670000000  0.4552930000000  0.4810060000000 1.0
C      1  0.4162600000000  0.5691890000000  0.5063770000000 1.0
C      1  0.4426540000000  0.4675930000000  0.4637870000000 1.0
C      1  0.4678550000000  0.5471540000000  0.3919120000000 1.0
C      1  0.4574780000000  0.5347680000000  0.5068590000000 1.0
C      1  0.5358960000000  0.4374030000000  0.4719160000000 1.0
C      1  0.4335960000000  0.5139120000000  0.5782170000000 1.0
C      1  0.5426960000000  0.5562040000000  0.6039720000000 1.0
C      1  0.4854620000000  0.4843350000000  0.4265340000000 1.0
C      1  0.4433760000000  0.3822790000000  0.4805740000000 1.0
C      1  0.3890670000000  0.5190980000000  0.4627780000000 1.0
C      1  0.5787940000000  0.4753370000000  0.4293690000000 1.0
C      1  0.4457610000000  0.4881890000000  0.4257050000000 1.0
C      1  0.5661830000000  0.5027490000000  0.4326750000000 1.0
C      1  0.6163370000000  0.4676270000000  0.5040720000000 1.0
C      1  0.5373050000000  0.4741330000000  0.4385300000000 1.0
C      1  0.4457680000000  0.5562790000000  0.5289190000000 1.0
C      1  0.5965580000000  0.4550280000000  0.5199900000000 1.0
C      1  0.5731170000000  0.5136160000000  0.5626500000000 1.0
C      1  0.5811640000000  0.4344570000000  0.5410480000000 1.0
C      1  0.5267640000000  0.5994360000000  0.5500250000000 1.0
C      1  0.5036930000000  0.4798470000000  0.4808360000000 1.0
C      1  0.5632020000000  0.5552040000000  0.5862930000000 1.0
C      1  0.4805570000000  0.4553400000000  0.5663600000000 1.0
C      1  0.4261560000000  0.4559090000000  0.4384920000000 1.0
C      1  0.5170590000000  0.5488420000000  0.5628270000000 1.0
C      1  0.4652060000000  0.4039930000000  0.5194600000000 1.0
C      1  0.5365150000000  0.5676320000000  0.5114850000000 1.0
C      1  0.5298390000000  0.5641070000000  0.4813780000000 1.0
C      1  0.5039940000000  0.4480550000000  0.4332670000000 1.0
C      1  0.4117920000000  0.4937150000000  0.4961130000000 1.0
C      1  0.5172680000000  0.5180430000000  0.5242720000000 1.0
C      1  0.5495910000000  0.5306280000000  0.4209280000000 1.0
C      1  0.5375920000000  0.5242910000000  0.3935520000000 1.0
C      1  0.5520670000000  0.4736700000000  0.5454770000000 1.0
C      1  0.4918910000000  0.5127550000000  0.5693580000000 1.0
C      1  0.4767310000000  0.5848030000000  0.5554530000000 1.0
C      1  0.5613480000000  0.5925660000000  0.4925540000000 1.0
C      1  0.5398150000000  0.4749900000000  0.5847680000000 1.0
C      1  0.5101610000000  0.4845100000000  0.4482540000000 1.0
C      1  0.4863290000000  0.4225330000000  0.4718190000000 1.0
C      1  0.6099710000000  0.5110240000000  0.5318320000000 1.0
C      1  0.4791690000000  0.5974580000000  0.4757650000000 1.0
C      1  0.4405310000000  0.5927630000000  0.5111260000000 1.0
C      1  0.4519370000000  0.5314300000000  0.5474370000000 1.0
C      1  0.6045170000000  0.4750490000000  0.4456970000000 1.0
C      1  0.4928780000000  0.5172130000000  0.4194620000000 1.0
C      1  0.6101870000000  0.4978050000000  0.5024910000000 1.0
C      1  0.5216250000000  0.5166860000000  0.5542020000000 1.0
C      1  0.4725750000000  0.4103740000000  0.4469200000000 1.0
C      1  0.4499970000000  0.4984630000000  0.5547750000000 1.0
C      1  0.5150950000000  0.5445500000000  0.5960140000000 1.0
C      1  0.4032310000000  0.4680740000000  0.4581070000000 1.0
C      1  0.4793960000000  0.5168900000000  0.3820650000000 1.0
C      1  0.4789960000000  0.5383340000000  0.5585870000000 1.0
C      1  0.4250130000000  0.5542990000000  0.4573150000000 1.0
C      1  0.5947130000000  0.4354060000000  0.4771600000000 1.0
C      1  0.4584590000000  0.4817280000000  0.6023590000000 1.0
C      1  0.5407130000000  0.4380360000000  0.4210450000000 1.0
C      1  0.4587930000000  0.5616950000000  0.5726290000000 1.0
C      1  0.4319410000000  0.5480870000000  0.4877420000000 1.0
C      1  0.4514980000000  0.5348130000000  0.4527780000000 1.0
C      1  0.4763850000000  0.4852310000000  0.4952580000000 1.0
C      1  0.5055420000000  0.4658480000000  0.3859560000000 1.0
C      1  0.5164860000000  0.4483900000000  0.4054410000000 1.0
C      1  0.5038970000000  0.5337490000000  0.4428990000000 1.0
C      1  0.5407690000000  0.4074620000000  0.5272840000000 1.0
C      1  0.5311030000000  0.4201080000000  0.4423970000000 1.0
C      1  0.4352240000000  0.5150130000000  0.4915600000000 1.0
C      1  0.5966240000000  0.5206160000000  0.4818890000000 1.0
C      1  0.5684300000000  0.5585120000000  0.4450270000000 1.0
C      1  0.4605120000000  0.4236500000000  0.5537580000000 1.0
C      1  0.4668910000000  0.4308570000000  0.4984770000000 1.0
C      1  0.3955390000000  0.5188320000000  0.4906830000000 1.0
C      1  0.4896710000000  0.4867090000000  0.3941320000000 1.0
C      1  0.4673110000000  0.5654930000000  0.4121820000000 1.0
C      1  0.5109680000000  0.5201600000000  0.3919670000000 1.0
C      1  0.4853060000000  0.5258810000000  0.5144780000000 1.0
C      1  0.5056080000000  0.4444110000000  0.4606270000000 1.0
C      1  0.4767370000000  0.5580380000000  0.4807400000000 1.0
C      1  0.5082610000000  0.5815870000000  0.5662280000000 1.0
C      1  0.4165220000000  0.5335350000000  0.5675430000000 1.0
C      1  0.4783720000000  0.4869670000000  0.5565840000000 1.0
C      1  0.5720330000000  0.5169340000000  0.4632250000000 1.0
C      1  0.4097030000000  0.4671470000000  0.4864500000000 1.0
END
