TITL C-2778433-5640-1346 0.00206331884198384 125000 -267.775685026988 0 0 49 (C1) n - 1
REM
REM in /home/nfs/bkarasulu/CARBON/AIRSS/Generating-Clusters/REBO/Only-C1/SD-CG/HFTN-CG
REM
REM
REM
REM
REM
REM ./C.cell (11c1c37f851c82e70ff6c80c92926a4b)
REM
REM compiler GCC version 9.2.1 20190827 (Red Hat 9.2.1-1)
REM options -cpp -mtune=generic -march=x86-64 -g -O0 -fpre-include=/usr/include/finclude/math-vector-fortran.h
REM seed 594920060 218781264 -703677076 1222650586 -1819317565 566708776 -1785788593 87458213 492750483 545525392 77816914 -569590247 -407666303 -1920126496 -1020447150 -251294596 -610323948 1426948187 510766964 -2138988712 -809278060 -272285491 -1803039583 1696662206 671435577 -438529219 1727647582 -1844525959 2026993204 412999125 1778278104 110419702 1274986064
REM
CELL 1.54180   50.00000   50.00000   50.00000   90.00000   90.00000   90.00000
LATT -1
SFAC C  
C      1  0.4706380000000  0.5395950000000  0.5382070000000 1.0
C      1  0.4854240000000  0.5723660000000  0.4520870000000 1.0
C      1  0.5426000000000  0.4456090000000  0.4774020000000 1.0
C      1  0.5473070000000  0.5480920000000  0.4743470000000 1.0
C      1  0.5691660000000  0.4400460000000  0.4819480000000 1.0
C      1  0.5650320000000  0.5036820000000  0.4599910000000 1.0
C      1  0.4763190000000  0.4365750000000  0.4476770000000 1.0
C      1  0.4812740000000  0.5158260000000  0.5513200000000 1.0
C      1  0.4756970000000  0.4859240000000  0.5011360000000 1.0
C      1  0.4788340000000  0.4147880000000  0.5165300000000 1.0
C      1  0.5241870000000  0.4309810000000  0.4631670000000 1.0
C      1  0.5249070000000  0.4921810000000  0.5450250000000 1.0
C      1  0.4681370000000  0.4932150000000  0.5609500000000 1.0
C      1  0.4597720000000  0.5541410000000  0.4869840000000 1.0
C      1  0.4809260000000  0.5738770000000  0.4809950000000 1.0
C      1  0.5334820000000  0.4939960000000  0.4660160000000 1.0
C      1  0.4985950000000  0.4261150000000  0.5493980000000 1.0
C      1  0.5112340000000  0.5169520000000  0.5513210000000 1.0
C      1  0.4613190000000  0.4496060000000  0.5254950000000 1.0
C      1  0.4477200000000  0.4824500000000  0.5131930000000 1.0
C      1  0.4545800000000  0.5352960000000  0.5127390000000 1.0
C      1  0.5363200000000  0.5135260000000  0.5135730000000 1.0
C      1  0.4893270000000  0.5243560000000  0.4744470000000 1.0
C      1  0.5342870000000  0.5684950000000  0.4975570000000 1.0
C      1  0.4690010000000  0.4662340000000  0.5610090000000 1.0
C      1  0.4879030000000  0.4503480000000  0.5405330000000 1.0
C      1  0.4870810000000  0.4328670000000  0.4999040000000 1.0
C      1  0.5183910000000  0.5449060000000  0.5461350000000 1.0
C      1  0.4704910000000  0.3965010000000  0.5333470000000 1.0
C      1  0.4972360000000  0.4638540000000  0.4911740000000 1.0
C      1  0.5293720000000  0.4710200000000  0.4887150000000 1.0
C      1  0.4684790000000  0.5153750000000  0.4900350000000 1.0
C      1  0.4341340000000  0.5121600000000  0.5159470000000 1.0
C      1  0.4768040000000  0.5460360000000  0.4418120000000 1.0
C      1  0.5060960000000  0.4977830000000  0.5102910000000 1.0
C      1  0.5215380000000  0.5172880000000  0.4434990000000 1.0
C      1  0.5414500000000  0.4813240000000  0.5170760000000 1.0
C      1  0.5122980000000  0.5115460000000  0.4818680000000 1.0
C      1  0.5439320000000  0.5372170000000  0.5037700000000 1.0
C      1  0.5903190000000  0.4945250000000  0.4625420000000 1.0
C      1  0.5029930000000  0.5795710000000  0.4964530000000 1.0
C      1  0.4903780000000  0.5596800000000  0.5405280000000 1.0
C      1  0.4157360000000  0.4868300000000  0.5198910000000 1.0
C      1  0.4943390000000  0.4387300000000  0.4683610000000 1.0
C      1  0.4551020000000  0.5402710000000  0.4612760000000 1.0
C      1  0.4973220000000  0.5276540000000  0.4353970000000 1.0
C      1  0.5168040000000  0.5720270000000  0.5256350000000 1.0
C      1  0.5074430000000  0.4697050000000  0.5294240000000 1.0
C      1  0.5482750000000  0.5288530000000  0.4538730000000 1.0
END
