TITL C-2778427-5640-981 -0.00145596717618013 125000 -804.931097622217 0 0 142 (C1) n - 1
REM
REM in /home/nfs/bkarasulu/CARBON/AIRSS/Generating-Clusters/REBO/Only-C1/SD-CG/HFTN-CG
REM
REM
REM
REM
REM
REM ./C.cell (11c1c37f851c82e70ff6c80c92926a4b)
REM
REM compiler GCC version 9.2.1 20190827 (Red Hat 9.2.1-1)
REM options -cpp -mtune=generic -march=x86-64 -g -O0 -fpre-include=/usr/include/finclude/math-vector-fortran.h
REM seed -200026259 1722971663 -672724173 -1927687763 499864979 875368699 1171723976 218021831 -335730608 278316753 -20978769 -1156433666 392702198 1812528572 -148303708 405372473 1629997329 681047775 -1612900045 1696864153 741781471 78029798 -177801032 -1756568250 -1464630201 424076236 -1395125915 1540348611 -1703673953 126368566 -965522913 -388930847 290009904
REM
CELL 1.54180   50.00000   50.00000   50.00000   90.00000   90.00000   90.00000
LATT -1
SFAC C  
C      1  0.4236500000000  0.4599810000000  0.5214300000000 1.0
C      1  0.5284690000000  0.4008330000000  0.5445560000000 1.0
C      1  0.5005670000000  0.6061910000000  0.4602180000000 1.0
C      1  0.5767760000000  0.5594710000000  0.5056620000000 1.0
C      1  0.5588440000000  0.5813980000000  0.5110830000000 1.0
C      1  0.5323800000000  0.5197250000000  0.5957100000000 1.0
C      1  0.5826010000000  0.5178260000000  0.4712120000000 1.0
C      1  0.4850220000000  0.5337800000000  0.5543830000000 1.0
C      1  0.5933880000000  0.5365350000000  0.5191480000000 1.0
C      1  0.5290800000000  0.4891300000000  0.4186830000000 1.0
C      1  0.5601570000000  0.5630660000000  0.5557630000000 1.0
C      1  0.4481870000000  0.4210130000000  0.4813440000000 1.0
C      1  0.4084510000000  0.5229870000000  0.5248600000000 1.0
C      1  0.5037030000000  0.5396040000000  0.4658570000000 1.0
C      1  0.4841750000000  0.5076760000000  0.6020400000000 1.0
C      1  0.5161320000000  0.5642810000000  0.4459530000000 1.0
C      1  0.4073700000000  0.5570420000000  0.4834840000000 1.0
C      1  0.5310750000000  0.4552340000000  0.4169170000000 1.0
C      1  0.4997670000000  0.4695660000000  0.4372680000000 1.0
C      1  0.4478500000000  0.4795060000000  0.4612400000000 1.0
C      1  0.4137310000000  0.5060080000000  0.4880670000000 1.0
C      1  0.4689390000000  0.5956180000000  0.5363010000000 1.0
C      1  0.5779070000000  0.4289810000000  0.5188890000000 1.0
C      1  0.4520530000000  0.5051120000000  0.5543970000000 1.0
C      1  0.4251340000000  0.4454630000000  0.5472750000000 1.0
C      1  0.4199480000000  0.5165110000000  0.5563760000000 1.0
C      1  0.5619730000000  0.5302560000000  0.4952180000000 1.0
C      1  0.5100570000000  0.3983560000000  0.4970110000000 1.0
C      1  0.4440480000000  0.5620700000000  0.4325510000000 1.0
C      1  0.5495730000000  0.5706150000000  0.4001340000000 1.0
C      1  0.5088410000000  0.5094390000000  0.5300470000000 1.0
C      1  0.5956270000000  0.4903590000000  0.4836210000000 1.0
C      1  0.5147960000000  0.5219500000000  0.4994970000000 1.0
C      1  0.4700690000000  0.4631810000000  0.4761740000000 1.0
C      1  0.5387160000000  0.5860630000000  0.4915090000000 1.0
C      1  0.4979580000000  0.5495910000000  0.5810930000000 1.0
C      1  0.5339280000000  0.4915260000000  0.5287860000000 1.0
C      1  0.5653110000000  0.4045800000000  0.5311940000000 1.0
C      1  0.5706980000000  0.5123350000000  0.5546640000000 1.0
C      1  0.4533530000000  0.5660040000000  0.5397090000000 1.0
C      1  0.4965270000000  0.5618230000000  0.4177180000000 1.0
C      1  0.5236470000000  0.4247090000000  0.4541730000000 1.0
C      1  0.5216040000000  0.4593230000000  0.4552660000000 1.0
C      1  0.4491810000000  0.4775820000000  0.4272170000000 1.0
C      1  0.5415830000000  0.5401880000000  0.5729020000000 1.0
C      1  0.5373900000000  0.5379770000000  0.5174980000000 1.0
C      1  0.4922760000000  0.5077430000000  0.5711480000000 1.0
C      1  0.4777070000000  0.5890020000000  0.4625180000000 1.0
C      1  0.4839000000000  0.4132570000000  0.5107170000000 1.0
C      1  0.4851250000000  0.5385120000000  0.5012290000000 1.0
C      1  0.4384250000000  0.5355630000000  0.4456310000000 1.0
C      1  0.5524250000000  0.5858420000000  0.5392630000000 1.0
C      1  0.4687950000000  0.4211680000000  0.5495320000000 1.0
C      1  0.4679450000000  0.4698550000000  0.5448220000000 1.0
C      1  0.4050080000000  0.4918570000000  0.5390880000000 1.0
C      1  0.4709850000000  0.4929200000000  0.5027930000000 1.0
C      1  0.5174940000000  0.5315210000000  0.5513210000000 1.0
C      1  0.4475610000000  0.4773770000000  0.5206500000000 1.0
C      1  0.5294460000000  0.5066900000000  0.4727540000000 1.0
C      1  0.4816250000000  0.3992290000000  0.4551820000000 1.0
C      1  0.4907610000000  0.5248040000000  0.4312640000000 1.0
C      1  0.5521520000000  0.4500860000000  0.4431430000000 1.0
C      1  0.4790680000000  0.4996680000000  0.5343970000000 1.0
C      1  0.5423020000000  0.5451890000000  0.4733650000000 1.0
C      1  0.5037180000000  0.4360950000000  0.5746880000000 1.0
C      1  0.5045420000000  0.4603760000000  0.5244730000000 1.0
C      1  0.4390880000000  0.4208330000000  0.5442920000000 1.0
C      1  0.5498020000000  0.4919580000000  0.5563020000000 1.0
C      1  0.5372310000000  0.3979990000000  0.5133360000000 1.0
C      1  0.4668310000000  0.4416790000000  0.5019090000000 1.0
C      1  0.4823430000000  0.4412390000000  0.4327010000000 1.0
C      1  0.5261130000000  0.4483670000000  0.4932090000000 1.0
C      1  0.4550740000000  0.5789590000000  0.4853550000000 1.0
C      1  0.4933430000000  0.6047380000000  0.5414150000000 1.0
C      1  0.4410390000000  0.5307890000000  0.5258400000000 1.0
C      1  0.5125900000000  0.4332060000000  0.4266400000000 1.0
C      1  0.4427200000000  0.5108620000000  0.4690200000000 1.0
C      1  0.5355820000000  0.4865840000000  0.5938200000000 1.0
C      1  0.4713080000000  0.5743660000000  0.4355060000000 1.0
C      1  0.4406800000000  0.5061110000000  0.5083690000000 1.0
C      1  0.4753840000000  0.4449730000000  0.5891620000000 1.0
C      1  0.5288030000000  0.5911200000000  0.4605560000000 1.0
C      1  0.5427140000000  0.5344460000000  0.4472960000000 1.0
C      1  0.4820960000000  0.4424890000000  0.5398160000000 1.0
C      1  0.5702720000000  0.4572120000000  0.5272910000000 1.0
C      1  0.4218120000000  0.4642030000000  0.4680300000000 1.0
C      1  0.5020840000000  0.4300830000000  0.4874070000000 1.0
C      1  0.5912610000000  0.5092480000000  0.5324230000000 1.0
C      1  0.4355160000000  0.5577290000000  0.4717260000000 1.0
C      1  0.4623090000000  0.5374460000000  0.4772830000000 1.0
C      1  0.4764840000000  0.4311340000000  0.4646490000000 1.0
C      1  0.4220780000000  0.4329120000000  0.4739470000000 1.0
C      1  0.5225540000000  0.5599270000000  0.5349500000000 1.0
C      1  0.4980530000000  0.4829150000000  0.4055440000000 1.0
C      1  0.5326670000000  0.4078120000000  0.4749310000000 1.0
C      1  0.5165640000000  0.4117210000000  0.5629440000000 1.0
C      1  0.5290600000000  0.5670300000000  0.4150400000000 1.0
C      1  0.5716930000000  0.4727900000000  0.4435830000000 1.0
C      1  0.5642700000000  0.5382230000000  0.5371170000000 1.0
C      1  0.5609680000000  0.4971690000000  0.4273250000000 1.0
C      1  0.4121100000000  0.4531460000000  0.4968240000000 1.0
C      1  0.5210230000000  0.5672660000000  0.5686130000000 1.0
C      1  0.5179570000000  0.5621590000000  0.4858240000000 1.0
C      1  0.4535270000000  0.5102340000000  0.4308330000000 1.0
C      1  0.5588040000000  0.4165460000000  0.4939160000000 1.0
C      1  0.4221680000000  0.4965790000000  0.4358730000000 1.0
C      1  0.4802100000000  0.4773400000000  0.5991550000000 1.0
C      1  0.5865540000000  0.4838680000000  0.5138490000000 1.0
C      1  0.4717340000000  0.5405220000000  0.5286970000000 1.0
C      1  0.4914650000000  0.5083340000000  0.3876670000000 1.0
C      1  0.4477580000000  0.5867690000000  0.5135560000000 1.0
C      1  0.4859130000000  0.5681360000000  0.4870480000000 1.0
C      1  0.5206230000000  0.5921660000000  0.5455770000000 1.0
C      1  0.5677570000000  0.5222220000000  0.4408080000000 1.0
C      1  0.5651600000000  0.4637560000000  0.5583880000000 1.0
C      1  0.4306750000000  0.4780630000000  0.5566910000000 1.0
C      1  0.5593130000000  0.4701120000000  0.4885560000000 1.0
C      1  0.5051910000000  0.5299050000000  0.6015970000000 1.0
C      1  0.4504500000000  0.4144450000000  0.5147360000000 1.0
C      1  0.4816810000000  0.4955560000000  0.4434530000000 1.0
C      1  0.5203290000000  0.4779060000000  0.4798200000000 1.0
C      1  0.5591850000000  0.4942130000000  0.4676580000000 1.0
C      1  0.5195630000000  0.5131620000000  0.4406340000000 1.0
C      1  0.5961560000000  0.4708260000000  0.4636920000000 1.0
C      1  0.5565750000000  0.4985990000000  0.5071760000000 1.0
C      1  0.4040890000000  0.4980850000000  0.4564230000000 1.0
C      1  0.5528500000000  0.4422450000000  0.4749550000000 1.0
C      1  0.3993260000000  0.5345330000000  0.4968490000000 1.0
C      1  0.5111550000000  0.4633360000000  0.5566900000000 1.0
C      1  0.4767790000000  0.5461330000000  0.4490950000000 1.0
C      1  0.5611880000000  0.4695710000000  0.5873150000000 1.0
C      1  0.5488150000000  0.6037320000000  0.4451080000000 1.0
C      1  0.4900940000000  0.5325900000000  0.4015430000000 1.0
C      1  0.4905390000000  0.5110940000000  0.4686520000000 1.0
C      1  0.5093640000000  0.4650370000000  0.5916660000000 1.0
C      1  0.4578000000000  0.4700190000000  0.5748290000000 1.0
C      1  0.3970880000000  0.4876030000000  0.5101440000000 1.0
C      1  0.5180190000000  0.4934500000000  0.5654350000000 1.0
C      1  0.4948100000000  0.4729080000000  0.4973810000000 1.0
C      1  0.5381110000000  0.4598570000000  0.5215040000000 1.0
C      1  0.4705990000000  0.4637780000000  0.4122670000000 1.0
C      1  0.4456100000000  0.5387090000000  0.5586880000000 1.0
END
