TITL C-2778436-5916-366 -0.00356948285938145 125000 -537.384704087802 0 0 91 (C1) n - 1
REM
REM in /home/nfs/bkarasulu/CARBON/AIRSS/Generating-Clusters/REBO/Only-C1/SD-CG/HFTN-CG
REM
REM
REM
REM
REM
REM ./C.cell (11c1c37f851c82e70ff6c80c92926a4b)
REM
REM compiler GCC version 9.2.1 20190827 (Red Hat 9.2.1-1)
REM options -cpp -mtune=generic -march=x86-64 -g -O0 -fpre-include=/usr/include/finclude/math-vector-fortran.h
REM seed -167147863 -2038581490 378402592 1786451045 -1951333515 658312350 -1675294669 -1938231408 1960487272 1883029012 777022339 -1555180988 1242014687 1942169942 430222611 -1868258823 -764356401 -1369591272 -1754510368 -959715168 -1991949000 -1075138643 -1736231680 1611894900 1371277164 306247129 1557959662 -1437495698 354931018 -671374162 283030499 983918436 -1925117059
REM
CELL 1.54180   50.00000   50.00000   50.00000   90.00000   90.00000   90.00000
LATT -1
SFAC C  
C      1  0.4802340000000  0.4282170000000  0.5280550000000 1.0
C      1  0.5493710000000  0.5243770000000  0.5557350000000 1.0
C      1  0.4881100000000  0.4261010000000  0.4470400000000 1.0
C      1  0.4756420000000  0.5756940000000  0.4570380000000 1.0
C      1  0.4357260000000  0.4406930000000  0.4948960000000 1.0
C      1  0.4836300000000  0.5122330000000  0.4968130000000 1.0
C      1  0.5739500000000  0.4853540000000  0.5413430000000 1.0
C      1  0.5047560000000  0.4250660000000  0.4730230000000 1.0
C      1  0.4261340000000  0.4955240000000  0.4807330000000 1.0
C      1  0.4946840000000  0.5685880000000  0.5458290000000 1.0
C      1  0.5082820000000  0.5306190000000  0.4572610000000 1.0
C      1  0.5568410000000  0.4590060000000  0.4584860000000 1.0
C      1  0.5056350000000  0.4960060000000  0.5443850000000 1.0
C      1  0.5291000000000  0.4630170000000  0.4660420000000 1.0
C      1  0.4952690000000  0.4825140000000  0.4305820000000 1.0
C      1  0.4853010000000  0.5394270000000  0.4258290000000 1.0
C      1  0.4626610000000  0.4867120000000  0.4404180000000 1.0
C      1  0.5087000000000  0.4504010000000  0.5582720000000 1.0
C      1  0.4365020000000  0.4767380000000  0.4596890000000 1.0
C      1  0.5181070000000  0.4765390000000  0.5596700000000 1.0
C      1  0.5229880000000  0.5633360000000  0.5477530000000 1.0
C      1  0.5430070000000  0.5493090000000  0.4637000000000 1.0
C      1  0.4403460000000  0.5516540000000  0.5231050000000 1.0
C      1  0.4756660000000  0.4783870000000  0.5684930000000 1.0
C      1  0.5216840000000  0.5680840000000  0.4542920000000 1.0
C      1  0.5033690000000  0.4847110000000  0.4992200000000 1.0
C      1  0.4726120000000  0.5803470000000  0.4867650000000 1.0
C      1  0.4387220000000  0.4558720000000  0.5226700000000 1.0
C      1  0.5260640000000  0.5244180000000  0.4357470000000 1.0
C      1  0.4260720000000  0.4855770000000  0.5268610000000 1.0
C      1  0.5806670000000  0.4931440000000  0.4796650000000 1.0
C      1  0.5255780000000  0.4327440000000  0.5426700000000 1.0
C      1  0.5587680000000  0.4713490000000  0.5856790000000 1.0
C      1  0.5676640000000  0.5172900000000  0.4925690000000 1.0
C      1  0.4329390000000  0.4969210000000  0.5561910000000 1.0
C      1  0.4794990000000  0.5060750000000  0.5729130000000 1.0
C      1  0.5838950000000  0.4680250000000  0.4959830000000 1.0
C      1  0.4636630000000  0.4298840000000  0.5055040000000 1.0
C      1  0.5254050000000  0.5403780000000  0.5661500000000 1.0
C      1  0.4560450000000  0.4350900000000  0.4506540000000 1.0
C      1  0.5241820000000  0.5162770000000  0.5343730000000 1.0
C      1  0.4369660000000  0.5497550000000  0.4754920000000 1.0
C      1  0.5497380000000  0.5074510000000  0.5170150000000 1.0
C      1  0.5684370000000  0.5505080000000  0.4849260000000 1.0
C      1  0.4732380000000  0.4486410000000  0.4839470000000 1.0
C      1  0.4498140000000  0.5662820000000  0.4959200000000 1.0
C      1  0.5358250000000  0.5285630000000  0.4862130000000 1.0
C      1  0.5014470000000  0.5271710000000  0.5707980000000 1.0
C      1  0.4370600000000  0.4486260000000  0.4669190000000 1.0
C      1  0.4473410000000  0.4659160000000  0.5543220000000 1.0
C      1  0.4987230000000  0.5850370000000  0.4975810000000 1.0
C      1  0.5252700000000  0.4649200000000  0.4997760000000 1.0
C      1  0.4281760000000  0.5288770000000  0.5449190000000 1.0
C      1  0.4135210000000  0.5016070000000  0.5055000000000 1.0
C      1  0.4812820000000  0.4925630000000  0.5315480000000 1.0
C      1  0.5464480000000  0.5675560000000  0.5000670000000 1.0
C      1  0.5233320000000  0.5768510000000  0.4849340000000 1.0
C      1  0.4573510000000  0.5292340000000  0.4646620000000 1.0
C      1  0.4772090000000  0.4561580000000  0.4362980000000 1.0
C      1  0.5171890000000  0.4879410000000  0.4512550000000 1.0
C      1  0.5675710000000  0.4862830000000  0.4538500000000 1.0
C      1  0.4875660000000  0.5429210000000  0.5032020000000 1.0
C      1  0.5679840000000  0.5446170000000  0.5379000000000 1.0
C      1  0.4125220000000  0.5406690000000  0.4843560000000 1.0
C      1  0.4968280000000  0.5638930000000  0.4383860000000 1.0
C      1  0.4723980000000  0.5537130000000  0.5264020000000 1.0
C      1  0.5694930000000  0.4469370000000  0.4813610000000 1.0
C      1  0.5165010000000  0.5209070000000  0.4090360000000 1.0
C      1  0.5574130000000  0.4382920000000  0.5313810000000 1.0
C      1  0.5470230000000  0.5041810000000  0.4446460000000 1.0
C      1  0.4683010000000  0.5200480000000  0.4366690000000 1.0
C      1  0.4137380000000  0.5315750000000  0.5150950000000 1.0
C      1  0.4524710000000  0.5222770000000  0.5657420000000 1.0
C      1  0.4765930000000  0.4480130000000  0.5528950000000 1.0
C      1  0.5077690000000  0.4224060000000  0.5224170000000 1.0
C      1  0.4837440000000  0.5453000000000  0.4711600000000 1.0
C      1  0.5404250000000  0.4668130000000  0.5282970000000 1.0
C      1  0.5057840000000  0.5051920000000  0.4741170000000 1.0
C      1  0.5464600000000  0.5635650000000  0.5288220000000 1.0
C      1  0.5494280000000  0.4770070000000  0.5598990000000 1.0
C      1  0.4946590000000  0.4069930000000  0.4278210000000 1.0
C      1  0.5013500000000  0.4982670000000  0.4048090000000 1.0
C      1  0.5781120000000  0.5134340000000  0.5441930000000 1.0
C      1  0.4564610000000  0.5031480000000  0.4818460000000 1.0
C      1  0.4756730000000  0.4754040000000  0.4848870000000 1.0
C      1  0.5796700000000  0.4634910000000  0.5243720000000 1.0
C      1  0.4758120000000  0.5430110000000  0.5583010000000 1.0
C      1  0.5472640000000  0.4372940000000  0.4997270000000 1.0
C      1  0.5185020000000  0.4249120000000  0.4961280000000 1.0
C      1  0.4594530000000  0.4830620000000  0.5206340000000 1.0
C      1  0.5172010000000  0.5310180000000  0.5074640000000 1.0
END
