TITL C-2778431-5191-1321 -0.00310531419013589 125000 -549.456204568218 0 0 95 (C1) n - 1
REM
REM in /home/nfs/bkarasulu/CARBON/AIRSS/Generating-Clusters/REBO/Only-C1/SD-CG/HFTN-CG
REM
REM
REM
REM
REM
REM ./C.cell (11c1c37f851c82e70ff6c80c92926a4b)
REM
REM compiler GCC version 9.2.1 20190827 (Red Hat 9.2.1-1)
REM options -cpp -mtune=generic -march=x86-64 -g -O0 -fpre-include=/usr/include/finclude/math-vector-fortran.h
REM seed 697485510 777522413 -835222379 -1004014217 -1224981120 1385234356 -94102365 -1986944980 -1002492373 -2123769770 955332425 1037815747 243713157 1762316931 -871550797 927747980 346729371 185232628 -2029758295 769969758 -818083773 -1317474227 -1546100517 323658689 1517603021 -1963926303 -751692842 -923030338 278998576 -1343210787 1253549901 -1718313219 -54405023
REM
CELL 1.54180   50.00000   50.00000   50.00000   90.00000   90.00000   90.00000
LATT -1
SFAC C  
C      1  0.5300850000000  0.4366840000000  0.5561370000000 1.0
C      1  0.4536980000000  0.4686720000000  0.5387900000000 1.0
C      1  0.5770310000000  0.5013970000000  0.4804370000000 1.0
C      1  0.5660710000000  0.5114720000000  0.5044720000000 1.0
C      1  0.4175980000000  0.4765700000000  0.5004210000000 1.0
C      1  0.4404650000000  0.5017420000000  0.5752680000000 1.0
C      1  0.4787880000000  0.5103060000000  0.4649890000000 1.0
C      1  0.4874920000000  0.4528080000000  0.5029090000000 1.0
C      1  0.5062620000000  0.5016100000000  0.5951460000000 1.0
C      1  0.5197470000000  0.5699860000000  0.5336700000000 1.0
C      1  0.5621340000000  0.5009260000000  0.4080030000000 1.0
C      1  0.4887930000000  0.5708070000000  0.5347560000000 1.0
C      1  0.5028760000000  0.5512050000000  0.4327810000000 1.0
C      1  0.5507150000000  0.4460180000000  0.4941920000000 1.0
C      1  0.5718020000000  0.5229170000000  0.5498960000000 1.0
C      1  0.5354030000000  0.4870860000000  0.4201910000000 1.0
C      1  0.5547840000000  0.5828800000000  0.4504490000000 1.0
C      1  0.4382870000000  0.4857630000000  0.4293120000000 1.0
C      1  0.4772240000000  0.5038270000000  0.5439590000000 1.0
C      1  0.5486830000000  0.5660760000000  0.4299170000000 1.0
C      1  0.5378100000000  0.4248760000000  0.5805430000000 1.0
C      1  0.4797570000000  0.4395640000000  0.5600560000000 1.0
C      1  0.4498580000000  0.4318970000000  0.4680440000000 1.0
C      1  0.5505120000000  0.4373860000000  0.5369280000000 1.0
C      1  0.5296030000000  0.5457320000000  0.4247600000000 1.0
C      1  0.4658660000000  0.5322290000000  0.4511620000000 1.0
C      1  0.4111180000000  0.5236150000000  0.4702010000000 1.0
C      1  0.4700440000000  0.5588240000000  0.4649640000000 1.0
C      1  0.4880550000000  0.4928660000000  0.3940970000000 1.0
C      1  0.5109520000000  0.5017690000000  0.4662550000000 1.0
C      1  0.5384150000000  0.5201360000000  0.4183720000000 1.0
C      1  0.5090120000000  0.4622680000000  0.4602860000000 1.0
C      1  0.4719100000000  0.5753950000000  0.5132920000000 1.0
C      1  0.5605430000000  0.4847240000000  0.4643810000000 1.0
C      1  0.4906820000000  0.4953300000000  0.4934360000000 1.0
C      1  0.5029490000000  0.4259480000000  0.5438200000000 1.0
C      1  0.5393210000000  0.4680100000000  0.5139290000000 1.0
C      1  0.5215450000000  0.4942330000000  0.5039370000000 1.0
C      1  0.4787590000000  0.5330140000000  0.4990310000000 1.0
C      1  0.5377520000000  0.5191900000000  0.5047640000000 1.0
C      1  0.4649840000000  0.4279740000000  0.4956680000000 1.0
C      1  0.4136970000000  0.5258930000000  0.4985850000000 1.0
C      1  0.5572780000000  0.4671860000000  0.5626560000000 1.0
C      1  0.5145700000000  0.4635860000000  0.4906160000000 1.0
C      1  0.5351790000000  0.4956680000000  0.4591910000000 1.0
C      1  0.3883210000000  0.5340620000000  0.4581630000000 1.0
C      1  0.4676160000000  0.4388280000000  0.4478400000000 1.0
C      1  0.5208180000000  0.5174470000000  0.5692670000000 1.0
C      1  0.5574840000000  0.4589750000000  0.5875420000000 1.0
C      1  0.4545160000000  0.4393330000000  0.5418630000000 1.0
C      1  0.4795590000000  0.5576690000000  0.5578750000000 1.0
C      1  0.4862630000000  0.5199860000000  0.3943450000000 1.0
C      1  0.5325380000000  0.5433300000000  0.5166420000000 1.0
C      1  0.4949340000000  0.4193530000000  0.4829220000000 1.0
C      1  0.5442690000000  0.5862570000000  0.4746100000000 1.0
C      1  0.4364620000000  0.5039960000000  0.4040920000000 1.0
C      1  0.4535310000000  0.4801510000000  0.5657310000000 1.0
C      1  0.4960450000000  0.5495560000000  0.4938770000000 1.0
C      1  0.4454370000000  0.4844280000000  0.4910680000000 1.0
C      1  0.4978790000000  0.4762630000000  0.5901520000000 1.0
C      1  0.4990750000000  0.4234630000000  0.5157960000000 1.0
C      1  0.4532560000000  0.5204080000000  0.5422980000000 1.0
C      1  0.5131250000000  0.4743800000000  0.4308350000000 1.0
C      1  0.4617120000000  0.5697610000000  0.4890090000000 1.0
C      1  0.4895470000000  0.4749440000000  0.4156340000000 1.0
C      1  0.5073450000000  0.4615490000000  0.5608110000000 1.0
C      1  0.5612450000000  0.4569250000000  0.4703640000000 1.0
C      1  0.5575400000000  0.5618720000000  0.5236130000000 1.0
C      1  0.5782220000000  0.5484570000000  0.5373060000000 1.0
C      1  0.5025640000000  0.5477670000000  0.5742470000000 1.0
C      1  0.4686110000000  0.4767690000000  0.5125450000000 1.0
C      1  0.4488320000000  0.4842220000000  0.4618750000000 1.0
C      1  0.4968870000000  0.5645870000000  0.4568620000000 1.0
C      1  0.4334330000000  0.5218590000000  0.5185950000000 1.0
C      1  0.4812380000000  0.4779880000000  0.4546400000000 1.0
C      1  0.5487330000000  0.3939170000000  0.5076290000000 1.0
C      1  0.4498700000000  0.4224230000000  0.5212650000000 1.0
C      1  0.5712850000000  0.5011560000000  0.5312480000000 1.0
C      1  0.5155960000000  0.5718130000000  0.4816480000000 1.0
C      1  0.5494000000000  0.5554360000000  0.5743070000000 1.0
C      1  0.5496980000000  0.4192760000000  0.5010890000000 1.0
C      1  0.5260550000000  0.5657720000000  0.5644920000000 1.0
C      1  0.4313710000000  0.5106520000000  0.4521410000000 1.0
C      1  0.5010020000000  0.4944300000000  0.5547010000000 1.0
C      1  0.4630580000000  0.4649740000000  0.4299520000000 1.0
C      1  0.4460970000000  0.5247570000000  0.4253080000000 1.0
C      1  0.5362300000000  0.5816000000000  0.5065830000000 1.0
C      1  0.4946490000000  0.4344950000000  0.4576880000000 1.0
C      1  0.4727490000000  0.4636450000000  0.5803310000000 1.0
C      1  0.4777980000000  0.5357280000000  0.4194720000000 1.0
C      1  0.5575680000000  0.4767270000000  0.5366100000000 1.0
C      1  0.4581490000000  0.5121640000000  0.5035990000000 1.0
C      1  0.5509030000000  0.5269970000000  0.5690040000000 1.0
C      1  0.4982610000000  0.5293540000000  0.5998350000000 1.0
C      1  0.4551160000000  0.5440360000000  0.5580110000000 1.0
END
