TITL C-2778437-8639-618 -0.00206628821906092 125000 -505.366229729665 0 0 87 (C1) n - 1
REM
REM in /home/nfs/bkarasulu/CARBON/AIRSS/Generating-Clusters/REBO/Only-C1/SD-CG/HFTN-CG
REM
REM
REM
REM
REM
REM ./C.cell (11c1c37f851c82e70ff6c80c92926a4b)
REM
REM compiler GCC version 9.2.1 20190827 (Red Hat 9.2.1-1)
REM options -cpp -mtune=generic -march=x86-64 -g -O0 -fpre-include=/usr/include/finclude/math-vector-fortran.h
REM seed -1562895590 534282149 -207385441 870566350 2047082819 1452542467 -759605193 236643090 -265293381 -2070125221 -473032922 -180267444 -1733019407 197699003 -2061291617 -957731621 1449983749 2100371971 -340706755 -1660254866 755024859 -2084152444 -1436851709 -1805093495 1070144668 -1215023696 444837003 -1454210388 -770407433 1470484960 -397844471 -656996417 -1469354880
REM
CELL 1.54180   50.00000   50.00000   50.00000   90.00000   90.00000   90.00000
LATT -1
SFAC C  
C      1  0.5312270000000  0.4925900000000  0.4238570000000 1.0
C      1  0.5150950000000  0.5677680000000  0.4806470000000 1.0
C      1  0.5133850000000  0.5625060000000  0.5663340000000 1.0
C      1  0.4566100000000  0.4465400000000  0.5151330000000 1.0
C      1  0.4840790000000  0.5243700000000  0.5758210000000 1.0
C      1  0.4436980000000  0.4731230000000  0.5708790000000 1.0
C      1  0.4662980000000  0.5652780000000  0.5328380000000 1.0
C      1  0.4733490000000  0.4518780000000  0.5548860000000 1.0
C      1  0.5577200000000  0.4685820000000  0.4563730000000 1.0
C      1  0.5227290000000  0.4622320000000  0.4996780000000 1.0
C      1  0.4992640000000  0.4257750000000  0.4736180000000 1.0
C      1  0.4760260000000  0.4689870000000  0.5818770000000 1.0
C      1  0.4485490000000  0.5320580000000  0.4168080000000 1.0
C      1  0.4413420000000  0.4508730000000  0.5452590000000 1.0
C      1  0.5354570000000  0.5248870000000  0.5440470000000 1.0
C      1  0.5290470000000  0.5346380000000  0.4480710000000 1.0
C      1  0.4954460000000  0.5697120000000  0.4371120000000 1.0
C      1  0.4975980000000  0.5265520000000  0.4064430000000 1.0
C      1  0.5782680000000  0.4435300000000  0.5252440000000 1.0
C      1  0.5597220000000  0.5257100000000  0.4513710000000 1.0
C      1  0.5558960000000  0.4935140000000  0.4416540000000 1.0
C      1  0.5282450000000  0.5180210000000  0.5025490000000 1.0
C      1  0.4335430000000  0.4711860000000  0.5123560000000 1.0
C      1  0.5143290000000  0.4287980000000  0.4477250000000 1.0
C      1  0.4738620000000  0.5575410000000  0.4509150000000 1.0
C      1  0.5098080000000  0.4313100000000  0.5055130000000 1.0
C      1  0.4966700000000  0.5876080000000  0.4929570000000 1.0
C      1  0.5101820000000  0.4115130000000  0.5489390000000 1.0
C      1  0.5388680000000  0.5582330000000  0.4957110000000 1.0
C      1  0.4418840000000  0.5444000000000  0.5389780000000 1.0
C      1  0.5623210000000  0.5168780000000  0.5022920000000 1.0
C      1  0.5505230000000  0.4301940000000  0.5262700000000 1.0
C      1  0.4942380000000  0.4584840000000  0.4812750000000 1.0
C      1  0.4317980000000  0.5126740000000  0.5414200000000 1.0
C      1  0.5189420000000  0.5640620000000  0.4506470000000 1.0
C      1  0.5186960000000  0.5214330000000  0.4219960000000 1.0
C      1  0.4733980000000  0.4757220000000  0.4641420000000 1.0
C      1  0.4774130000000  0.4962980000000  0.4243500000000 1.0
C      1  0.4268100000000  0.4816480000000  0.5425620000000 1.0
C      1  0.4382620000000  0.5149060000000  0.4894860000000 1.0
C      1  0.4677110000000  0.4433180000000  0.4239330000000 1.0
C      1  0.4305930000000  0.5278020000000  0.5128340000000 1.0
C      1  0.5235530000000  0.4868300000000  0.5440370000000 1.0
C      1  0.5644660000000  0.5312140000000  0.5297650000000 1.0
C      1  0.4892380000000  0.5089780000000  0.5326760000000 1.0
C      1  0.4991510000000  0.5582390000000  0.5383270000000 1.0
C      1  0.4878460000000  0.4896510000000  0.5052660000000 1.0
C      1  0.5347910000000  0.5227860000000  0.5774010000000 1.0
C      1  0.5680560000000  0.4713790000000  0.4824700000000 1.0
C      1  0.4968790000000  0.4974280000000  0.4732440000000 1.0
C      1  0.4337510000000  0.4731330000000  0.4637810000000 1.0
C      1  0.5378850000000  0.4496540000000  0.4484460000000 1.0
C      1  0.4687430000000  0.5887350000000  0.5103510000000 1.0
C      1  0.5125800000000  0.5250400000000  0.4753090000000 1.0
C      1  0.4694280000000  0.4745840000000  0.5296140000000 1.0
C      1  0.5361440000000  0.5701770000000  0.5473670000000 1.0
C      1  0.5064530000000  0.4737880000000  0.5871430000000 1.0
C      1  0.5113650000000  0.5388360000000  0.5823250000000 1.0
C      1  0.5162930000000  0.4630240000000  0.4277130000000 1.0
C      1  0.4867470000000  0.5445810000000  0.4781130000000 1.0
C      1  0.5544780000000  0.4554930000000  0.5035860000000 1.0
C      1  0.4543760000000  0.4511390000000  0.4502870000000 1.0
C      1  0.4710350000000  0.5284930000000  0.4015070000000 1.0
C      1  0.4630430000000  0.4991180000000  0.5812470000000 1.0
C      1  0.5191920000000  0.4896130000000  0.5146520000000 1.0
C      1  0.5099730000000  0.5311700000000  0.5282020000000 1.0
C      1  0.4982520000000  0.4962610000000  0.5629400000000 1.0
C      1  0.5417780000000  0.4718520000000  0.5584950000000 1.0
C      1  0.5018950000000  0.4902490000000  0.4403880000000 1.0
C      1  0.5256660000000  0.4191350000000  0.5269040000000 1.0
C      1  0.4501790000000  0.5399570000000  0.4437230000000 1.0
C      1  0.5857960000000  0.5096610000000  0.4627490000000 1.0
C      1  0.4505470000000  0.4897370000000  0.4418830000000 1.0
C      1  0.4956600000000  0.4377480000000  0.4246740000000 1.0
C      1  0.4766530000000  0.4346000000000  0.4981490000000 1.0
C      1  0.4567600000000  0.5293020000000  0.4728010000000 1.0
C      1  0.4609110000000  0.5014410000000  0.5485570000000 1.0
C      1  0.5641330000000  0.5211520000000  0.5622870000000 1.0
C      1  0.5540800000000  0.5392240000000  0.4809020000000 1.0
C      1  0.4320660000000  0.4863140000000  0.4885760000000 1.0
C      1  0.4884100000000  0.4256210000000  0.5564410000000 1.0
C      1  0.5789360000000  0.4969040000000  0.4867410000000 1.0
C      1  0.4682780000000  0.5443870000000  0.5596290000000 1.0
C      1  0.5318880000000  0.4644200000000  0.5834820000000 1.0
C      1  0.5461030000000  0.5578970000000  0.5236510000000 1.0
C      1  0.4984700000000  0.5868510000000  0.5243210000000 1.0
C      1  0.4591740000000  0.4710700000000  0.4150760000000 1.0
END
