TITL C-2778427-5640-1417 25.7312755683406 125000 -1070.57507322242 0 0 183 (C1) n - 1
REM
REM in /home/nfs/bkarasulu/CARBON/AIRSS/Generating-Clusters/REBO/Only-C1/SD-CG/HFTN-CG
REM
REM
REM
REM
REM
REM ./C.cell (11c1c37f851c82e70ff6c80c92926a4b)
REM
REM compiler GCC version 9.2.1 20190827 (Red Hat 9.2.1-1)
REM options -cpp -mtune=generic -march=x86-64 -g -O0 -fpre-include=/usr/include/finclude/math-vector-fortran.h
REM seed -951126742 -165036283 -512743543 1026996231 407620972 -1064284189 -2005651918 -28986224 427317711 -1902326318 -2125718597 2081641774 303322315 925607027 -789471940 -1148390906 -313891838 1819408367 -706842316 -771556844 -2089319705 -978191339 538061907 -367717710 2066894828 -1653324925 1396565585 -593398746 -2132932464 -1284421516 -1211415792 -707714342 1324145120
REM
CELL 1.54180   50.00000   50.00000   50.00000   90.00000   90.00000   90.00000
LATT -1
SFAC C  
C      1  0.5035870000000  0.5407810000000  0.4582700000000 1.0
C      1  0.4811660000000  0.5099190000000  0.5263330000000 1.0
C      1  0.4715410000000  0.5804560000000  0.4524190000000 1.0
C      1  0.4751710000000  0.4146070000000  0.5226250000000 1.0
C      1  0.4825570000000  0.5607880000000  0.5773100000000 1.0
C      1  0.5669760000000  0.4204730000000  0.4357670000000 1.0
C      1  0.4859830000000  0.4602900000000  0.4769530000000 1.0
C      1  0.4594270000000  0.4385970000000  0.5110020000000 1.0
C      1  0.6081510000000  0.4955890000000  0.4756260000000 1.0
C      1  0.6035550000000  0.4657000000000  0.5356220000000 1.0
C      1  0.5552090000000  0.4897330000000  0.5407580000000 1.0
C      1  0.5528390000000  0.4417950000000  0.4188650000000 1.0
C      1  0.4220130000000  0.5041640000000  0.5649170000000 1.0
C      1  0.4377750000000  0.4842470000000  0.4101720000000 1.0
C      1  0.5310980000000  0.4189090000000  0.5742230000000 1.0
C      1  0.4498390000000  0.5873240000000  0.5441670000000 1.0
C      1  0.5046910000000  0.6160460000000  0.4878240000000 1.0
C      1  0.5313630000000  0.4321460000000  0.5208270000000 1.0
C      1  0.5766580000000  0.4855360000000  0.4675420000000 1.0
C      1  0.4218250000000  0.5685260000000  0.4554580000000 1.0
C      1  0.5325790000000  0.5361820000000  0.4312440000000 1.0
C      1  0.4344930000000  0.5341030000000  0.4712700000000 1.0
C      1  0.4978890000000  0.4385230000000  0.5002820000000 1.0
C      1  0.4487760000000  0.4766060000000  0.6049600000000 1.0
C      1  0.3995270000000  0.5203670000000  0.5090190000000 1.0
C      1  0.5628470000000  0.5323630000000  0.4818850000000 1.0
C      1  0.5903920000000  0.5387780000000  0.4716640000000 1.0
C      1  0.5124110000000  0.5012070000000  0.4034510000000 1.0
C      1  0.5219250000000  0.5736120000000  0.4233640000000 1.0
C      1  0.4665760000000  0.4071180000000  0.4414870000000 1.0
C      1  0.4191230000000  0.5764050000000  0.4878670000000 1.0
C      1  0.5309810000000  0.5011760000000  0.5617930000000 1.0
C      1  0.5357270000000  0.4571020000000  0.4985580000000 1.0
C      1  0.4836700000000  0.6378350000000  0.5033330000000 1.0
C      1  0.4713660000000  0.5821520000000  0.4216740000000 1.0
C      1  0.5990190000000  0.5575260000000  0.5154410000000 1.0
C      1  0.4593650000000  0.3975930000000  0.5441780000000 1.0
C      1  0.3930080000000  0.5134950000000  0.4766430000000 1.0
C      1  0.5529230000000  0.4130180000000  0.4606470000000 1.0
C      1  0.4439800000000  0.4369720000000  0.4874830000000 1.0
C      1  0.5387350000000  0.5961200000000  0.5221580000000 1.0
C      1  0.5007830000000  0.4229510000000  0.4285620000000 1.0
C      1  0.4315510000000  0.4057190000000  0.5382720000000 1.0
C      1  0.5534380000000  0.4398310000000  0.5663420000000 1.0
C      1  0.5075040000000  0.5436060000000  0.4148450000000 1.0
C      1  0.4430650000000  0.5830490000000  0.5716030000000 1.0
C      1  0.3613240000000  0.4761740000000  0.4778280000000 1.0
C      1  0.5048430000000  0.5821930000000  0.5626660000000 1.0
C      1  0.5609790000000  0.4021040000000  0.4918570000000 1.0
C      1  0.5316670000000  0.4180730000000  0.4931460000000 1.0
C      1  0.4966260000000  0.4040030000000  0.4568860000000 1.0
C      1  0.5415570000000  0.5297800000000  0.4587410000000 1.0
C      1  0.5635050000000  0.5416540000000  0.4275620000000 1.0
C      1  0.5339650000000  0.5452750000000  0.5897790000000 1.0
C      1  0.4960880000000  0.5570110000000  0.5300530000000 1.0
C      1  0.4081500000000  0.4969950000000  0.4210430000000 1.0
C      1  0.5077980000000  0.4704400000000  0.5080100000000 1.0
C      1  0.4886450000000  0.5378530000000  0.4886660000000 1.0
C      1  0.5008750000000  0.3754400000000  0.5349610000000 1.0
C      1  0.5041730000000  0.5260500000000  0.5235610000000 1.0
C      1  0.4492960000000  0.5715730000000  0.4732550000000 1.0
C      1  0.5683610000000  0.5699050000000  0.5177390000000 1.0
C      1  0.5708090000000  0.4624190000000  0.5357430000000 1.0
C      1  0.4570610000000  0.4633570000000  0.5291320000000 1.0
C      1  0.5464540000000  0.3952840000000  0.5218730000000 1.0
C      1  0.4522550000000  0.5173480000000  0.5176270000000 1.0
C      1  0.4264430000000  0.5776460000000  0.5211150000000 1.0
C      1  0.4520560000000  0.4551090000000  0.5788880000000 1.0
C      1  0.5171020000000  0.3892110000000  0.5164340000000 1.0
C      1  0.5708910000000  0.5151000000000  0.5299100000000 1.0
C      1  0.5820040000000  0.4327960000000  0.5217900000000 1.0
C      1  0.5532090000000  0.5698950000000  0.4365110000000 1.0
C      1  0.4916400000000  0.5207430000000  0.4065530000000 1.0
C      1  0.4493570000000  0.5557390000000  0.5828620000000 1.0
C      1  0.4624360000000  0.5026040000000  0.5955020000000 1.0
C      1  0.5047320000000  0.4290640000000  0.5623060000000 1.0
C      1  0.6102740000000  0.4777830000000  0.5045310000000 1.0
C      1  0.5600750000000  0.4724010000000  0.5050490000000 1.0
C      1  0.4816710000000  0.4379530000000  0.5789550000000 1.0
C      1  0.4949270000000  0.5370920000000  0.5906500000000 1.0
C      1  0.4960230000000  0.5875200000000  0.4107080000000 1.0
C      1  0.5119450000000  0.4448810000000  0.4517070000000 1.0
C      1  0.4378730000000  0.4836160000000  0.4611440000000 1.0
C      1  0.4247230000000  0.4786150000000  0.6227280000000 1.0
C      1  0.5190620000000  0.5696680000000  0.5909060000000 1.0
C      1  0.4145170000000  0.5230140000000  0.4302300000000 1.0
C      1  0.4587920000000  0.5110950000000  0.4063550000000 1.0
C      1  0.4490030000000  0.4295940000000  0.4587620000000 1.0
C      1  0.5618200000000  0.4933770000000  0.4230010000000 1.0
C      1  0.4774900000000  0.4437700000000  0.4527320000000 1.0
C      1  0.5032140000000  0.4062130000000  0.4901730000000 1.0
C      1  0.5349170000000  0.4393800000000  0.4699010000000 1.0
C      1  0.4166140000000  0.4493500000000  0.4907880000000 1.0
C      1  0.4972560000000  0.5692750000000  0.4920170000000 1.0
C      1  0.5837270000000  0.4261710000000  0.4880440000000 1.0
C      1  0.6086190000000  0.5426170000000  0.4936350000000 1.0
C      1  0.4619720000000  0.4984620000000  0.4550590000000 1.0
C      1  0.5240070000000  0.5819230000000  0.4949370000000 1.0
C      1  0.5503750000000  0.4712380000000  0.5797070000000 1.0
C      1  0.4158030000000  0.4922620000000  0.5173760000000 1.0
C      1  0.4824750000000  0.4867730000000  0.4937990000000 1.0
C      1  0.5241280000000  0.4433950000000  0.4141920000000 1.0
C      1  0.5123400000000  0.4766440000000  0.4619440000000 1.0
C      1  0.5531970000000  0.5437940000000  0.5084610000000 1.0
C      1  0.5358520000000  0.5905200000000  0.4660320000000 1.0
C      1  0.5725340000000  0.5198300000000  0.5875940000000 1.0
C      1  0.4224360000000  0.4853790000000  0.5448300000000 1.0
C      1  0.3887680000000  0.4846050000000  0.4379480000000 1.0
C      1  0.5308930000000  0.4964960000000  0.4281390000000 1.0
C      1  0.4423200000000  0.5223290000000  0.5844780000000 1.0
C      1  0.5374160000000  0.5212220000000  0.5240420000000 1.0
C      1  0.6021020000000  0.5036570000000  0.5257110000000 1.0
C      1  0.4831520000000  0.5880040000000  0.5370400000000 1.0
C      1  0.5964490000000  0.5168440000000  0.4525180000000 1.0
C      1  0.5660390000000  0.5818400000000  0.4643920000000 1.0
C      1  0.4400000000000  0.5382890000000  0.5550550000000 1.0
C      1  0.4561100000000  0.4006640000000  0.4988000000000 1.0
C      1  0.5308890000000  0.6165380000000  0.4566040000000 1.0
C      1  0.4298420000000  0.4687930000000  0.4386580000000 1.0
C      1  0.4793700000000  0.4890860000000  0.5704920000000 1.0
C      1  0.4958510000000  0.5052500000000  0.6029090000000 1.0
C      1  0.5089830000000  0.5084960000000  0.4502170000000 1.0
C      1  0.4580950000000  0.5268220000000  0.4581990000000 1.0
C      1  0.4891990000000  0.6097440000000  0.5176150000000 1.0
C      1  0.5237440000000  0.4565810000000  0.5638580000000 1.0
C      1  0.5692450000000  0.4660170000000  0.4250040000000 1.0
C      1  0.4086940000000  0.4211490000000  0.4974530000000 1.0
C      1  0.4806310000000  0.4830360000000  0.4386830000000 1.0
C      1  0.5848960000000  0.5410660000000  0.5394740000000 1.0
C      1  0.5876180000000  0.4569850000000  0.5000620000000 1.0
C      1  0.4706140000000  0.4518460000000  0.6080840000000 1.0
C      1  0.4666460000000  0.5604230000000  0.4953530000000 1.0
C      1  0.4744230000000  0.5480580000000  0.4527800000000 1.0
C      1  0.5004620000000  0.5128480000000  0.5694100000000 1.0
C      1  0.4773240000000  0.4834650000000  0.4069900000000 1.0
C      1  0.5797210000000  0.5423370000000  0.5711320000000 1.0
C      1  0.4961560000000  0.5928350000000  0.4683840000000 1.0
C      1  0.4774310000000  0.3761490000000  0.5495530000000 1.0
C      1  0.4517000000000  0.4531840000000  0.4090420000000 1.0
C      1  0.4506860000000  0.5666200000000  0.4111720000000 1.0
C      1  0.5271570000000  0.4899130000000  0.5237030000000 1.0
C      1  0.5515800000000  0.5288800000000  0.6052030000000 1.0
C      1  0.4337480000000  0.5382480000000  0.4998000000000 1.0
C      1  0.5333870000000  0.5346270000000  0.5629830000000 1.0
C      1  0.5618840000000  0.5938440000000  0.4960720000000 1.0
C      1  0.4987870000000  0.5098700000000  0.4830320000000 1.0
C      1  0.5738610000000  0.4931380000000  0.5759450000000 1.0
C      1  0.4937690000000  0.4679030000000  0.5890070000000 1.0
C      1  0.4248320000000  0.5615030000000  0.4291450000000 1.0
C      1  0.4273390000000  0.4420420000000  0.4412980000000 1.0
C      1  0.5303060000000  0.5093940000000  0.4835800000000 1.0
C      1  0.5159150000000  0.5684890000000  0.4543630000000 1.0
C      1  0.4692170000000  0.4345720000000  0.4214210000000 1.0
C      1  0.5358810000000  0.5826540000000  0.5479650000000 1.0
C      1  0.5361890000000  0.6166190000000  0.4960360000000 1.0
C      1  0.6168770000000  0.5161040000000  0.5001010000000 1.0
C      1  0.5214800000000  0.4854350000000  0.5913560000000 1.0
C      1  0.5024600000000  0.4258470000000  0.5321940000000 1.0
C      1  0.4689330000000  0.5524710000000  0.5484280000000 1.0
C      1  0.4371810000000  0.4574650000000  0.5529080000000 1.0
C      1  0.4047990000000  0.5541210000000  0.5092020000000 1.0
C      1  0.4557930000000  0.5637280000000  0.5211840000000 1.0
C      1  0.4542450000000  0.4871990000000  0.5076190000000 1.0
C      1  0.5564970000000  0.4236440000000  0.5381040000000 1.0
C      1  0.4109220000000  0.5268230000000  0.4584730000000 1.0
C      1  0.4677320000000  0.3978430000000  0.4741140000000 1.0
C      1  0.4799360000000  0.4821850000000  0.5396130000000 1.0
C      1  0.5925000000000  0.4895730000000  0.5553010000000 1.0
C      1  0.5019970000000  0.4652810000000  0.4188310000000 1.0
C      1  0.4247210000000  0.5282360000000  0.5314610000000 1.0
C      1  0.5093290000000  0.4770120000000  0.5470800000000 1.0
C      1  0.4221020000000  0.4304020000000  0.5491150000000 1.0
C      1  0.5640330000000  0.5655750000000  0.5515350000000 1.0
C      1  0.5438220000000  0.4899030000000  0.4590770000000 1.0
C      1  0.3798210000000  0.4911750000000  0.4647280000000 1.0
C      1  0.4285170000000  0.4037530000000  0.5091150000000 1.0
C      1  0.5839340000000  0.4617930000000  0.4495060000000 1.0
C      1  0.5779810000000  0.5165550000000  0.4306150000000 1.0
C      1  0.5862250000000  0.4343930000000  0.4568950000000 1.0
C      1  0.4281060000000  0.4786100000000  0.4901230000000 1.0
C      1  0.5607580000000  0.5006030000000  0.4933750000000 1.0
C      1  0.4402390000000  0.5345050000000  0.4144840000000 1.0
C      1  0.5247010000000  0.5533140000000  0.5440080000000 1.0
END
