TITL C-2778435-5768-445 -0.00247808595596357 125000 -759.03327595906 0 0 131 (C1) n - 1
REM
REM in /home/nfs/bkarasulu/CARBON/AIRSS/Generating-Clusters/REBO/Only-C1/SD-CG/HFTN-CG
REM
REM
REM
REM
REM
REM ./C.cell (11c1c37f851c82e70ff6c80c92926a4b)
REM
REM compiler GCC version 9.2.1 20190827 (Red Hat 9.2.1-1)
REM options -cpp -mtune=generic -march=x86-64 -g -O0 -fpre-include=/usr/include/finclude/math-vector-fortran.h
REM seed 231544259 1668958584 -1278653529 -570387125 -723350089 -1585779065 -1664692043 -2081434533 -647020519 1343003476 778278943 1677350114 2051240774 -463673530 -1219782581 -481877112 -180499659 -265572646 -471695478 1915792763 -988846258 2124232182 -1534476776 -1316727846 1973012823 -1829229108 -554293305 -242185455 1908930500 -949163326 1584801585 -950236140 1544169275
REM
CELL 1.54180   50.00000   50.00000   50.00000   90.00000   90.00000   90.00000
LATT -1
SFAC C  
C      1  0.5150650000000  0.5541430000000  0.4429870000000 1.0
C      1  0.5651720000000  0.4540640000000  0.5703210000000 1.0
C      1  0.5129260000000  0.5364840000000  0.5375910000000 1.0
C      1  0.5744570000000  0.4871480000000  0.4211480000000 1.0
C      1  0.4552900000000  0.5961050000000  0.4821520000000 1.0
C      1  0.4181010000000  0.5479470000000  0.4593880000000 1.0
C      1  0.5596080000000  0.5803520000000  0.4470340000000 1.0
C      1  0.5067390000000  0.5324420000000  0.5065060000000 1.0
C      1  0.4892450000000  0.5886410000000  0.4623730000000 1.0
C      1  0.4113770000000  0.5540190000000  0.5158680000000 1.0
C      1  0.5401230000000  0.4590230000000  0.5799260000000 1.0
C      1  0.5894160000000  0.4558520000000  0.5146740000000 1.0
C      1  0.5698000000000  0.4792440000000  0.5394410000000 1.0
C      1  0.5467850000000  0.5711460000000  0.5397480000000 1.0
C      1  0.5311490000000  0.5099120000000  0.5494710000000 1.0
C      1  0.5725710000000  0.5255200000000  0.4790550000000 1.0
C      1  0.5126140000000  0.5449800000000  0.4753550000000 1.0
C      1  0.4048560000000  0.4377930000000  0.4945440000000 1.0
C      1  0.4620750000000  0.5480970000000  0.4776830000000 1.0
C      1  0.4513100000000  0.4563250000000  0.5064120000000 1.0
C      1  0.5029480000000  0.4241660000000  0.5202160000000 1.0
C      1  0.4204980000000  0.4837180000000  0.5540070000000 1.0
C      1  0.5594030000000  0.4880870000000  0.5082980000000 1.0
C      1  0.4586100000000  0.4865180000000  0.4541150000000 1.0
C      1  0.4331170000000  0.5621870000000  0.5353980000000 1.0
C      1  0.5863630000000  0.4985990000000  0.4902770000000 1.0
C      1  0.4291080000000  0.4301680000000  0.5073210000000 1.0
C      1  0.4442360000000  0.5252210000000  0.5193210000000 1.0
C      1  0.5501290000000  0.4235750000000  0.5314840000000 1.0
C      1  0.5700840000000  0.4452090000000  0.5399450000000 1.0
C      1  0.4636820000000  0.5176280000000  0.5713170000000 1.0
C      1  0.5320880000000  0.4686470000000  0.5175690000000 1.0
C      1  0.5512350000000  0.5457880000000  0.5531340000000 1.0
C      1  0.5334040000000  0.5788540000000  0.4392320000000 1.0
C      1  0.4990550000000  0.5023950000000  0.4124760000000 1.0
C      1  0.4724960000000  0.5349060000000  0.5294860000000 1.0
C      1  0.4338340000000  0.5277990000000  0.4407030000000 1.0
C      1  0.5291870000000  0.4254110000000  0.4818020000000 1.0
C      1  0.5762490000000  0.5593180000000  0.4559550000000 1.0
C      1  0.4831820000000  0.4571960000000  0.5304760000000 1.0
C      1  0.5050840000000  0.4349820000000  0.4937700000000 1.0
C      1  0.4109880000000  0.5667870000000  0.4869200000000 1.0
C      1  0.4989710000000  0.4862530000000  0.5880750000000 1.0
C      1  0.4859490000000  0.5529870000000  0.4301770000000 1.0
C      1  0.4964370000000  0.5022940000000  0.4427140000000 1.0
C      1  0.4427010000000  0.4985090000000  0.4808710000000 1.0
C      1  0.4440640000000  0.5418330000000  0.5566760000000 1.0
C      1  0.4887750000000  0.4755480000000  0.4044830000000 1.0
C      1  0.5365950000000  0.5083240000000  0.5175430000000 1.0
C      1  0.5814040000000  0.4398380000000  0.4856460000000 1.0
C      1  0.5125100000000  0.4643780000000  0.5401570000000 1.0
C      1  0.4179890000000  0.5187020000000  0.4761950000000 1.0
C      1  0.4611780000000  0.5358540000000  0.4365740000000 1.0
C      1  0.4975850000000  0.5871110000000  0.5108510000000 1.0
C      1  0.5031810000000  0.5599520000000  0.5548920000000 1.0
C      1  0.5430160000000  0.5351070000000  0.5779980000000 1.0
C      1  0.5294970000000  0.5037040000000  0.4207720000000 1.0
C      1  0.4261330000000  0.4452340000000  0.4418020000000 1.0
C      1  0.5333330000000  0.5269880000000  0.4453690000000 1.0
C      1  0.4810960000000  0.4886870000000  0.4768090000000 1.0
C      1  0.4463740000000  0.4289350000000  0.4530140000000 1.0
C      1  0.4878450000000  0.4836720000000  0.5153770000000 1.0
C      1  0.4706690000000  0.5563390000000  0.5643460000000 1.0
C      1  0.4928250000000  0.5186180000000  0.5889500000000 1.0
C      1  0.5907690000000  0.5221210000000  0.5218850000000 1.0
C      1  0.5519590000000  0.5021180000000  0.4705410000000 1.0
C      1  0.5520620000000  0.4157370000000  0.5024720000000 1.0
C      1  0.5197710000000  0.4686400000000  0.4162770000000 1.0
C      1  0.4966790000000  0.4499120000000  0.4337290000000 1.0
C      1  0.4622260000000  0.4985230000000  0.5427380000000 1.0
C      1  0.5546550000000  0.4322290000000  0.4656260000000 1.0
C      1  0.5312410000000  0.4835050000000  0.5899030000000 1.0
C      1  0.5476190000000  0.4390820000000  0.4391230000000 1.0
C      1  0.4818750000000  0.5216680000000  0.4858600000000 1.0
C      1  0.5957140000000  0.5580060000000  0.4764310000000 1.0
C      1  0.4764710000000  0.4667050000000  0.5831830000000 1.0
C      1  0.4369110000000  0.4692050000000  0.4260100000000 1.0
C      1  0.5226200000000  0.5138940000000  0.4752450000000 1.0
C      1  0.5088090000000  0.4783350000000  0.4637330000000 1.0
C      1  0.5968390000000  0.4886320000000  0.5209110000000 1.0
C      1  0.4864660000000  0.4419080000000  0.5737540000000 1.0
C      1  0.4636910000000  0.4170290000000  0.4779480000000 1.0
C      1  0.4780120000000  0.4404610000000  0.4577300000000 1.0
C      1  0.4917560000000  0.5118460000000  0.5434720000000 1.0
C      1  0.5235570000000  0.4259630000000  0.5398430000000 1.0
C      1  0.5539460000000  0.4495330000000  0.5015150000000 1.0
C      1  0.3936090000000  0.5144300000000  0.4955330000000 1.0
C      1  0.6030170000000  0.4840030000000  0.4687850000000 1.0
C      1  0.4396000000000  0.5717600000000  0.4708910000000 1.0
C      1  0.4743260000000  0.4213390000000  0.5282480000000 1.0
C      1  0.5784400000000  0.5107680000000  0.4280850000000 1.0
C      1  0.5345240000000  0.4872970000000  0.4480690000000 1.0
C      1  0.5225360000000  0.4305300000000  0.4307080000000 1.0
C      1  0.4494450000000  0.5827020000000  0.5273160000000 1.0
C      1  0.4117490000000  0.4693800000000  0.4563260000000 1.0
C      1  0.5257440000000  0.5815410000000  0.4977430000000 1.0
C      1  0.4278160000000  0.4968730000000  0.4437890000000 1.0
C      1  0.5171870000000  0.4435390000000  0.5652850000000 1.0
C      1  0.5321930000000  0.4686230000000  0.4833430000000 1.0
C      1  0.4814500000000  0.5594830000000  0.5213780000000 1.0
C      1  0.4607110000000  0.4979600000000  0.5098390000000 1.0
C      1  0.5101760000000  0.4990830000000  0.5024830000000 1.0
C      1  0.4277260000000  0.5151310000000  0.5542240000000 1.0
C      1  0.4937930000000  0.5490510000000  0.5846130000000 1.0
C      1  0.4806980000000  0.5214740000000  0.4541150000000 1.0
C      1  0.5514600000000  0.4677300000000  0.4284900000000 1.0
C      1  0.4531090000000  0.4531090000000  0.5389010000000 1.0
C      1  0.4365490000000  0.5391620000000  0.4936000000000 1.0
C      1  0.4716200000000  0.4238830000000  0.5588620000000 1.0
C      1  0.5472530000000  0.5701100000000  0.5106130000000 1.0
C      1  0.4065400000000  0.4644950000000  0.4837530000000 1.0
C      1  0.5649720000000  0.5313740000000  0.4469330000000 1.0
C      1  0.4273770000000  0.4785010000000  0.5008410000000 1.0
C      1  0.4237060000000  0.4985950000000  0.5246040000000 1.0
C      1  0.3922060000000  0.5301390000000  0.5157610000000 1.0
C      1  0.5569360000000  0.4975560000000  0.5579340000000 1.0
C      1  0.4664000000000  0.5935830000000  0.5071770000000 1.0
C      1  0.4557250000000  0.4166870000000  0.5050540000000 1.0
C      1  0.4880420000000  0.5637750000000  0.4707640000000 1.0
C      1  0.5089300000000  0.4898990000000  0.5573580000000 1.0
C      1  0.5267600000000  0.5144780000000  0.5889560000000 1.0
C      1  0.5903090000000  0.4596680000000  0.4614640000000 1.0
C      1  0.4792850000000  0.4564090000000  0.4874470000000 1.0
C      1  0.6009630000000  0.5425740000000  0.5013720000000 1.0
C      1  0.4560810000000  0.4844000000000  0.5722500000000 1.0
C      1  0.4317730000000  0.4581140000000  0.5547160000000 1.0
C      1  0.5631330000000  0.4711020000000  0.4694960000000 1.0
C      1  0.5066050000000  0.5871810000000  0.5417940000000 1.0
C      1  0.4684210000000  0.4674970000000  0.4276920000000 1.0
C      1  0.5600650000000  0.5284470000000  0.5292440000000 1.0
C      1  0.5656070000000  0.5462530000000  0.5020330000000 1.0
END
