TITL C-2778424-3986-1378 0.00206603583392439 125000 -939.278205274277 0 0 160 (C1) n - 1
REM
REM in /home/nfs/bkarasulu/CARBON/AIRSS/Generating-Clusters/REBO/Only-C1/SD-CG/HFTN-CG
REM
REM
REM
REM
REM
REM ./C.cell (11c1c37f851c82e70ff6c80c92926a4b)
REM
REM compiler GCC version 9.2.1 20190827 (Red Hat 9.2.1-1)
REM options -cpp -mtune=generic -march=x86-64 -g -O0 -fpre-include=/usr/include/finclude/math-vector-fortran.h
REM seed -200022167 -812735040 86262292 -104800039 -540198792 -1149501026 1956778818 1403751724 865148038 1106503351 745011849 1956162629 698586877 1724425004 1522616610 1560042467 635301815 790649876 -1312925221 -1592712681 787364874 1434293990 -706706429 -1360576631 -683006361 -2053190045 -834587280 -297125955 -1422683780 -1042762860 654617614 -2008524068 -355452760
REM
CELL 1.54180   50.00000   50.00000   50.00000   90.00000   90.00000   90.00000
LATT -1
SFAC C  
C      1  0.5676540000000  0.5404350000000  0.4739780000000 1.0
C      1  0.5426930000000  0.4868160000000  0.5854390000000 1.0
C      1  0.5747470000000  0.4710730000000  0.5541680000000 1.0
C      1  0.4833490000000  0.5969550000000  0.4632780000000 1.0
C      1  0.5758300000000  0.4914200000000  0.4620810000000 1.0
C      1  0.5058270000000  0.5500800000000  0.5502130000000 1.0
C      1  0.4790280000000  0.4648010000000  0.4402250000000 1.0
C      1  0.4478910000000  0.5725470000000  0.5378860000000 1.0
C      1  0.5087340000000  0.3871070000000  0.4913410000000 1.0
C      1  0.4739950000000  0.5796750000000  0.5528440000000 1.0
C      1  0.5613150000000  0.5554040000000  0.4496340000000 1.0
C      1  0.5646560000000  0.4626190000000  0.4661720000000 1.0
C      1  0.4980740000000  0.5307460000000  0.4945010000000 1.0
C      1  0.4625270000000  0.5305190000000  0.5741580000000 1.0
C      1  0.5586270000000  0.5446230000000  0.5480310000000 1.0
C      1  0.5540830000000  0.5157130000000  0.5751860000000 1.0
C      1  0.4355400000000  0.4963290000000  0.5300410000000 1.0
C      1  0.5215790000000  0.5795800000000  0.4271610000000 1.0
C      1  0.4613050000000  0.5932890000000  0.4849440000000 1.0
C      1  0.5337930000000  0.3919050000000  0.5053920000000 1.0
C      1  0.6014940000000  0.4794470000000  0.5430570000000 1.0
C      1  0.5587410000000  0.4934060000000  0.4981660000000 1.0
C      1  0.5051110000000  0.4750580000000  0.5791150000000 1.0
C      1  0.4966920000000  0.4518440000000  0.5201060000000 1.0
C      1  0.5157070000000  0.5044480000000  0.5756900000000 1.0
C      1  0.4376680000000  0.5845590000000  0.4736530000000 1.0
C      1  0.4787850000000  0.5120990000000  0.5238070000000 1.0
C      1  0.4227720000000  0.5572210000000  0.5251160000000 1.0
C      1  0.5098070000000  0.6118720000000  0.5207880000000 1.0
C      1  0.4602730000000  0.4253100000000  0.4368960000000 1.0
C      1  0.4778170000000  0.5225420000000  0.4715970000000 1.0
C      1  0.5125800000000  0.4871170000000  0.4117860000000 1.0
C      1  0.4183440000000  0.4646000000000  0.4461310000000 1.0
C      1  0.4605940000000  0.3845440000000  0.4981630000000 1.0
C      1  0.4865880000000  0.3864920000000  0.5094680000000 1.0
C      1  0.4501370000000  0.4586130000000  0.4570610000000 1.0
C      1  0.5680750000000  0.4434530000000  0.5432130000000 1.0
C      1  0.5127300000000  0.5620610000000  0.5787380000000 1.0
C      1  0.6054810000000  0.4946440000000  0.4676680000000 1.0
C      1  0.4643990000000  0.5525100000000  0.4312610000000 1.0
C      1  0.4031390000000  0.5121900000000  0.5515860000000 1.0
C      1  0.5269530000000  0.4423900000000  0.5706140000000 1.0
C      1  0.5980080000000  0.5433910000000  0.4806270000000 1.0
C      1  0.4796140000000  0.4209590000000  0.5583120000000 1.0
C      1  0.4807570000000  0.4810840000000  0.4038690000000 1.0
C      1  0.4750230000000  0.4699740000000  0.5801320000000 1.0
C      1  0.5231620000000  0.4234490000000  0.4836420000000 1.0
C      1  0.4155680000000  0.5356910000000  0.4592190000000 1.0
C      1  0.5317160000000  0.5316420000000  0.4112860000000 1.0
C      1  0.5967080000000  0.5074190000000  0.5390130000000 1.0
C      1  0.5246490000000  0.5157510000000  0.4565590000000 1.0
C      1  0.5612120000000  0.6086620000000  0.5360550000000 1.0
C      1  0.5300770000000  0.5401990000000  0.5013200000000 1.0
C      1  0.5157730000000  0.5965590000000  0.4741270000000 1.0
C      1  0.4786610000000  0.5605190000000  0.5773770000000 1.0
C      1  0.5028680000000  0.4302450000000  0.4160720000000 1.0
C      1  0.5132980000000  0.5186210000000  0.5482260000000 1.0
C      1  0.5037410000000  0.4477270000000  0.4518860000000 1.0
C      1  0.4408270000000  0.5099270000000  0.4253130000000 1.0
C      1  0.4862920000000  0.4667240000000  0.4822560000000 1.0
C      1  0.4937110000000  0.5623340000000  0.5064180000000 1.0
C      1  0.5520550000000  0.4342150000000  0.4317690000000 1.0
C      1  0.4936540000000  0.5940550000000  0.4312290000000 1.0
C      1  0.4267220000000  0.4979780000000  0.5713260000000 1.0
C      1  0.4294150000000  0.4536110000000  0.5000350000000 1.0
C      1  0.4588810000000  0.5193050000000  0.4996980000000 1.0
C      1  0.5043080000000  0.5219650000000  0.5983660000000 1.0
C      1  0.5522280000000  0.4633850000000  0.4282760000000 1.0
C      1  0.5084850000000  0.5163430000000  0.4267800000000 1.0
C      1  0.5525380000000  0.5993670000000  0.5594360000000 1.0
C      1  0.5466490000000  0.5672520000000  0.5141670000000 1.0
C      1  0.3879090000000  0.4982080000000  0.5044760000000 1.0
C      1  0.4998100000000  0.4558380000000  0.4067640000000 1.0
C      1  0.4170310000000  0.4713410000000  0.5547560000000 1.0
C      1  0.4994790000000  0.5632400000000  0.4473590000000 1.0
C      1  0.5101860000000  0.4238130000000  0.5134700000000 1.0
C      1  0.4378880000000  0.4486360000000  0.5561690000000 1.0
C      1  0.4923120000000  0.4359790000000  0.4800530000000 1.0
C      1  0.4886770000000  0.5408550000000  0.6024630000000 1.0
C      1  0.4579590000000  0.4968370000000  0.5749650000000 1.0
C      1  0.4315560000000  0.4592140000000  0.4178830000000 1.0
C      1  0.5686380000000  0.5118130000000  0.5215320000000 1.0
C      1  0.5436960000000  0.4850310000000  0.4130160000000 1.0
C      1  0.4860560000000  0.4151330000000  0.4369120000000 1.0
C      1  0.5275980000000  0.5907820000000  0.5781310000000 1.0
C      1  0.5546890000000  0.5127750000000  0.4706520000000 1.0
C      1  0.5371200000000  0.5331600000000  0.5321500000000 1.0
C      1  0.5291150000000  0.4845780000000  0.5027880000000 1.0
C      1  0.5436710000000  0.5598440000000  0.4206900000000 1.0
C      1  0.5416160000000  0.4601220000000  0.5853440000000 1.0
C      1  0.4872680000000  0.5347380000000  0.4444350000000 1.0
C      1  0.5772450000000  0.4150030000000  0.4787240000000 1.0
C      1  0.5165660000000  0.4759740000000  0.4770210000000 1.0
C      1  0.5005370000000  0.4773660000000  0.5396020000000 1.0
C      1  0.3986190000000  0.4616700000000  0.4943810000000 1.0
C      1  0.4949240000000  0.4432280000000  0.5721900000000 1.0
C      1  0.4158920000000  0.4440180000000  0.4709250000000 1.0
C      1  0.4673070000000  0.4909740000000  0.4679430000000 1.0
C      1  0.4483550000000  0.5357470000000  0.4151810000000 1.0
C      1  0.4467060000000  0.5208790000000  0.5453580000000 1.0
C      1  0.4062450000000  0.5292320000000  0.4872850000000 1.0
C      1  0.6116730000000  0.4353330000000  0.5168340000000 1.0
C      1  0.5290220000000  0.4829090000000  0.5425380000000 1.0
C      1  0.5557100000000  0.4954520000000  0.5487020000000 1.0
C      1  0.5281450000000  0.5445670000000  0.4691330000000 1.0
C      1  0.4180600000000  0.5312340000000  0.5709780000000 1.0
C      1  0.5789550000000  0.4666880000000  0.4974180000000 1.0
C      1  0.4540890000000  0.4724250000000  0.4924440000000 1.0
C      1  0.5508210000000  0.5676080000000  0.5684300000000 1.0
C      1  0.4669460000000  0.4512610000000  0.5136010000000 1.0
C      1  0.5916000000000  0.4542780000000  0.5223000000000 1.0
C      1  0.4647620000000  0.5802650000000  0.4390500000000 1.0
C      1  0.4598530000000  0.4886620000000  0.4236440000000 1.0
C      1  0.5042990000000  0.5665730000000  0.4782800000000 1.0
C      1  0.4044640000000  0.4898200000000  0.4523480000000 1.0
C      1  0.4941830000000  0.4042070000000  0.5365330000000 1.0
C      1  0.4074160000000  0.4771750000000  0.5237050000000 1.0
C      1  0.4263040000000  0.5089500000000  0.5013790000000 1.0
C      1  0.4730980000000  0.4224910000000  0.4987420000000 1.0
C      1  0.3897390000000  0.4880350000000  0.4761800000000 1.0
C      1  0.5362200000000  0.5755790000000  0.4565840000000 1.0
C      1  0.5544860000000  0.5964010000000  0.5081300000000 1.0
C      1  0.4015060000000  0.5165250000000  0.5247820000000 1.0
C      1  0.5064400000000  0.4035280000000  0.4615380000000 1.0
C      1  0.4180740000000  0.5123880000000  0.4429500000000 1.0
C      1  0.5111210000000  0.5076550000000  0.5158400000000 1.0
C      1  0.6139990000000  0.5163110000000  0.4839310000000 1.0
C      1  0.5156160000000  0.5664590000000  0.5273630000000 1.0
C      1  0.4400880000000  0.5460690000000  0.5003070000000 1.0
C      1  0.4990600000000  0.4931900000000  0.4556230000000 1.0
C      1  0.5690100000000  0.5369970000000  0.4219990000000 1.0
C      1  0.5391520000000  0.4340380000000  0.5434930000000 1.0
C      1  0.4691040000000  0.5812460000000  0.5129580000000 1.0
C      1  0.5301420000000  0.4569820000000  0.5227360000000 1.0
C      1  0.5549530000000  0.5111170000000  0.4104900000000 1.0
C      1  0.4776830000000  0.5364720000000  0.5453380000000 1.0
C      1  0.4717400000000  0.4892850000000  0.5454470000000 1.0
C      1  0.5269210000000  0.6077940000000  0.4998930000000 1.0
C      1  0.4319960000000  0.5569700000000  0.4746590000000 1.0
C      1  0.5282650000000  0.4054520000000  0.5348030000000 1.0
C      1  0.6035020000000  0.4656180000000  0.4747920000000 1.0
C      1  0.5871570000000  0.4391440000000  0.4696870000000 1.0
C      1  0.4412030000000  0.4256510000000  0.4616750000000 1.0
C      1  0.6018610000000  0.5329010000000  0.5110040000000 1.0
C      1  0.4900870000000  0.5973290000000  0.5337330000000 1.0
C      1  0.5523270000000  0.4083350000000  0.4880640000000 1.0
C      1  0.5351540000000  0.4596320000000  0.4574700000000 1.0
C      1  0.5747560000000  0.5995710000000  0.4889520000000 1.0
C      1  0.4273700000000  0.5542480000000  0.5579220000000 1.0
C      1  0.4512380000000  0.4676940000000  0.5345210000000 1.0
C      1  0.4310060000000  0.4311870000000  0.5209720000000 1.0
C      1  0.4524000000000  0.4249200000000  0.5602240000000 1.0
C      1  0.4003400000000  0.5504790000000  0.5038810000000 1.0
C      1  0.4567870000000  0.4487650000000  0.4190600000000 1.0
C      1  0.4502120000000  0.4065520000000  0.4824730000000 1.0
C      1  0.5381460000000  0.5398810000000  0.5820340000000 1.0
C      1  0.5247240000000  0.4232620000000  0.4401970000000 1.0
C      1  0.4507720000000  0.4155840000000  0.5213710000000 1.0
C      1  0.5806190000000  0.5255140000000  0.5570710000000 1.0
C      1  0.5692160000000  0.5429060000000  0.5080360000000 1.0
END
