TITL C-2778424-3986-1352 0.00602519287399096 125000 -549.131731908124 0 0 98 (C1) n - 1
REM
REM in /home/nfs/bkarasulu/CARBON/AIRSS/Generating-Clusters/REBO/Only-C1/SD-CG/HFTN-CG
REM
REM
REM
REM
REM
REM ./C.cell (11c1c37f851c82e70ff6c80c92926a4b)
REM
REM compiler GCC version 9.2.1 20190827 (Red Hat 9.2.1-1)
REM options -cpp -mtune=generic -march=x86-64 -g -O0 -fpre-include=/usr/include/finclude/math-vector-fortran.h
REM seed 405892065 1111124856 -677849278 121456093 -27450497 -1210972901 -1043957139 -995655292 -1856102767 1324707603 1447661513 269147144 717425270 -77215303 -622872769 -1288110073 -907798269 -2043415477 -1220499473 174361601 1204248119 1885230170 -410621450 617402563 -250786263 1540776306 -896418114 -676097965 311437491 684501343 -1476920654 127002682 202141676
REM
CELL 1.54180   50.00000   50.00000   50.00000   90.00000   90.00000   90.00000
LATT -1
SFAC C  
C      1  0.4705180000000  0.4810020000000  0.4888320000000 1.0
C      1  0.4759030000000  0.4130160000000  0.5364830000000 1.0
C      1  0.4459780000000  0.4227110000000  0.5115670000000 1.0
C      1  0.4732450000000  0.4911140000000  0.4418730000000 1.0
C      1  0.5292630000000  0.4380080000000  0.4511800000000 1.0
C      1  0.4809710000000  0.4023420000000  0.4596400000000 1.0
C      1  0.4513020000000  0.4462580000000  0.4321220000000 1.0
C      1  0.5216940000000  0.4767280000000  0.5687860000000 1.0
C      1  0.5446120000000  0.4838090000000  0.4845470000000 1.0
C      1  0.5448540000000  0.4960320000000  0.4302570000000 1.0
C      1  0.4585840000000  0.5436850000000  0.4423200000000 1.0
C      1  0.4314950000000  0.4288140000000  0.4749840000000 1.0
C      1  0.5471890000000  0.5640530000000  0.5015220000000 1.0
C      1  0.4969880000000  0.4827850000000  0.5782190000000 1.0
C      1  0.4857540000000  0.5527990000000  0.4925540000000 1.0
C      1  0.4673340000000  0.5763340000000  0.5338630000000 1.0
C      1  0.5587510000000  0.5579550000000  0.5617420000000 1.0
C      1  0.5099290000000  0.5605120000000  0.5754340000000 1.0
C      1  0.4573380000000  0.5166290000000  0.5009470000000 1.0
C      1  0.5422160000000  0.5410940000000  0.4561840000000 1.0
C      1  0.5166980000000  0.4981480000000  0.4755970000000 1.0
C      1  0.5253430000000  0.5144030000000  0.5568150000000 1.0
C      1  0.4871290000000  0.4281160000000  0.4809970000000 1.0
C      1  0.4998890000000  0.4439100000000  0.5040620000000 1.0
C      1  0.4558970000000  0.5352230000000  0.4150350000000 1.0
C      1  0.5056390000000  0.5730090000000  0.4749940000000 1.0
C      1  0.5197170000000  0.5780870000000  0.5503250000000 1.0
C      1  0.4717940000000  0.5781210000000  0.4772060000000 1.0
C      1  0.4470750000000  0.5053260000000  0.4400420000000 1.0
C      1  0.4404580000000  0.5223510000000  0.5553630000000 1.0
C      1  0.5725260000000  0.4655880000000  0.5273030000000 1.0
C      1  0.5690400000000  0.5004970000000  0.4764280000000 1.0
C      1  0.5307190000000  0.4930590000000  0.5125390000000 1.0
C      1  0.4521090000000  0.4558900000000  0.5139020000000 1.0
C      1  0.5269430000000  0.4741890000000  0.4118630000000 1.0
C      1  0.4183700000000  0.4396730000000  0.5005600000000 1.0
C      1  0.4588000000000  0.5658580000000  0.5064120000000 1.0
C      1  0.5268750000000  0.5824240000000  0.4952790000000 1.0
C      1  0.5014590000000  0.5071820000000  0.5377130000000 1.0
C      1  0.5356160000000  0.4778340000000  0.5376670000000 1.0
C      1  0.4816590000000  0.4657320000000  0.5123800000000 1.0
C      1  0.4888160000000  0.4862200000000  0.4684980000000 1.0
C      1  0.4817140000000  0.5240160000000  0.4879570000000 1.0
C      1  0.5237550000000  0.5096610000000  0.5913080000000 1.0
C      1  0.5876550000000  0.4795270000000  0.5489740000000 1.0
C      1  0.5217780000000  0.4514850000000  0.4218590000000 1.0
C      1  0.5542360000000  0.6083300000000  0.5316500000000 1.0
C      1  0.5188270000000  0.5621790000000  0.4492260000000 1.0
C      1  0.5074260000000  0.5334380000000  0.5868800000000 1.0
C      1  0.5472460000000  0.4671860000000  0.4482850000000 1.0
C      1  0.5653480000000  0.5297510000000  0.4363970000000 1.0
C      1  0.4973680000000  0.5206920000000  0.4302700000000 1.0
C      1  0.5467450000000  0.4475110000000  0.5279470000000 1.0
C      1  0.5187910000000  0.5429260000000  0.4239910000000 1.0
C      1  0.5052790000000  0.5113790000000  0.5047900000000 1.0
C      1  0.5704410000000  0.5243280000000  0.4919410000000 1.0
C      1  0.5565470000000  0.5093700000000  0.5694840000000 1.0
C      1  0.4813550000000  0.5038010000000  0.3840080000000 1.0
C      1  0.4707640000000  0.4647420000000  0.4263270000000 1.0
C      1  0.5704160000000  0.4921870000000  0.5153140000000 1.0
C      1  0.4076060000000  0.4899170000000  0.5554000000000 1.0
C      1  0.4268360000000  0.4737600000000  0.4629810000000 1.0
C      1  0.4894300000000  0.5629500000000  0.5490910000000 1.0
C      1  0.5733880000000  0.5033800000000  0.4483730000000 1.0
C      1  0.5426910000000  0.5835530000000  0.5360280000000 1.0
C      1  0.5194210000000  0.4103300000000  0.4958920000000 1.0
C      1  0.5432000000000  0.4532180000000  0.4783320000000 1.0
C      1  0.4361750000000  0.5184240000000  0.5241780000000 1.0
C      1  0.4547380000000  0.4375290000000  0.5414440000000 1.0
C      1  0.5334000000000  0.4394400000000  0.5027390000000 1.0
C      1  0.4778270000000  0.5184940000000  0.4068590000000 1.0
C      1  0.4579950000000  0.4124310000000  0.4826960000000 1.0
C      1  0.4783290000000  0.5228390000000  0.4572260000000 1.0
C      1  0.4890430000000  0.4778220000000  0.5393340000000 1.0
C      1  0.4105240000000  0.5549510000000  0.4978990000000 1.0
C      1  0.4549740000000  0.4706370000000  0.5508640000000 1.0
C      1  0.4637140000000  0.5158650000000  0.5676000000000 1.0
C      1  0.5740850000000  0.5250000000000  0.5241200000000 1.0
C      1  0.4890270000000  0.5308070000000  0.5590010000000 1.0
C      1  0.4950410000000  0.4133580000000  0.5173020000000 1.0
C      1  0.4808520000000  0.4358610000000  0.5715910000000 1.0
C      1  0.4434680000000  0.4844170000000  0.4820370000000 1.0
C      1  0.5445370000000  0.5379510000000  0.5727510000000 1.0
C      1  0.5238420000000  0.5136040000000  0.4505140000000 1.0
C      1  0.5618830000000  0.5562410000000  0.5294030000000 1.0
C      1  0.5542260000000  0.5450520000000  0.4827830000000 1.0
C      1  0.5223860000000  0.6067170000000  0.5076890000000 1.0
C      1  0.5273730000000  0.4469740000000  0.5541280000000 1.0
C      1  0.5780340000000  0.5063740000000  0.5518740000000 1.0
C      1  0.5122720000000  0.4154880000000  0.4629810000000 1.0
C      1  0.4292240000000  0.4878980000000  0.5368810000000 1.0
C      1  0.5426220000000  0.5282060000000  0.4158280000000 1.0
C      1  0.4695950000000  0.4884810000000  0.5721660000000 1.0
C      1  0.4325600000000  0.4473350000000  0.4535370000000 1.0
C      1  0.4337510000000  0.5477410000000  0.5083780000000 1.0
C      1  0.4222930000000  0.4687490000000  0.5119650000000 1.0
C      1  0.4954280000000  0.4503500000000  0.5548940000000 1.0
C      1  0.4560340000000  0.5688240000000  0.4526000000000 1.0
END
