TITL C-2778432-5617-194 -0.00193211266806882 125000 -581.992097646234 0 0 100 (C1) n - 1
REM
REM in /home/nfs/bkarasulu/CARBON/AIRSS/Generating-Clusters/REBO/Only-C1/SD-CG/HFTN-CG
REM
REM
REM
REM
REM
REM ./C.cell (11c1c37f851c82e70ff6c80c92926a4b)
REM
REM compiler GCC version 9.2.1 20190827 (Red Hat 9.2.1-1)
REM options -cpp -mtune=generic -march=x86-64 -g -O0 -fpre-include=/usr/include/finclude/math-vector-fortran.h
REM seed 756731027 -1598376066 2112469794 -92994585 -1892654699 148018105 876603998 -653069167 -1776078389 1265332123 299199858 676320324 123897202 1360965994 -1247919697 -791685034 631558453 258096331 -634270775 307557571 139106911 884024304 -578113549 391794906 -15764552 -1337304431 354094608 894119324 68775940 -1251895006 -620895152 1442837962 1082232713
REM
CELL 1.54180   50.00000   50.00000   50.00000   90.00000   90.00000   90.00000
LATT -1
SFAC C  
C      1  0.5086580000000  0.5823840000000  0.5129030000000 1.0
C      1  0.5217240000000  0.4298510000000  0.5014820000000 1.0
C      1  0.4606390000000  0.5922940000000  0.5081280000000 1.0
C      1  0.4623520000000  0.5726780000000  0.4644050000000 1.0
C      1  0.6070600000000  0.4409810000000  0.4919110000000 1.0
C      1  0.5503570000000  0.4974670000000  0.5425020000000 1.0
C      1  0.4716610000000  0.5388740000000  0.5034120000000 1.0
C      1  0.5816600000000  0.5285040000000  0.4988230000000 1.0
C      1  0.4099470000000  0.4424690000000  0.4847860000000 1.0
C      1  0.5113720000000  0.5381090000000  0.4291140000000 1.0
C      1  0.4283580000000  0.5148300000000  0.5320560000000 1.0
C      1  0.4965640000000  0.4788120000000  0.5670620000000 1.0
C      1  0.4797340000000  0.5676990000000  0.5188010000000 1.0
C      1  0.4980870000000  0.5137920000000  0.4167630000000 1.0
C      1  0.4708180000000  0.4380860000000  0.4803210000000 1.0
C      1  0.5293920000000  0.4565360000000  0.5667870000000 1.0
C      1  0.4646900000000  0.4482090000000  0.4510400000000 1.0
C      1  0.4895790000000  0.5761680000000  0.4565240000000 1.0
C      1  0.4458430000000  0.5819690000000  0.4863150000000 1.0
C      1  0.4642600000000  0.5062870000000  0.4538920000000 1.0
C      1  0.5590910000000  0.5539650000000  0.4438050000000 1.0
C      1  0.5482350000000  0.4387400000000  0.5756950000000 1.0
C      1  0.5778040000000  0.4812130000000  0.4876400000000 1.0
C      1  0.5570780000000  0.5294640000000  0.5519230000000 1.0
C      1  0.4443290000000  0.4694310000000  0.5552480000000 1.0
C      1  0.5617860000000  0.4455580000000  0.5122060000000 1.0
C      1  0.5211830000000  0.5273240000000  0.4590960000000 1.0
C      1  0.4477230000000  0.5287200000000  0.5502240000000 1.0
C      1  0.4667170000000  0.4691920000000  0.4900820000000 1.0
C      1  0.4924020000000  0.4141930000000  0.5332430000000 1.0
C      1  0.4734510000000  0.5401130000000  0.5354650000000 1.0
C      1  0.5484360000000  0.5346500000000  0.5020130000000 1.0
C      1  0.5378290000000  0.5897930000000  0.4970310000000 1.0
C      1  0.4795340000000  0.4321730000000  0.5567300000000 1.0
C      1  0.4395380000000  0.4627170000000  0.4513110000000 1.0
C      1  0.4765100000000  0.5273500000000  0.5727230000000 1.0
C      1  0.5456840000000  0.4150170000000  0.5436290000000 1.0
C      1  0.5248980000000  0.4758990000000  0.5391020000000 1.0
C      1  0.4177510000000  0.4714250000000  0.5126030000000 1.0
C      1  0.5770950000000  0.4827400000000  0.5450340000000 1.0
C      1  0.4503750000000  0.5123500000000  0.5788310000000 1.0
C      1  0.5492110000000  0.5514140000000  0.5318610000000 1.0
C      1  0.5628750000000  0.5713790000000  0.5079570000000 1.0
C      1  0.4144080000000  0.4646680000000  0.4677370000000 1.0
C      1  0.4978600000000  0.5274400000000  0.5506460000000 1.0
C      1  0.4749490000000  0.5284440000000  0.4744300000000 1.0
C      1  0.5326550000000  0.5563880000000  0.4573810000000 1.0
C      1  0.5268300000000  0.5570470000000  0.4992240000000 1.0
C      1  0.4097390000000  0.4909310000000  0.4784110000000 1.0
C      1  0.5172320000000  0.4615810000000  0.4521690000000 1.0
C      1  0.5062380000000  0.4596130000000  0.5077280000000 1.0
C      1  0.4959290000000  0.5645080000000  0.4319990000000 1.0
C      1  0.4968550000000  0.4480550000000  0.5713300000000 1.0
C      1  0.4991290000000  0.5085280000000  0.4732520000000 1.0
C      1  0.5239540000000  0.4372050000000  0.4682800000000 1.0
C      1  0.4984440000000  0.4194130000000  0.4795190000000 1.0
C      1  0.4184530000000  0.5373590000000  0.4631010000000 1.0
C      1  0.4915830000000  0.4829740000000  0.5366490000000 1.0
C      1  0.5209770000000  0.5143300000000  0.5491810000000 1.0
C      1  0.4819250000000  0.4431040000000  0.5184160000000 1.0
C      1  0.5455470000000  0.5071290000000  0.4141880000000 1.0
C      1  0.4298350000000  0.5330610000000  0.4340380000000 1.0
C      1  0.4517520000000  0.5440720000000  0.4576140000000 1.0
C      1  0.4418900000000  0.5334690000000  0.4961580000000 1.0
C      1  0.5688590000000  0.4945070000000  0.4085030000000 1.0
C      1  0.4270260000000  0.5612560000000  0.4936140000000 1.0
C      1  0.4738080000000  0.5064100000000  0.4287600000000 1.0
C      1  0.4484590000000  0.4369320000000  0.5198750000000 1.0
C      1  0.5976380000000  0.4939070000000  0.5287790000000 1.0
C      1  0.5434820000000  0.5335600000000  0.4264880000000 1.0
C      1  0.4869760000000  0.4570950000000  0.4370780000000 1.0
C      1  0.4759710000000  0.4132170000000  0.5033560000000 1.0
C      1  0.5372840000000  0.5137680000000  0.4835880000000 1.0
C      1  0.5122160000000  0.4681820000000  0.4202490000000 1.0
C      1  0.5381670000000  0.4650400000000  0.5105250000000 1.0
C      1  0.5651640000000  0.4351450000000  0.5385800000000 1.0
C      1  0.4359980000000  0.4853410000000  0.5290070000000 1.0
C      1  0.5477320000000  0.4839380000000  0.4886230000000 1.0
C      1  0.4320340000000  0.5089650000000  0.4876250000000 1.0
C      1  0.4487280000000  0.4861680000000  0.4710210000000 1.0
C      1  0.4552890000000  0.4443560000000  0.5481980000000 1.0
C      1  0.4265050000000  0.4333210000000  0.5042100000000 1.0
C      1  0.5187880000000  0.4944500000000  0.4115320000000 1.0
C      1  0.4445910000000  0.4850090000000  0.5786020000000 1.0
C      1  0.5156610000000  0.5775210000000  0.4738820000000 1.0
C      1  0.5270070000000  0.5654790000000  0.5428890000000 1.0
C      1  0.4865250000000  0.6060970000000  0.5110160000000 1.0
C      1  0.4030350000000  0.5391870000000  0.4901770000000 1.0
C      1  0.4676550000000  0.4803390000000  0.5212140000000 1.0
C      1  0.5398510000000  0.5142380000000  0.5768330000000 1.0
C      1  0.5912330000000  0.5021160000000  0.5019960000000 1.0
C      1  0.5232040000000  0.4135280000000  0.5283660000000 1.0
C      1  0.4082440000000  0.5244360000000  0.5157710000000 1.0
C      1  0.5837100000000  0.4540540000000  0.4957410000000 1.0
C      1  0.5773770000000  0.4557270000000  0.5544290000000 1.0
C      1  0.5805400000000  0.5607870000000  0.4610430000000 1.0
C      1  0.5244890000000  0.4869360000000  0.4658160000000 1.0
C      1  0.4948780000000  0.4837400000000  0.4922260000000 1.0
C      1  0.5242300000000  0.4881660000000  0.5789650000000 1.0
C      1  0.5791720000000  0.5569440000000  0.4894930000000 1.0
END
