TITL C-2778434-4341-821 -0.00163856901613186 125000 -815.707635470877 0 0 140 (C1) n - 1
REM
REM in /home/nfs/bkarasulu/CARBON/AIRSS/Generating-Clusters/REBO/Only-C1/SD-CG/HFTN-CG
REM
REM
REM
REM
REM
REM ./C.cell (11c1c37f851c82e70ff6c80c92926a4b)
REM
REM compiler GCC version 9.2.1 20190827 (Red Hat 9.2.1-1)
REM options -cpp -mtune=generic -march=x86-64 -g -O0 -fpre-include=/usr/include/finclude/math-vector-fortran.h
REM seed 1232467902 258201607 -1791093303 -1508707602 255985491 2044110539 839846812 -2069289955 1748047475 -715542667 -1906455059 -1918866606 424355655 1720129490 1017612175 -874951453 -742769809 -125154184 -727292928 -1801904891 -1564914549 -40596426 -1922431636 -1449735417 -1403802668 -385832104 1622745433 658660412 -1024069427 2081679392 1811676049 1124608175 -670749640
REM
CELL 1.54180   50.00000   50.00000   50.00000   90.00000   90.00000   90.00000
LATT -1
SFAC C  
C      1  0.5414570000000  0.5740050000000  0.5460780000000 1.0
C      1  0.5479920000000  0.5251590000000  0.4318170000000 1.0
C      1  0.4688150000000  0.4646470000000  0.4047350000000 1.0
C      1  0.4229930000000  0.5305130000000  0.4466390000000 1.0
C      1  0.5302970000000  0.3926680000000  0.5605850000000 1.0
C      1  0.5636160000000  0.4932510000000  0.4137270000000 1.0
C      1  0.4604460000000  0.5154800000000  0.5947900000000 1.0
C      1  0.4636720000000  0.4955580000000  0.4467470000000 1.0
C      1  0.4804030000000  0.5457130000000  0.5017250000000 1.0
C      1  0.4806470000000  0.5654050000000  0.5498720000000 1.0
C      1  0.4712300000000  0.5451870000000  0.4513410000000 1.0
C      1  0.4312550000000  0.4337190000000  0.5069930000000 1.0
C      1  0.4498750000000  0.5800450000000  0.4896950000000 1.0
C      1  0.5156700000000  0.5712300000000  0.4496230000000 1.0
C      1  0.5580880000000  0.4433050000000  0.4819390000000 1.0
C      1  0.4837210000000  0.5314630000000  0.4749620000000 1.0
C      1  0.4497330000000  0.5188110000000  0.4992200000000 1.0
C      1  0.5882090000000  0.5537980000000  0.5051350000000 1.0
C      1  0.5727780000000  0.5454680000000  0.4694540000000 1.0
C      1  0.4815040000000  0.5129200000000  0.5102360000000 1.0
C      1  0.4398240000000  0.4751620000000  0.5757710000000 1.0
C      1  0.5543620000000  0.4815120000000  0.4920970000000 1.0
C      1  0.5488210000000  0.4160640000000  0.5182090000000 1.0
C      1  0.5445740000000  0.5923330000000  0.4880850000000 1.0
C      1  0.5381830000000  0.5215420000000  0.5344560000000 1.0
C      1  0.5393920000000  0.5014940000000  0.4007540000000 1.0
C      1  0.4718660000000  0.5725610000000  0.4471480000000 1.0
C      1  0.4370130000000  0.5496280000000  0.4940560000000 1.0
C      1  0.4863860000000  0.5853910000000  0.4264440000000 1.0
C      1  0.4544630000000  0.5260680000000  0.4383070000000 1.0
C      1  0.4322660000000  0.4336940000000  0.4765420000000 1.0
C      1  0.4698770000000  0.5878050000000  0.4719910000000 1.0
C      1  0.5431040000000  0.5724770000000  0.4318140000000 1.0
C      1  0.4845290000000  0.4008350000000  0.4796740000000 1.0
C      1  0.4318480000000  0.5055190000000  0.4248410000000 1.0
C      1  0.5425560000000  0.4527640000000  0.5334940000000 1.0
C      1  0.4780380000000  0.4977560000000  0.4753910000000 1.0
C      1  0.5694450000000  0.4331920000000  0.5077080000000 1.0
C      1  0.5554890000000  0.5179800000000  0.5772040000000 1.0
C      1  0.5094320000000  0.6193120000000  0.5059860000000 1.0
C      1  0.4540460000000  0.4091760000000  0.4858310000000 1.0
C      1  0.4124800000000  0.4501140000000  0.5193910000000 1.0
C      1  0.5073270000000  0.5396890000000  0.5784430000000 1.0
C      1  0.4486770000000  0.4726430000000  0.4854310000000 1.0
C      1  0.4651400000000  0.4407700000000  0.4178250000000 1.0
C      1  0.5368450000000  0.4982260000000  0.4426210000000 1.0
C      1  0.4021880000000  0.4745640000000  0.5211830000000 1.0
C      1  0.5453550000000  0.5482350000000  0.4159820000000 1.0
C      1  0.5478390000000  0.4417260000000  0.5646080000000 1.0
C      1  0.4367220000000  0.5063390000000  0.5807020000000 1.0
C      1  0.5337580000000  0.4820650000000  0.5963520000000 1.0
C      1  0.4627060000000  0.4458890000000  0.5352540000000 1.0
C      1  0.5629590000000  0.5185550000000  0.5212240000000 1.0
C      1  0.5207930000000  0.4715840000000  0.4379210000000 1.0
C      1  0.5165110000000  0.4937380000000  0.5083140000000 1.0
C      1  0.5687480000000  0.5692740000000  0.5284240000000 1.0
C      1  0.5193430000000  0.5542900000000  0.5035660000000 1.0
C      1  0.5475700000000  0.4687210000000  0.5757800000000 1.0
C      1  0.4835370000000  0.4867940000000  0.4132910000000 1.0
C      1  0.4304010000000  0.4976610000000  0.4807740000000 1.0
C      1  0.5041260000000  0.4239100000000  0.4730920000000 1.0
C      1  0.5686670000000  0.5733090000000  0.4850000000000 1.0
C      1  0.5196850000000  0.5485480000000  0.4704010000000 1.0
C      1  0.5130860000000  0.5228080000000  0.5016110000000 1.0
C      1  0.5151970000000  0.4367030000000  0.5294350000000 1.0
C      1  0.4852760000000  0.4035320000000  0.5276650000000 1.0
C      1  0.5079030000000  0.4405890000000  0.5004750000000 1.0
C      1  0.5364780000000  0.4222660000000  0.4681940000000 1.0
C      1  0.5331970000000  0.5437740000000  0.5564510000000 1.0
C      1  0.4416330000000  0.4474200000000  0.5583760000000 1.0
C      1  0.5361510000000  0.4160750000000  0.5473030000000 1.0
C      1  0.4606960000000  0.4884270000000  0.5545150000000 1.0
C      1  0.4153680000000  0.5032880000000  0.5316310000000 1.0
C      1  0.4759990000000  0.5956460000000  0.5370430000000 1.0
C      1  0.4277230000000  0.4524760000000  0.4577750000000 1.0
C      1  0.4959220000000  0.6136740000000  0.5289220000000 1.0
C      1  0.4559990000000  0.4705270000000  0.5165140000000 1.0
C      1  0.5854920000000  0.5046660000000  0.5061440000000 1.0
C      1  0.4593680000000  0.4185260000000  0.5181230000000 1.0
C      1  0.4525770000000  0.5477710000000  0.5579970000000 1.0
C      1  0.4298010000000  0.5226840000000  0.5541900000000 1.0
C      1  0.4857520000000  0.4935560000000  0.5338410000000 1.0
C      1  0.5231320000000  0.5126930000000  0.5860830000000 1.0
C      1  0.5652930000000  0.4710310000000  0.5197320000000 1.0
C      1  0.4627630000000  0.5611730000000  0.5221630000000 1.0
C      1  0.5070110000000  0.5671610000000  0.4155500000000 1.0
C      1  0.4520150000000  0.4531930000000  0.5964930000000 1.0
C      1  0.5021710000000  0.4855080000000  0.5902410000000 1.0
C      1  0.6018620000000  0.4809490000000  0.5076750000000 1.0
C      1  0.5941960000000  0.5263320000000  0.4862070000000 1.0
C      1  0.5203400000000  0.5706500000000  0.5725580000000 1.0
C      1  0.4935520000000  0.4598470000000  0.5739660000000 1.0
C      1  0.4531250000000  0.5926190000000  0.5169980000000 1.0
C      1  0.5026910000000  0.3994370000000  0.5045570000000 1.0
C      1  0.4851290000000  0.5098060000000  0.5638690000000 1.0
C      1  0.5095050000000  0.5168260000000  0.4627470000000 1.0
C      1  0.5013450000000  0.5961730000000  0.4619130000000 1.0
C      1  0.5288560000000  0.4831290000000  0.5300160000000 1.0
C      1  0.5464560000000  0.5315740000000  0.4624630000000 1.0
C      1  0.5843460000000  0.5162930000000  0.4552020000000 1.0
C      1  0.4990170000000  0.4774070000000  0.4878720000000 1.0
C      1  0.5495450000000  0.4868980000000  0.5528110000000 1.0
C      1  0.5424510000000  0.4476890000000  0.4460180000000 1.0
C      1  0.4151280000000  0.5397410000000  0.4725640000000 1.0
C      1  0.4784310000000  0.4407160000000  0.4474630000000 1.0
C      1  0.4364480000000  0.5433180000000  0.5278280000000 1.0
C      1  0.4754230000000  0.5371980000000  0.5777470000000 1.0
C      1  0.4804570000000  0.4144910000000  0.5794460000000 1.0
C      1  0.4553340000000  0.5121520000000  0.4010090000000 1.0
C      1  0.4531330000000  0.3978350000000  0.4551090000000 1.0
C      1  0.4951810000000  0.6140300000000  0.4337950000000 1.0
C      1  0.5760770000000  0.5171980000000  0.5587250000000 1.0
C      1  0.5288300000000  0.4609710000000  0.4853880000000 1.0
C      1  0.4656800000000  0.4545950000000  0.4700240000000 1.0
C      1  0.5827050000000  0.5408480000000  0.5363210000000 1.0
C      1  0.5150750000000  0.5185220000000  0.3944750000000 1.0
C      1  0.5091060000000  0.4421550000000  0.4469850000000 1.0
C      1  0.4330320000000  0.4828210000000  0.4502240000000 1.0
C      1  0.4923510000000  0.4494070000000  0.5463890000000 1.0
C      1  0.5790550000000  0.4904340000000  0.5440970000000 1.0
C      1  0.4973700000000  0.4933020000000  0.4413820000000 1.0
C      1  0.4991430000000  0.5469150000000  0.5299640000000 1.0
C      1  0.4775120000000  0.4969090000000  0.6056240000000 1.0
C      1  0.4044480000000  0.5000330000000  0.4998330000000 1.0
C      1  0.4768540000000  0.4412200000000  0.5889550000000 1.0
C      1  0.5400050000000  0.5738720000000  0.5128050000000 1.0
C      1  0.4868670000000  0.5103990000000  0.3956500000000 1.0
C      1  0.5302600000000  0.4075130000000  0.4983870000000 1.0
C      1  0.4801520000000  0.4540510000000  0.5002890000000 1.0
C      1  0.3947900000000  0.5255780000000  0.4849270000000 1.0
C      1  0.4872850000000  0.4025430000000  0.5557490000000 1.0
C      1  0.5380540000000  0.5030430000000  0.4759440000000 1.0
C      1  0.5637090000000  0.4697670000000  0.4610050000000 1.0
C      1  0.5922780000000  0.4523580000000  0.5150960000000 1.0
C      1  0.4613080000000  0.4148140000000  0.4358710000000 1.0
C      1  0.5208500000000  0.6072040000000  0.4831960000000 1.0
C      1  0.5204290000000  0.5461760000000  0.4006560000000 1.0
C      1  0.5067630000000  0.5186010000000  0.5407100000000 1.0
C      1  0.4468570000000  0.4990860000000  0.5267660000000 1.0
C      1  0.5759060000000  0.4921350000000  0.4415640000000 1.0
END
