TITL C-2778428-5639-387 -0.152319074862083 125000 -723.983854948367 0 0 124 (C1) n - 1
REM
REM in /home/nfs/bkarasulu/CARBON/AIRSS/Generating-Clusters/REBO/Only-C1/SD-CG/HFTN-CG
REM
REM
REM
REM
REM
REM ./C.cell (11c1c37f851c82e70ff6c80c92926a4b)
REM
REM compiler GCC version 9.2.1 20190827 (Red Hat 9.2.1-1)
REM options -cpp -mtune=generic -march=x86-64 -g -O0 -fpre-include=/usr/include/finclude/math-vector-fortran.h
REM seed -402180950 1680313515 -493099616 -1808070339 -1450142324 252231609 -967037345 2126949552 -1863635360 -397467957 -1026595859 1560518578 1662589201 -1606676692 756361233 -1784350487 469189536 500360384 -138421692 2119041858 1308291251 2056857731 267865461 -1617591537 963924182 1028765544 -675158716 -1118911472 1451153292 227750685 -1412781893 -1350899648 -383592702
REM
CELL 1.54180   50.00000   50.00000   50.00000   90.00000   90.00000   90.00000
LATT -1
SFAC C  
C      1  0.5036510000000  0.5625780000000  0.4787050000000 1.0
C      1  0.4705330000000  0.4789080000000  0.4937550000000 1.0
C      1  0.5238310000000  0.4749860000000  0.4259970000000 1.0
C      1  0.5664790000000  0.4319140000000  0.4737340000000 1.0
C      1  0.4960290000000  0.4542590000000  0.4635440000000 1.0
C      1  0.4856180000000  0.4960440000000  0.6211430000000 1.0
C      1  0.4173970000000  0.5003140000000  0.4543020000000 1.0
C      1  0.4892550000000  0.5882090000000  0.4736320000000 1.0
C      1  0.5127660000000  0.4349950000000  0.4854410000000 1.0
C      1  0.4845980000000  0.5404260000000  0.4761620000000 1.0
C      1  0.4505970000000  0.4693610000000  0.5615150000000 1.0
C      1  0.4952700000000  0.4956410000000  0.5956870000000 1.0
C      1  0.5126910000000  0.5749900000000  0.4324750000000 1.0
C      1  0.4845560000000  0.4428530000000  0.5865010000000 1.0
C      1  0.4927420000000  0.4217120000000  0.4538200000000 1.0
C      1  0.4476620000000  0.4674900000000  0.4339060000000 1.0
C      1  0.5574600000000  0.4848850000000  0.4762720000000 1.0
C      1  0.5373030000000  0.5037520000000  0.5645520000000 1.0
C      1  0.4138340000000  0.5158940000000  0.5269540000000 1.0
C      1  0.4963560000000  0.4731120000000  0.4103380000000 1.0
C      1  0.5078570000000  0.5337520000000  0.5073910000000 1.0
C      1  0.5743950000000  0.4301550000000  0.5010720000000 1.0
C      1  0.5733660000000  0.4533940000000  0.5159880000000 1.0
C      1  0.5015980000000  0.4872530000000  0.4701850000000 1.0
C      1  0.4120480000000  0.5259490000000  0.4999800000000 1.0
C      1  0.5378040000000  0.4443380000000  0.5314950000000 1.0
C      1  0.4121460000000  0.4871500000000  0.5314890000000 1.0
C      1  0.5894640000000  0.5180870000000  0.5196290000000 1.0
C      1  0.4037090000000  0.5098610000000  0.4775470000000 1.0
C      1  0.5032330000000  0.5233400000000  0.5578390000000 1.0
C      1  0.4704770000000  0.5842910000000  0.4526510000000 1.0
C      1  0.4747460000000  0.5303090000000  0.5058950000000 1.0
C      1  0.5829660000000  0.4812950000000  0.5061950000000 1.0
C      1  0.5346820000000  0.5448680000000  0.5201120000000 1.0
C      1  0.5211280000000  0.5473980000000  0.5470060000000 1.0
C      1  0.5555550000000  0.5406150000000  0.4470740000000 1.0
C      1  0.4810820000000  0.5274800000000  0.4478000000000 1.0
C      1  0.4291740000000  0.5272470000000  0.5495170000000 1.0
C      1  0.5274320000000  0.5489030000000  0.4331620000000 1.0
C      1  0.4307570000000  0.5463980000000  0.4875090000000 1.0
C      1  0.5370400000000  0.4994900000000  0.4259450000000 1.0
C      1  0.4437830000000  0.5075760000000  0.5726270000000 1.0
C      1  0.4452570000000  0.5662790000000  0.4631680000000 1.0
C      1  0.4258410000000  0.4731500000000  0.4551950000000 1.0
C      1  0.4934490000000  0.5587730000000  0.5734900000000 1.0
C      1  0.5593170000000  0.5253390000000  0.5227700000000 1.0
C      1  0.5971180000000  0.4993840000000  0.5406670000000 1.0
C      1  0.5732720000000  0.4604470000000  0.4621070000000 1.0
C      1  0.4779150000000  0.4287450000000  0.5132810000000 1.0
C      1  0.5268760000000  0.4560020000000  0.5045610000000 1.0
C      1  0.5331200000000  0.5669530000000  0.5628110000000 1.0
C      1  0.4782740000000  0.5844710000000  0.5027850000000 1.0
C      1  0.4955770000000  0.4546410000000  0.3896330000000 1.0
C      1  0.5417410000000  0.5363370000000  0.5868380000000 1.0
C      1  0.4713470000000  0.5032270000000  0.4701300000000 1.0
C      1  0.5163240000000  0.3995160000000  0.5187790000000 1.0
C      1  0.4503250000000  0.4368980000000  0.4300030000000 1.0
C      1  0.5600360000000  0.5095420000000  0.4395790000000 1.0
C      1  0.5237110000000  0.4928630000000  0.5898750000000 1.0
C      1  0.5211460000000  0.4174450000000  0.5407450000000 1.0
C      1  0.5179000000000  0.5139580000000  0.4840120000000 1.0
C      1  0.5530230000000  0.4801750000000  0.5232900000000 1.0
C      1  0.5488740000000  0.5092440000000  0.4943640000000 1.0
C      1  0.4765420000000  0.4977110000000  0.5721810000000 1.0
C      1  0.4472380000000  0.4858340000000  0.5126830000000 1.0
C      1  0.4605400000000  0.4258890000000  0.4530170000000 1.0
C      1  0.4451320000000  0.5424400000000  0.4391840000000 1.0
C      1  0.5641730000000  0.5612810000000  0.5653870000000 1.0
C      1  0.4416580000000  0.5511260000000  0.5412210000000 1.0
C      1  0.5567330000000  0.4584160000000  0.5562710000000 1.0
C      1  0.5271730000000  0.4078790000000  0.4911130000000 1.0
C      1  0.5362630000000  0.4667880000000  0.5791050000000 1.0
C      1  0.5607780000000  0.4459720000000  0.4367990000000 1.0
C      1  0.4878570000000  0.5238260000000  0.4086170000000 1.0
C      1  0.5049270000000  0.5932420000000  0.5214760000000 1.0
C      1  0.5909830000000  0.5061950000000  0.4908070000000 1.0
C      1  0.4557930000000  0.4938440000000  0.5384110000000 1.0
C      1  0.5526000000000  0.5397390000000  0.4794440000000 1.0
C      1  0.4704960000000  0.4481870000000  0.4942200000000 1.0
C      1  0.4699480000000  0.5235710000000  0.5469980000000 1.0
C      1  0.4939350000000  0.5615730000000  0.5216830000000 1.0
C      1  0.4880050000000  0.3995550000000  0.4766460000000 1.0
C      1  0.4507230000000  0.4953800000000  0.4202690000000 1.0
C      1  0.5075780000000  0.4800130000000  0.5087250000000 1.0
C      1  0.5234420000000  0.4177170000000  0.4446060000000 1.0
C      1  0.5427650000000  0.4168840000000  0.4662860000000 1.0
C      1  0.5167840000000  0.5223230000000  0.4202260000000 1.0
C      1  0.4897410000000  0.4044090000000  0.5044810000000 1.0
C      1  0.4674760000000  0.4615210000000  0.5863780000000 1.0
C      1  0.5770030000000  0.5185610000000  0.4677430000000 1.0
C      1  0.5783600000000  0.4786630000000  0.5461580000000 1.0
C      1  0.4557410000000  0.5507130000000  0.5179660000000 1.0
C      1  0.5192640000000  0.5299740000000  0.4593580000000 1.0
C      1  0.5264090000000  0.6042510000000  0.5325870000000 1.0
C      1  0.4804150000000  0.4728040000000  0.4396890000000 1.0
C      1  0.4858560000000  0.5009780000000  0.5134420000000 1.0
C      1  0.4208070000000  0.4712470000000  0.5045420000000 1.0
C      1  0.4980610000000  0.5019120000000  0.4404040000000 1.0
C      1  0.4841810000000  0.5737540000000  0.4298830000000 1.0
C      1  0.4724160000000  0.4315040000000  0.5404600000000 1.0
C      1  0.5172880000000  0.4540930000000  0.5554370000000 1.0
C      1  0.5141450000000  0.5390310000000  0.5853230000000 1.0
C      1  0.4478130000000  0.5268600000000  0.4687210000000 1.0
C      1  0.4492700000000  0.5735060000000  0.4962710000000 1.0
C      1  0.4227180000000  0.4850900000000  0.5588900000000 1.0
C      1  0.5288470000000  0.4833110000000  0.5421090000000 1.0
C      1  0.5556840000000  0.5295360000000  0.5563160000000 1.0
C      1  0.5446180000000  0.5930590000000  0.5511210000000 1.0
C      1  0.5337840000000  0.4562920000000  0.4451630000000 1.0
C      1  0.4962550000000  0.4311150000000  0.5595090000000 1.0
C      1  0.4480440000000  0.4427620000000  0.5472590000000 1.0
C      1  0.4272340000000  0.4572100000000  0.4785790000000 1.0
C      1  0.5332530000000  0.5602150000000  0.4914320000000 1.0
C      1  0.5336480000000  0.5888070000000  0.4759540000000 1.0
C      1  0.4232580000000  0.4339100000000  0.5389570000000 1.0
C      1  0.4755020000000  0.4983260000000  0.4076820000000 1.0
C      1  0.5237560000000  0.5937020000000  0.4508780000000 1.0
C      1  0.5352520000000  0.4649990000000  0.4732810000000 1.0
C      1  0.4500180000000  0.4386510000000  0.4767400000000 1.0
C      1  0.4806430000000  0.5544600000000  0.5487940000000 1.0
C      1  0.4722880000000  0.5468840000000  0.4232710000000 1.0
C      1  0.4332830000000  0.5137460000000  0.4339530000000 1.0
C      1  0.5752710000000  0.5893390000000  0.5570080000000 1.0
C      1  0.4968200000000  0.4945570000000  0.5442580000000 1.0
END
