TITL C-2778433-5640-496 -9.36635524306739e-05 125000 -829.401073825334 0 0 145 (C1) n - 1
REM
REM in /home/nfs/bkarasulu/CARBON/AIRSS/Generating-Clusters/REBO/Only-C1/SD-CG/HFTN-CG
REM
REM
REM
REM
REM
REM ./C.cell (11c1c37f851c82e70ff6c80c92926a4b)
REM
REM compiler GCC version 9.2.1 20190827 (Red Hat 9.2.1-1)
REM options -cpp -mtune=generic -march=x86-64 -g -O0 -fpre-include=/usr/include/finclude/math-vector-fortran.h
REM seed 1255016487 1727870033 1098502553 1207892158 -619589662 -1317489177 823602423 -1557075726 1646456478 -1738137834 -1834890024 213020348 1760719383 -895506095 823740633 -1278088221 1166251009 -1565109433 594873153 1470139645 1555228950 742581563 1119536152 1294366942 -1879833687 775015691 1006678778 554552375 198670621 -298687959 1900590251 -803862066 2089448645
REM
CELL 1.54180   50.00000   50.00000   50.00000   90.00000   90.00000   90.00000
LATT -1
SFAC C  
C      1  0.5640430000000  0.4174520000000  0.5346700000000 1.0
C      1  0.4158170000000  0.4808520000000  0.4436880000000 1.0
C      1  0.4328240000000  0.5444030000000  0.5586360000000 1.0
C      1  0.4252770000000  0.5143940000000  0.5484840000000 1.0
C      1  0.4762860000000  0.5107770000000  0.5521210000000 1.0
C      1  0.4483310000000  0.4289690000000  0.4646480000000 1.0
C      1  0.4961010000000  0.4453730000000  0.4839210000000 1.0
C      1  0.5201460000000  0.4959940000000  0.4644850000000 1.0
C      1  0.4969350000000  0.4040670000000  0.4468990000000 1.0
C      1  0.4895210000000  0.5024070000000  0.5998310000000 1.0
C      1  0.5416920000000  0.5476320000000  0.4821250000000 1.0
C      1  0.5625290000000  0.4785790000000  0.5174370000000 1.0
C      1  0.5158740000000  0.4974490000000  0.5088720000000 1.0
C      1  0.4968400000000  0.5835770000000  0.4696290000000 1.0
C      1  0.5437030000000  0.5768230000000  0.5595670000000 1.0
C      1  0.4551740000000  0.4558450000000  0.5787060000000 1.0
C      1  0.5802590000000  0.5453830000000  0.4923050000000 1.0
C      1  0.4847870000000  0.5468850000000  0.5908480000000 1.0
C      1  0.5641180000000  0.5250880000000  0.5687310000000 1.0
C      1  0.4952240000000  0.4898960000000  0.5328800000000 1.0
C      1  0.4688480000000  0.4881950000000  0.4948460000000 1.0
C      1  0.4973410000000  0.5463540000000  0.5237190000000 1.0
C      1  0.5467430000000  0.4520870000000  0.4793890000000 1.0
C      1  0.4832080000000  0.4595060000000  0.5785980000000 1.0
C      1  0.4319540000000  0.4325740000000  0.5393270000000 1.0
C      1  0.4900180000000  0.3987040000000  0.4795480000000 1.0
C      1  0.5450960000000  0.4516040000000  0.5110350000000 1.0
C      1  0.5015670000000  0.4752220000000  0.5936000000000 1.0
C      1  0.5004240000000  0.4646210000000  0.4498850000000 1.0
C      1  0.4967600000000  0.4540890000000  0.5514350000000 1.0
C      1  0.4792720000000  0.5705580000000  0.4277370000000 1.0
C      1  0.4906350000000  0.5535240000000  0.5513430000000 1.0
C      1  0.5754230000000  0.5556660000000  0.4618350000000 1.0
C      1  0.4740760000000  0.5392720000000  0.4293660000000 1.0
C      1  0.4573250000000  0.5687230000000  0.5340010000000 1.0
C      1  0.5772700000000  0.4513950000000  0.4684440000000 1.0
C      1  0.5227410000000  0.5016510000000  0.4221440000000 1.0
C      1  0.4814990000000  0.5923880000000  0.5385520000000 1.0
C      1  0.4797700000000  0.4882350000000  0.4256460000000 1.0
C      1  0.4637820000000  0.5687330000000  0.5653490000000 1.0
C      1  0.4548970000000  0.4132630000000  0.5280870000000 1.0
C      1  0.4809420000000  0.4306060000000  0.4572030000000 1.0
C      1  0.5839230000000  0.4243080000000  0.5105800000000 1.0
C      1  0.4296910000000  0.5219410000000  0.4793530000000 1.0
C      1  0.4748720000000  0.4585400000000  0.4198880000000 1.0
C      1  0.4425830000000  0.5008700000000  0.4226110000000 1.0
C      1  0.5489120000000  0.5015710000000  0.5031470000000 1.0
C      1  0.5077600000000  0.5697200000000  0.4265380000000 1.0
C      1  0.5836500000000  0.5252090000000  0.4678250000000 1.0
C      1  0.4676210000000  0.5829260000000  0.4517910000000 1.0
C      1  0.4302880000000  0.4802170000000  0.5103870000000 1.0
C      1  0.5368510000000  0.5851710000000  0.5292290000000 1.0
C      1  0.5317190000000  0.4686720000000  0.5822550000000 1.0
C      1  0.4945090000000  0.5830590000000  0.5679920000000 1.0
C      1  0.5515680000000  0.5374350000000  0.4229160000000 1.0
C      1  0.4984380000000  0.5221440000000  0.4161630000000 1.0
C      1  0.5716680000000  0.5728130000000  0.5710930000000 1.0
C      1  0.4347380000000  0.5704410000000  0.4910180000000 1.0
C      1  0.5326590000000  0.4565070000000  0.4115230000000 1.0
C      1  0.4429240000000  0.5418800000000  0.5254790000000 1.0
C      1  0.5108500000000  0.4926770000000  0.5589760000000 1.0
C      1  0.4056390000000  0.5346420000000  0.4901500000000 1.0
C      1  0.4146170000000  0.5537590000000  0.5102620000000 1.0
C      1  0.5171840000000  0.4750020000000  0.4288100000000 1.0
C      1  0.5439610000000  0.4754780000000  0.4583940000000 1.0
C      1  0.4325150000000  0.4913240000000  0.4783080000000 1.0
C      1  0.4459710000000  0.5298540000000  0.4281470000000 1.0
C      1  0.4395560000000  0.5696410000000  0.4588890000000 1.0
C      1  0.4054310000000  0.5409150000000  0.5384630000000 1.0
C      1  0.5102360000000  0.5464360000000  0.4750440000000 1.0
C      1  0.5010650000000  0.4789330000000  0.4872240000000 1.0
C      1  0.4768080000000  0.6108410000000  0.5099630000000 1.0
C      1  0.4576830000000  0.5859990000000  0.5072590000000 1.0
C      1  0.5640620000000  0.4702790000000  0.5717880000000 1.0
C      1  0.4498610000000  0.4727840000000  0.5329160000000 1.0
C      1  0.3965760000000  0.5083920000000  0.5332740000000 1.0
C      1  0.5584150000000  0.4496890000000  0.4413470000000 1.0
C      1  0.5236670000000  0.4327710000000  0.4832860000000 1.0
C      1  0.5815080000000  0.4791750000000  0.5458420000000 1.0
C      1  0.5049940000000  0.3717860000000  0.5505700000000 1.0
C      1  0.5856440000000  0.4802040000000  0.4760660000000 1.0
C      1  0.4298840000000  0.4493730000000  0.4436620000000 1.0
C      1  0.4738130000000  0.4689190000000  0.4601530000000 1.0
C      1  0.5417430000000  0.4218010000000  0.4400440000000 1.0
C      1  0.4807990000000  0.4379860000000  0.5103730000000 1.0
C      1  0.5205690000000  0.5401770000000  0.4319760000000 1.0
C      1  0.5813620000000  0.5472180000000  0.5715640000000 1.0
C      1  0.4990110000000  0.5291380000000  0.5700810000000 1.0
C      1  0.5599450000000  0.5020380000000  0.4707720000000 1.0
C      1  0.5301590000000  0.4208260000000  0.5141850000000 1.0
C      1  0.5375330000000  0.5529810000000  0.5359810000000 1.0
C      1  0.4908170000000  0.5034070000000  0.4505210000000 1.0
C      1  0.4824570000000  0.5471140000000  0.4597610000000 1.0
C      1  0.5481620000000  0.5178660000000  0.5898780000000 1.0
C      1  0.4846060000000  0.4104480000000  0.5288570000000 1.0
C      1  0.4501490000000  0.5039170000000  0.5357200000000 1.0
C      1  0.6022620000000  0.4858670000000  0.4965670000000 1.0
C      1  0.4807330000000  0.5120150000000  0.4784970000000 1.0
C      1  0.5575240000000  0.4475100000000  0.5488300000000 1.0
C      1  0.5562040000000  0.4766220000000  0.4203370000000 1.0
C      1  0.5205250000000  0.5868620000000  0.5774200000000 1.0
C      1  0.5232760000000  0.4391950000000  0.5673820000000 1.0
C      1  0.5518030000000  0.5177810000000  0.5397450000000 1.0
C      1  0.5043790000000  0.6078950000000  0.4912400000000 1.0
C      1  0.4485630000000  0.4837220000000  0.4514140000000 1.0
C      1  0.4664920000000  0.4144300000000  0.4900640000000 1.0
C      1  0.5319860000000  0.4147680000000  0.5460920000000 1.0
C      1  0.4388330000000  0.4554250000000  0.5555760000000 1.0
C      1  0.5179880000000  0.3956490000000  0.4946830000000 1.0
C      1  0.5518150000000  0.5607820000000  0.4457080000000 1.0
C      1  0.4293640000000  0.5394730000000  0.4518330000000 1.0
C      1  0.5821530000000  0.4515830000000  0.5257920000000 1.0
C      1  0.4561650000000  0.4600520000000  0.4880350000000 1.0
C      1  0.5058120000000  0.3975940000000  0.5406290000000 1.0
C      1  0.5238880000000  0.4305800000000  0.4182280000000 1.0
C      1  0.4935310000000  0.5315810000000  0.4945680000000 1.0
C      1  0.5355620000000  0.6070390000000  0.4840600000000 1.0
C      1  0.4660730000000  0.5124980000000  0.5845630000000 1.0
C      1  0.3990250000000  0.4879540000000  0.5146790000000 1.0
C      1  0.6035460000000  0.4884580000000  0.5234160000000 1.0
C      1  0.4781140000000  0.4627080000000  0.5276070000000 1.0
C      1  0.4036530000000  0.4737990000000  0.4847850000000 1.0
C      1  0.4481020000000  0.4515950000000  0.4183580000000 1.0
C      1  0.5370810000000  0.5242900000000  0.4574980000000 1.0
C      1  0.5428970000000  0.4925330000000  0.5594890000000 1.0
C      1  0.4257460000000  0.4520060000000  0.4763260000000 1.0
C      1  0.5214850000000  0.5248110000000  0.5255420000000 1.0
C      1  0.5567110000000  0.5333240000000  0.5094850000000 1.0
C      1  0.5532150000000  0.5074200000000  0.4212160000000 1.0
C      1  0.4695460000000  0.5083480000000  0.4044040000000 1.0
C      1  0.4411500000000  0.4367390000000  0.5077580000000 1.0
C      1  0.5267700000000  0.4533290000000  0.5372260000000 1.0
C      1  0.4517470000000  0.5434300000000  0.5835500000000 1.0
C      1  0.4941890000000  0.5709330000000  0.5016890000000 1.0
C      1  0.4937110000000  0.4313790000000  0.4264170000000 1.0
C      1  0.5895110000000  0.4271020000000  0.4840690000000 1.0
C      1  0.5541800000000  0.5949670000000  0.5073980000000 1.0
C      1  0.5192410000000  0.5103320000000  0.5863450000000 1.0
C      1  0.5095030000000  0.5922930000000  0.5213130000000 1.0
C      1  0.4675910000000  0.5613840000000  0.4852870000000 1.0
C      1  0.5244180000000  0.5749440000000  0.4512070000000 1.0
C      1  0.4511160000000  0.5156390000000  0.5050820000000 1.0
C      1  0.5491720000000  0.5774530000000  0.4819030000000 1.0
C      1  0.5253850000000  0.4072250000000  0.4631330000000 1.0
C      1  0.4115620000000  0.5106560000000  0.4456910000000 1.0
END
