TITL C-2778435-5768-1217 -0.00277726314286 125000 -567.419943343345 0 0 99 (C1) n - 1
REM
REM in /home/nfs/bkarasulu/CARBON/AIRSS/Generating-Clusters/REBO/Only-C1/SD-CG/HFTN-CG
REM
REM
REM
REM
REM
REM ./C.cell (11c1c37f851c82e70ff6c80c92926a4b)
REM
REM compiler GCC version 9.2.1 20190827 (Red Hat 9.2.1-1)
REM options -cpp -mtune=generic -march=x86-64 -g -O0 -fpre-include=/usr/include/finclude/math-vector-fortran.h
REM seed 1208489302 -1162696638 -1242417624 -646707631 -65035850 757679629 -271895117 -520070117 -2038820948 -863048897 1067456238 -236646000 -2122409259 -178694974 195127299 -1937569629 -1268814558 1399400472 2043509170 -2046717031 -1957700646 1095721508 559992472 500966253 1382934960 428699588 -1380395750 -1419684346 -314843820 1187675520 488967039 453307470 -1289785495
REM
CELL 1.54180   50.00000   50.00000   50.00000   90.00000   90.00000   90.00000
LATT -1
SFAC C  
C      1  0.5557290000000  0.5056520000000  0.4346490000000 1.0
C      1  0.4801110000000  0.5107220000000  0.5889600000000 1.0
C      1  0.4430790000000  0.5098610000000  0.5084040000000 1.0
C      1  0.4228890000000  0.4610730000000  0.5059840000000 1.0
C      1  0.5176280000000  0.5378800000000  0.4187390000000 1.0
C      1  0.4332600000000  0.5354840000000  0.5489810000000 1.0
C      1  0.4992600000000  0.5559040000000  0.4295430000000 1.0
C      1  0.5665620000000  0.5591660000000  0.4826860000000 1.0
C      1  0.4847650000000  0.5252000000000  0.5358020000000 1.0
C      1  0.5143350000000  0.4716600000000  0.5682020000000 1.0
C      1  0.4814360000000  0.5448230000000  0.4986960000000 1.0
C      1  0.5402850000000  0.4436340000000  0.4705280000000 1.0
C      1  0.4460200000000  0.5365110000000  0.4412770000000 1.0
C      1  0.5217260000000  0.4464260000000  0.5501450000000 1.0
C      1  0.4969870000000  0.4439900000000  0.5268920000000 1.0
C      1  0.5497210000000  0.4510610000000  0.5383290000000 1.0
C      1  0.5193320000000  0.4653830000000  0.4607030000000 1.0
C      1  0.5787850000000  0.5053050000000  0.4881080000000 1.0
C      1  0.4709160000000  0.4552840000000  0.5820480000000 1.0
C      1  0.5035430000000  0.4933170000000  0.4487480000000 1.0
C      1  0.5345360000000  0.5771780000000  0.4979410000000 1.0
C      1  0.5158050000000  0.5335910000000  0.4816110000000 1.0
C      1  0.4769100000000  0.5424170000000  0.4460590000000 1.0
C      1  0.5805220000000  0.5235930000000  0.5108200000000 1.0
C      1  0.5778400000000  0.5284600000000  0.5403310000000 1.0
C      1  0.4156890000000  0.5213520000000  0.4819060000000 1.0
C      1  0.5577510000000  0.4489780000000  0.5122810000000 1.0
C      1  0.5319170000000  0.5215220000000  0.5295290000000 1.0
C      1  0.5361980000000  0.4907460000000  0.5733810000000 1.0
C      1  0.4641120000000  0.4276610000000  0.5096560000000 1.0
C      1  0.5584180000000  0.4746530000000  0.4308810000000 1.0
C      1  0.4959220000000  0.5810100000000  0.4712600000000 1.0
C      1  0.4586590000000  0.5254730000000  0.5693540000000 1.0
C      1  0.4367280000000  0.5034140000000  0.5542610000000 1.0
C      1  0.5465760000000  0.5371990000000  0.4256360000000 1.0
C      1  0.5633350000000  0.4706820000000  0.5520890000000 1.0
C      1  0.5256930000000  0.4095400000000  0.5033940000000 1.0
C      1  0.5752300000000  0.5148690000000  0.4610730000000 1.0
C      1  0.4817150000000  0.4356820000000  0.4747910000000 1.0
C      1  0.4932600000000  0.5082260000000  0.4878980000000 1.0
C      1  0.5427630000000  0.5004720000000  0.5971930000000 1.0
C      1  0.5693830000000  0.5519410000000  0.5091350000000 1.0
C      1  0.4249250000000  0.4885150000000  0.5260300000000 1.0
C      1  0.5466930000000  0.5677450000000  0.5282900000000 1.0
C      1  0.5774780000000  0.4630060000000  0.4487310000000 1.0
C      1  0.4497860000000  0.4641340000000  0.4409560000000 1.0
C      1  0.4784790000000  0.4039560000000  0.4854780000000 1.0
C      1  0.4811890000000  0.4673680000000  0.4490440000000 1.0
C      1  0.5332820000000  0.4611910000000  0.4314310000000 1.0
C      1  0.4275600000000  0.5256960000000  0.4533290000000 1.0
C      1  0.4608170000000  0.5556320000000  0.5151890000000 1.0
C      1  0.4870470000000  0.4844310000000  0.5600020000000 1.0
C      1  0.5348140000000  0.5563200000000  0.4733360000000 1.0
C      1  0.4976740000000  0.5873760000000  0.5245140000000 1.0
C      1  0.4633500000000  0.4708470000000  0.4779520000000 1.0
C      1  0.4824310000000  0.4427880000000  0.5549200000000 1.0
C      1  0.4629130000000  0.4769110000000  0.5212760000000 1.0
C      1  0.4744710000000  0.5076030000000  0.5115700000000 1.0
C      1  0.4999990000000  0.4876230000000  0.4093270000000 1.0
C      1  0.4502630000000  0.4453320000000  0.5577240000000 1.0
C      1  0.5681180000000  0.4763360000000  0.4971020000000 1.0
C      1  0.5068090000000  0.5561250000000  0.5611540000000 1.0
C      1  0.4101220000000  0.4713650000000  0.4786460000000 1.0
C      1  0.4749770000000  0.5007780000000  0.4152430000000 1.0
C      1  0.5259600000000  0.5036210000000  0.4943030000000 1.0
C      1  0.4985080000000  0.5234930000000  0.5668740000000 1.0
C      1  0.4350080000000  0.4293210000000  0.4682600000000 1.0
C      1  0.4396060000000  0.5383140000000  0.5209420000000 1.0
C      1  0.4769680000000  0.5113950000000  0.4419010000000 1.0
C      1  0.4823140000000  0.5555540000000  0.4731560000000 1.0
C      1  0.5508290000000  0.4997750000000  0.5469490000000 1.0
C      1  0.4072330000000  0.5448380000000  0.4939420000000 1.0
C      1  0.5215170000000  0.4225340000000  0.5659450000000 1.0
C      1  0.5183200000000  0.5767970000000  0.5417500000000 1.0
C      1  0.5288000000000  0.4181710000000  0.4758290000000 1.0
C      1  0.4546180000000  0.4508190000000  0.5275420000000 1.0
C      1  0.4418470000000  0.4974110000000  0.4783930000000 1.0
C      1  0.5488820000000  0.4971590000000  0.5130940000000 1.0
C      1  0.4737560000000  0.5518140000000  0.5539150000000 1.0
C      1  0.4456990000000  0.4451740000000  0.4891100000000 1.0
C      1  0.5575670000000  0.5448970000000  0.5490100000000 1.0
C      1  0.5037560000000  0.4621720000000  0.4240260000000 1.0
C      1  0.5049910000000  0.5812360000000  0.4432410000000 1.0
C      1  0.5792970000000  0.5440140000000  0.4595660000000 1.0
C      1  0.5229810000000  0.5054940000000  0.4247610000000 1.0
C      1  0.5068120000000  0.4783200000000  0.4855420000000 1.0
C      1  0.5079540000000  0.5887040000000  0.4971370000000 1.0
C      1  0.4301710000000  0.4750600000000  0.4562080000000 1.0
C      1  0.4651370000000  0.4913850000000  0.5467560000000 1.0
C      1  0.5086000000000  0.5331220000000  0.5148650000000 1.0
C      1  0.4073240000000  0.4956550000000  0.4976640000000 1.0
C      1  0.4957280000000  0.4146280000000  0.5129120000000 1.0
C      1  0.5542170000000  0.5553570000000  0.4453520000000 1.0
C      1  0.4882910000000  0.4572170000000  0.4978610000000 1.0
C      1  0.5025720000000  0.4142490000000  0.4637350000000 1.0
C      1  0.4717250000000  0.5769850000000  0.5327330000000 1.0
C      1  0.5661710000000  0.4551020000000  0.4737020000000 1.0
C      1  0.4877100000000  0.4798810000000  0.5925580000000 1.0
C      1  0.5306010000000  0.5322570000000  0.5613160000000 1.0
END
