TITL C-2778422-5617-693 -0.00699290436268048 125000 -701.125458539047 0 0 121 (C1) n - 1
REM
REM in /home/nfs/bkarasulu/CARBON/AIRSS/Generating-Clusters/REBO/Only-C1/SD-CG/HFTN-CG
REM
REM
REM
REM
REM
REM ./C.cell (11c1c37f851c82e70ff6c80c92926a4b)
REM
REM compiler GCC version 9.2.1 20190827 (Red Hat 9.2.1-1)
REM options -cpp -mtune=generic -march=x86-64 -g -O0 -fpre-include=/usr/include/finclude/math-vector-fortran.h
REM seed -2070159623 -5448923 1074456103 -1141653864 -1028879909 -937622239 990866112 43574098 2053247145 1256451496 -1220661865 1599809526 -536583275 1120894142 -1606365458 -25804714 -339583309 862476519 -189685336 145221013 -1594795153 1934340986 320160260 -1902265289 1431570906 1840154845 1738149910 -587337159 1866910242 -327288552 1242496886 -1953597103 -783650807
REM
CELL 1.54180   50.00000   50.00000   50.00000   90.00000   90.00000   90.00000
LATT -1
SFAC C  
C      1  0.4179400000000  0.5341500000000  0.5082580000000 1.0
C      1  0.5171230000000  0.4179820000000  0.4411260000000 1.0
C      1  0.5172530000000  0.4247170000000  0.5302900000000 1.0
C      1  0.4452200000000  0.4311720000000  0.5067750000000 1.0
C      1  0.4607780000000  0.5439880000000  0.4269980000000 1.0
C      1  0.4394340000000  0.4365120000000  0.4747170000000 1.0
C      1  0.4741640000000  0.5115390000000  0.4895380000000 1.0
C      1  0.4585310000000  0.5672930000000  0.5307080000000 1.0
C      1  0.5177290000000  0.5028680000000  0.4785850000000 1.0
C      1  0.5265750000000  0.4867290000000  0.5710440000000 1.0
C      1  0.4953430000000  0.4131480000000  0.5527280000000 1.0
C      1  0.5349620000000  0.4654110000000  0.5067940000000 1.0
C      1  0.4586430000000  0.4896020000000  0.4041040000000 1.0
C      1  0.5488690000000  0.4064150000000  0.4745910000000 1.0
C      1  0.5708980000000  0.4226050000000  0.5265940000000 1.0
C      1  0.4875640000000  0.4752150000000  0.5292890000000 1.0
C      1  0.5470610000000  0.5065590000000  0.5275660000000 1.0
C      1  0.5352200000000  0.5899940000000  0.4740490000000 1.0
C      1  0.5313100000000  0.5423000000000  0.5037050000000 1.0
C      1  0.5750730000000  0.4741380000000  0.5115260000000 1.0
C      1  0.4676560000000  0.4295790000000  0.5499630000000 1.0
C      1  0.5148220000000  0.5622890000000  0.5969500000000 1.0
C      1  0.5884590000000  0.5350850000000  0.4543610000000 1.0
C      1  0.5412270000000  0.5421220000000  0.4537640000000 1.0
C      1  0.4889050000000  0.5298880000000  0.5421570000000 1.0
C      1  0.5278350000000  0.5859900000000  0.4468530000000 1.0
C      1  0.4541010000000  0.6159370000000  0.5185590000000 1.0
C      1  0.4617400000000  0.5154590000000  0.5271360000000 1.0
C      1  0.4825970000000  0.5851440000000  0.4903430000000 1.0
C      1  0.4579910000000  0.5440790000000  0.5106830000000 1.0
C      1  0.4218740000000  0.4680810000000  0.5031540000000 1.0
C      1  0.5533640000000  0.4368130000000  0.4779100000000 1.0
C      1  0.5518640000000  0.5203040000000  0.4905160000000 1.0
C      1  0.4058210000000  0.4891460000000  0.4733560000000 1.0
C      1  0.5010570000000  0.5874770000000  0.5457230000000 1.0
C      1  0.4837340000000  0.4369640000000  0.4981500000000 1.0
C      1  0.4492450000000  0.4789130000000  0.4497770000000 1.0
C      1  0.5752890000000  0.4728940000000  0.4545110000000 1.0
C      1  0.4677070000000  0.5494630000000  0.4805130000000 1.0
C      1  0.4403910000000  0.5241350000000  0.4311120000000 1.0
C      1  0.5552160000000  0.5097360000000  0.4302790000000 1.0
C      1  0.4879700000000  0.5040200000000  0.4117900000000 1.0
C      1  0.4785690000000  0.5089770000000  0.5655530000000 1.0
C      1  0.5221120000000  0.5320380000000  0.5500030000000 1.0
C      1  0.5074520000000  0.4567170000000  0.4406330000000 1.0
C      1  0.4804280000000  0.5241270000000  0.4609730000000 1.0
C      1  0.5810380000000  0.5175200000000  0.4330700000000 1.0
C      1  0.5121150000000  0.4713410000000  0.5939740000000 1.0
C      1  0.4940520000000  0.4884970000000  0.4985470000000 1.0
C      1  0.4134230000000  0.4478220000000  0.5242520000000 1.0
C      1  0.4122260000000  0.5122500000000  0.4853680000000 1.0
C      1  0.5203310000000  0.4348110000000  0.5626860000000 1.0
C      1  0.5795000000000  0.5074140000000  0.5171070000000 1.0
C      1  0.5439510000000  0.5471040000000  0.5328950000000 1.0
C      1  0.4456450000000  0.5495200000000  0.5750260000000 1.0
C      1  0.4239020000000  0.4566190000000  0.5529620000000 1.0
C      1  0.5131730000000  0.5963710000000  0.4909110000000 1.0
C      1  0.4423080000000  0.4956740000000  0.4271330000000 1.0
C      1  0.5245520000000  0.3989040000000  0.4617600000000 1.0
C      1  0.4786360000000  0.4682500000000  0.3969720000000 1.0
C      1  0.4399820000000  0.4309460000000  0.5382250000000 1.0
C      1  0.4934940000000  0.5036080000000  0.4438320000000 1.0
C      1  0.5453800000000  0.5757520000000  0.5199190000000 1.0
C      1  0.5656500000000  0.5523830000000  0.4643150000000 1.0
C      1  0.5081140000000  0.5745910000000  0.5730930000000 1.0
C      1  0.4719320000000  0.4592950000000  0.4760420000000 1.0
C      1  0.4939140000000  0.5391350000000  0.6027790000000 1.0
C      1  0.4431050000000  0.4900250000000  0.5183050000000 1.0
C      1  0.5044220000000  0.4940350000000  0.5501270000000 1.0
C      1  0.5001380000000  0.4491660000000  0.5826700000000 1.0
C      1  0.5174050000000  0.5094000000000  0.5238690000000 1.0
C      1  0.4214370000000  0.5327900000000  0.5364030000000 1.0
C      1  0.5846490000000  0.5221210000000  0.4822350000000 1.0
C      1  0.4952180000000  0.5536560000000  0.4626140000000 1.0
C      1  0.4675060000000  0.4804890000000  0.5568080000000 1.0
C      1  0.5759270000000  0.4899960000000  0.4813990000000 1.0
C      1  0.5021270000000  0.5594650000000  0.5013070000000 1.0
C      1  0.5036660000000  0.4732190000000  0.4118970000000 1.0
C      1  0.4750000000000  0.4529840000000  0.5698010000000 1.0
C      1  0.5253840000000  0.5315110000000  0.5995380000000 1.0
C      1  0.5683920000000  0.4442000000000  0.5025770000000 1.0
C      1  0.5379060000000  0.4411890000000  0.4333670000000 1.0
C      1  0.4369980000000  0.4812200000000  0.5567210000000 1.0
C      1  0.4365350000000  0.5533840000000  0.5494540000000 1.0
C      1  0.4899590000000  0.3898160000000  0.5009580000000 1.0
C      1  0.4654990000000  0.4319910000000  0.4576510000000 1.0
C      1  0.5057260000000  0.3844880000000  0.4776470000000 1.0
C      1  0.5589310000000  0.5731410000000  0.4894250000000 1.0
C      1  0.4624040000000  0.5678580000000  0.4421980000000 1.0
C      1  0.4541150000000  0.4635320000000  0.5002440000000 1.0
C      1  0.5318700000000  0.5326780000000  0.4243310000000 1.0
C      1  0.5245400000000  0.4532410000000  0.4701830000000 1.0
C      1  0.5438890000000  0.4893900000000  0.4917270000000 1.0
C      1  0.4696340000000  0.4093610000000  0.4974530000000 1.0
C      1  0.5639920000000  0.4814200000000  0.5430190000000 1.0
C      1  0.4845940000000  0.5350480000000  0.4134950000000 1.0
C      1  0.4794470000000  0.5637030000000  0.5573150000000 1.0
C      1  0.5591390000000  0.4508700000000  0.4504870000000 1.0
C      1  0.4698730000000  0.5845750000000  0.4619770000000 1.0
C      1  0.5711760000000  0.5447600000000  0.5036950000000 1.0
C      1  0.5190360000000  0.5356550000000  0.4740000000000 1.0
C      1  0.4895450000000  0.4444030000000  0.5285380000000 1.0
C      1  0.4883130000000  0.4282900000000  0.4417980000000 1.0
C      1  0.5423480000000  0.4604670000000  0.5584070000000 1.0
C      1  0.5734880000000  0.5352700000000  0.5358110000000 1.0
C      1  0.4437650000000  0.5197010000000  0.4917030000000 1.0
C      1  0.5082260000000  0.5496920000000  0.4178400000000 1.0
C      1  0.4286040000000  0.4661520000000  0.4695820000000 1.0
C      1  0.5035870000000  0.3940330000000  0.5256940000000 1.0
C      1  0.5248830000000  0.5066880000000  0.4455400000000 1.0
C      1  0.5066900000000  0.4587800000000  0.4954910000000 1.0
C      1  0.4829900000000  0.4766550000000  0.4533190000000 1.0
C      1  0.5153680000000  0.5846450000000  0.5203390000000 1.0
C      1  0.4267510000000  0.5059150000000  0.5436400000000 1.0
C      1  0.5352170000000  0.5173740000000  0.5749700000000 1.0
C      1  0.5063410000000  0.5688540000000  0.4391730000000 1.0
C      1  0.4750350000000  0.5374160000000  0.5788670000000 1.0
C      1  0.5478410000000  0.4476190000000  0.5296770000000 1.0
C      1  0.4639280000000  0.5919940000000  0.5138520000000 1.0
C      1  0.4944960000000  0.5280350000000  0.5086660000000 1.0
C      1  0.5625140000000  0.5121190000000  0.5576240000000 1.0
END
