TITL C-2778427-5640-586 0.000484205985108614 125000 -495.606964156674 0 0 86 (C1) n - 1
REM
REM in /home/nfs/bkarasulu/CARBON/AIRSS/Generating-Clusters/REBO/Only-C1/SD-CG/HFTN-CG
REM
REM
REM
REM
REM
REM ./C.cell (11c1c37f851c82e70ff6c80c92926a4b)
REM
REM compiler GCC version 9.2.1 20190827 (Red Hat 9.2.1-1)
REM options -cpp -mtune=generic -march=x86-64 -g -O0 -fpre-include=/usr/include/finclude/math-vector-fortran.h
REM seed -1329266186 -1023838359 1900381549 221529633 1863041003 2119343588 -2046698862 830915157 -2023868885 -1719024075 -1254753480 -1410929228 1447550567 -605564830 837312287 1992848148 -839828617 1925881517 -427597114 678402082 199037717 89836117 1754132868 1654916174 370846080 1380000738 -1466538489 1139504753 2146716700 -1478675135 1616452915 -110469788 1404691760
REM
CELL 1.54180   50.00000   50.00000   50.00000   90.00000   90.00000   90.00000
LATT -1
SFAC C  
C      1  0.4660940000000  0.4466650000000  0.4792530000000 1.0
C      1  0.5067200000000  0.4721480000000  0.4993300000000 1.0
C      1  0.5045550000000  0.4340570000000  0.5148180000000 1.0
C      1  0.4175100000000  0.4833160000000  0.4726200000000 1.0
C      1  0.4254470000000  0.5295700000000  0.5061130000000 1.0
C      1  0.5709150000000  0.5191130000000  0.5020440000000 1.0
C      1  0.4507910000000  0.4555620000000  0.5293830000000 1.0
C      1  0.5040430000000  0.5637920000000  0.4896140000000 1.0
C      1  0.4451410000000  0.5106420000000  0.5857240000000 1.0
C      1  0.4253670000000  0.4960240000000  0.5470260000000 1.0
C      1  0.4404920000000  0.4364560000000  0.4870070000000 1.0
C      1  0.5296560000000  0.4399780000000  0.5335730000000 1.0
C      1  0.5787440000000  0.4886660000000  0.5410100000000 1.0
C      1  0.5573530000000  0.5058460000000  0.5256640000000 1.0
C      1  0.4595450000000  0.4922290000000  0.5116550000000 1.0
C      1  0.5083240000000  0.5092420000000  0.4197280000000 1.0
C      1  0.4727630000000  0.5312190000000  0.5458750000000 1.0
C      1  0.4946970000000  0.4719550000000  0.4432050000000 1.0
C      1  0.4303910000000  0.5329930000000  0.4783320000000 1.0
C      1  0.5633330000000  0.5336800000000  0.4733450000000 1.0
C      1  0.4675320000000  0.4735620000000  0.4327850000000 1.0
C      1  0.5596140000000  0.4422530000000  0.4925590000000 1.0
C      1  0.5404290000000  0.4694140000000  0.5713500000000 1.0
C      1  0.4737060000000  0.5004820000000  0.4615560000000 1.0
C      1  0.4302570000000  0.4527130000000  0.5080640000000 1.0
C      1  0.4701920000000  0.5297900000000  0.5822800000000 1.0
C      1  0.4681850000000  0.5576830000000  0.5669570000000 1.0
C      1  0.5210120000000  0.5622790000000  0.5360080000000 1.0
C      1  0.5416890000000  0.5348260000000  0.4211220000000 1.0
C      1  0.5516460000000  0.4913260000000  0.4694240000000 1.0
C      1  0.4818690000000  0.5132040000000  0.4061570000000 1.0
C      1  0.5773980000000  0.4834970000000  0.4491240000000 1.0
C      1  0.6045090000000  0.5132950000000  0.5005200000000 1.0
C      1  0.5136620000000  0.5486750000000  0.4226140000000 1.0
C      1  0.5516980000000  0.4547710000000  0.4384510000000 1.0
C      1  0.4979750000000  0.4700500000000  0.5500960000000 1.0
C      1  0.5554280000000  0.5040320000000  0.4230590000000 1.0
C      1  0.4506200000000  0.5560730000000  0.5405730000000 1.0
C      1  0.5429290000000  0.4778060000000  0.4237160000000 1.0
C      1  0.4600930000000  0.4804610000000  0.5833840000000 1.0
C      1  0.5834290000000  0.4994250000000  0.4777650000000 1.0
C      1  0.5327890000000  0.5127450000000  0.5457320000000 1.0
C      1  0.5309770000000  0.5424650000000  0.5527430000000 1.0
C      1  0.4907240000000  0.5242440000000  0.4694370000000 1.0
C      1  0.4240920000000  0.5134320000000  0.5681000000000 1.0
C      1  0.4531680000000  0.5489800000000  0.4675310000000 1.0
C      1  0.5488400000000  0.5565360000000  0.6018270000000 1.0
C      1  0.4889070000000  0.4338060000000  0.4862620000000 1.0
C      1  0.4648260000000  0.4902930000000  0.4093530000000 1.0
C      1  0.5329050000000  0.4967160000000  0.5732310000000 1.0
C      1  0.5517630000000  0.5615760000000  0.4797830000000 1.0
C      1  0.5766060000000  0.4635920000000  0.5376360000000 1.0
C      1  0.4423760000000  0.4723320000000  0.5552000000000 1.0
C      1  0.5219320000000  0.4539640000000  0.5564900000000 1.0
C      1  0.4189070000000  0.4775490000000  0.5000460000000 1.0
C      1  0.5335020000000  0.4831320000000  0.5173100000000 1.0
C      1  0.5259710000000  0.4471700000000  0.4914990000000 1.0
C      1  0.4822650000000  0.5128450000000  0.5242090000000 1.0
C      1  0.4298780000000  0.5512230000000  0.5232980000000 1.0
C      1  0.4639630000000  0.4781660000000  0.4825620000000 1.0
C      1  0.5591140000000  0.5249760000000  0.4476570000000 1.0
C      1  0.5471880000000  0.4595160000000  0.4677190000000 1.0
C      1  0.4297400000000  0.5012250000000  0.5173440000000 1.0
C      1  0.5525880000000  0.4550080000000  0.5202350000000 1.0
C      1  0.5401860000000  0.5497190000000  0.5780480000000 1.0
C      1  0.4823180000000  0.4688330000000  0.5168440000000 1.0
C      1  0.5104810000000  0.5014990000000  0.5896740000000 1.0
C      1  0.5269810000000  0.5079500000000  0.4705790000000 1.0
C      1  0.5126350000000  0.5266430000000  0.4471300000000 1.0
C      1  0.4830140000000  0.5399740000000  0.4217340000000 1.0
C      1  0.5025950000000  0.4864290000000  0.4729510000000 1.0
C      1  0.4743050000000  0.5563800000000  0.4859750000000 1.0
C      1  0.5146620000000  0.4816550000000  0.4242650000000 1.0
C      1  0.5626770000000  0.4317880000000  0.4280890000000 1.0
C      1  0.4249610000000  0.5101730000000  0.4615730000000 1.0
C      1  0.5461520000000  0.5474630000000  0.5086600000000 1.0
C      1  0.5249810000000  0.5396850000000  0.4827240000000 1.0
C      1  0.4620760000000  0.5382360000000  0.4415560000000 1.0
C      1  0.4497080000000  0.5082170000000  0.4417530000000 1.0
C      1  0.4721730000000  0.4577920000000  0.5627750000000 1.0
C      1  0.4836260000000  0.5027010000000  0.5903130000000 1.0
C      1  0.4874210000000  0.5293040000000  0.4993070000000 1.0
C      1  0.5110900000000  0.5754810000000  0.5145040000000 1.0
C      1  0.5063080000000  0.4961180000000  0.5335190000000 1.0
C      1  0.4436440000000  0.4756570000000  0.4542300000000 1.0
C      1  0.4792300000000  0.4380370000000  0.5357130000000 1.0
END
