TITL C-2778426-5645-758 0.00164195166778597 125000 -1119.71485247075 0 0 192 (C1) n - 1
REM
REM in /home/nfs/bkarasulu/CARBON/AIRSS/Generating-Clusters/REBO/Only-C1/SD-CG/HFTN-CG
REM
REM
REM
REM
REM
REM ./C.cell (11c1c37f851c82e70ff6c80c92926a4b)
REM
REM compiler GCC version 9.2.1 20190827 (Red Hat 9.2.1-1)
REM options -cpp -mtune=generic -march=x86-64 -g -O0 -fpre-include=/usr/include/finclude/math-vector-fortran.h
REM seed -1271870959 1264231296 1182411541 -1355330017 -1432175262 -1317494956 1215976947 1858488655 -900804432 757468202 -833665849 -2029185007 901436398 318750392 -1725556883 -2070375061 1360885158 1953052075 1442730458 -550710025 -1555587267 1338000915 -1760888429 1352763037 1842642404 1889561450 -322497101 2125188195 -1728906864 -397246466 -1957571802 -1997369665 1890082473
REM
CELL 1.54180   50.00000   50.00000   50.00000   90.00000   90.00000   90.00000
LATT -1
SFAC C  
C      1  0.4400480000000  0.5184550000000  0.4101500000000 1.0
C      1  0.4839550000000  0.4081460000000  0.5237300000000 1.0
C      1  0.5219470000000  0.4990850000000  0.5704950000000 1.0
C      1  0.5258980000000  0.5984010000000  0.4701120000000 1.0
C      1  0.5458480000000  0.4294980000000  0.5079510000000 1.0
C      1  0.4810480000000  0.4377820000000  0.6023940000000 1.0
C      1  0.4038870000000  0.4625790000000  0.5010030000000 1.0
C      1  0.4628990000000  0.5077970000000  0.5977300000000 1.0
C      1  0.4231610000000  0.4292200000000  0.4815900000000 1.0
C      1  0.4992200000000  0.4624000000000  0.4462330000000 1.0
C      1  0.5272030000000  0.3975600000000  0.4549600000000 1.0
C      1  0.4473140000000  0.5707810000000  0.5640220000000 1.0
C      1  0.5748520000000  0.5234690000000  0.4611400000000 1.0
C      1  0.4542170000000  0.4537440000000  0.3969630000000 1.0
C      1  0.5601790000000  0.5409350000000  0.5198350000000 1.0
C      1  0.4462600000000  0.5524730000000  0.4471770000000 1.0
C      1  0.4226530000000  0.5484350000000  0.5860990000000 1.0
C      1  0.5941190000000  0.4756510000000  0.4756750000000 1.0
C      1  0.5373610000000  0.5605330000000  0.4120560000000 1.0
C      1  0.4940210000000  0.6078570000000  0.4669210000000 1.0
C      1  0.4978820000000  0.4638730000000  0.5049890000000 1.0
C      1  0.5728260000000  0.5902430000000  0.5254980000000 1.0
C      1  0.5164020000000  0.5688630000000  0.5127010000000 1.0
C      1  0.4606000000000  0.4991800000000  0.4997360000000 1.0
C      1  0.5257000000000  0.3882090000000  0.3820130000000 1.0
C      1  0.4103310000000  0.5139690000000  0.4861730000000 1.0
C      1  0.4659860000000  0.4870700000000  0.4417480000000 1.0
C      1  0.4696620000000  0.4075120000000  0.5484080000000 1.0
C      1  0.5220560000000  0.5082970000000  0.6030600000000 1.0
C      1  0.5737220000000  0.5575920000000  0.4541720000000 1.0
C      1  0.5310220000000  0.5289140000000  0.5620430000000 1.0
C      1  0.4352710000000  0.4780420000000  0.4532190000000 1.0
C      1  0.4900290000000  0.4685620000000  0.6059470000000 1.0
C      1  0.5134330000000  0.5366510000000  0.5072900000000 1.0
C      1  0.4400520000000  0.5253200000000  0.4922720000000 1.0
C      1  0.5016720000000  0.4890810000000  0.5504800000000 1.0
C      1  0.4924720000000  0.6052330000000  0.5581840000000 1.0
C      1  0.4577230000000  0.5255780000000  0.4373130000000 1.0
C      1  0.5855900000000  0.4205860000000  0.3936560000000 1.0
C      1  0.4769690000000  0.4412510000000  0.4082670000000 1.0
C      1  0.5399570000000  0.6028750000000  0.5462460000000 1.0
C      1  0.4037430000000  0.5543650000000  0.5609060000000 1.0
C      1  0.4063170000000  0.5062380000000  0.5629030000000 1.0
C      1  0.4773470000000  0.5085370000000  0.5496320000000 1.0
C      1  0.5490510000000  0.5463740000000  0.5851030000000 1.0
C      1  0.5491670000000  0.5217370000000  0.6061470000000 1.0
C      1  0.5341020000000  0.5281090000000  0.5306420000000 1.0
C      1  0.3945330000000  0.4850020000000  0.4792500000000 1.0
C      1  0.4819650000000  0.5585260000000  0.4925120000000 1.0
C      1  0.6021590000000  0.4731180000000  0.5397850000000 1.0
C      1  0.5827450000000  0.4925600000000  0.5547740000000 1.0
C      1  0.5865230000000  0.5227800000000  0.5573330000000 1.0
C      1  0.4859690000000  0.5529300000000  0.4441600000000 1.0
C      1  0.4871520000000  0.5073370000000  0.6386180000000 1.0
C      1  0.4572710000000  0.5684280000000  0.4210100000000 1.0
C      1  0.5463520000000  0.4173640000000  0.4624980000000 1.0
C      1  0.4545600000000  0.4495900000000  0.5070760000000 1.0
C      1  0.5193220000000  0.4079040000000  0.5586550000000 1.0
C      1  0.4325520000000  0.4167730000000  0.5118310000000 1.0
C      1  0.4775570000000  0.5729760000000  0.5203620000000 1.0
C      1  0.4813690000000  0.3952850000000  0.4971170000000 1.0
C      1  0.5333430000000  0.4462230000000  0.4591180000000 1.0
C      1  0.4443770000000  0.4256010000000  0.5426800000000 1.0
C      1  0.5091300000000  0.5768550000000  0.4220420000000 1.0
C      1  0.4258170000000  0.5855310000000  0.4561630000000 1.0
C      1  0.4444300000000  0.4808480000000  0.5475700000000 1.0
C      1  0.4194350000000  0.5803400000000  0.5478130000000 1.0
C      1  0.5548790000000  0.5072630000000  0.4388010000000 1.0
C      1  0.5009800000000  0.4556720000000  0.4069070000000 1.0
C      1  0.4862830000000  0.4180840000000  0.4749330000000 1.0
C      1  0.5534750000000  0.5121920000000  0.4929190000000 1.0
C      1  0.5215440000000  0.5602420000000  0.5597800000000 1.0
C      1  0.5303310000000  0.5306550000000  0.4373780000000 1.0
C      1  0.4791920000000  0.6024840000000  0.5343700000000 1.0
C      1  0.5685630000000  0.4377640000000  0.4037460000000 1.0
C      1  0.5172050000000  0.4418580000000  0.5573940000000 1.0
C      1  0.4660920000000  0.5994220000000  0.4845720000000 1.0
C      1  0.4710500000000  0.5382660000000  0.5394480000000 1.0
C      1  0.4996070000000  0.5346220000000  0.4301220000000 1.0
C      1  0.4117470000000  0.4807250000000  0.5479930000000 1.0
C      1  0.5209070000000  0.3842430000000  0.5028530000000 1.0
C      1  0.5419720000000  0.4529020000000  0.5399940000000 1.0
C      1  0.4999060000000  0.4348260000000  0.5206600000000 1.0
C      1  0.4619520000000  0.4811900000000  0.3787570000000 1.0
C      1  0.5478200000000  0.4214630000000  0.5718350000000 1.0
C      1  0.5276740000000  0.5299230000000  0.4028100000000 1.0
C      1  0.4334390000000  0.4071540000000  0.4597780000000 1.0
C      1  0.4980890000000  0.5561970000000  0.5385000000000 1.0
C      1  0.5570640000000  0.5461770000000  0.4884700000000 1.0
C      1  0.5521150000000  0.5750590000000  0.5559280000000 1.0
C      1  0.6085410000000  0.5658920000000  0.5451420000000 1.0
C      1  0.4009430000000  0.5325120000000  0.4466270000000 1.0
C      1  0.5238630000000  0.4984250000000  0.4151470000000 1.0
C      1  0.4814510000000  0.5123780000000  0.4577830000000 1.0
C      1  0.5524470000000  0.4836190000000  0.4164390000000 1.0
C      1  0.4172870000000  0.5032710000000  0.4546360000000 1.0
C      1  0.5819550000000  0.5378370000000  0.5349750000000 1.0
C      1  0.5507000000000  0.4557840000000  0.4143300000000 1.0
C      1  0.5766590000000  0.4222360000000  0.5165580000000 1.0
C      1  0.5202640000000  0.4748180000000  0.6024970000000 1.0
C      1  0.6217900000000  0.5137290000000  0.5050330000000 1.0
C      1  0.4584820000000  0.4564410000000  0.5395560000000 1.0
C      1  0.5220990000000  0.4155230000000  0.5144420000000 1.0
C      1  0.5313220000000  0.4978380000000  0.4621260000000 1.0
C      1  0.5638030000000  0.4147750000000  0.4857000000000 1.0
C      1  0.4060620000000  0.4551050000000  0.4676470000000 1.0
C      1  0.5421290000000  0.4990390000000  0.5195230000000 1.0
C      1  0.6124610000000  0.5397900000000  0.4986910000000 1.0
C      1  0.4837910000000  0.5924430000000  0.4387270000000 1.0
C      1  0.5423300000000  0.5714540000000  0.5943780000000 1.0
C      1  0.5356760000000  0.5483930000000  0.4619890000000 1.0
C      1  0.4884880000000  0.4037940000000  0.5688950000000 1.0
C      1  0.5419990000000  0.4710690000000  0.4766110000000 1.0
C      1  0.5169840000000  0.3966810000000  0.4044510000000 1.0
C      1  0.4495790000000  0.5918850000000  0.4412280000000 1.0
C      1  0.4139290000000  0.5563610000000  0.4498490000000 1.0
C      1  0.4121120000000  0.5138040000000  0.4236070000000 1.0
C      1  0.5029020000000  0.5854260000000  0.4908610000000 1.0
C      1  0.4572010000000  0.5385740000000  0.5687750000000 1.0
C      1  0.5062750000000  0.4934240000000  0.4440380000000 1.0
C      1  0.5242740000000  0.4484990000000  0.4268360000000 1.0
C      1  0.5196050000000  0.3797210000000  0.4755470000000 1.0
C      1  0.5374390000000  0.4472150000000  0.5917930000000 1.0
C      1  0.5640660000000  0.5768280000000  0.4971130000000 1.0
C      1  0.4974580000000  0.5230360000000  0.6150810000000 1.0
C      1  0.4359580000000  0.4993510000000  0.5223140000000 1.0
C      1  0.5641220000000  0.5545760000000  0.4238440000000 1.0
C      1  0.4893370000000  0.4616490000000  0.5373520000000 1.0
C      1  0.4154640000000  0.5725490000000  0.4860130000000 1.0
C      1  0.5293060000000  0.5759860000000  0.4476010000000 1.0
C      1  0.6187730000000  0.4899770000000  0.5171360000000 1.0
C      1  0.4572190000000  0.5429510000000  0.4002970000000 1.0
C      1  0.3940860000000  0.5224560000000  0.5150260000000 1.0
C      1  0.4839480000000  0.5051240000000  0.3884380000000 1.0
C      1  0.4851380000000  0.5622420000000  0.4052810000000 1.0
C      1  0.4488580000000  0.5638780000000  0.5975020000000 1.0
C      1  0.4968300000000  0.4137260000000  0.5950990000000 1.0
C      1  0.5255460000000  0.5236900000000  0.4800620000000 1.0
C      1  0.5758620000000  0.5052070000000  0.6018800000000 1.0
C      1  0.4045370000000  0.4901560000000  0.5174790000000 1.0
C      1  0.4306790000000  0.5184260000000  0.5767420000000 1.0
C      1  0.5727940000000  0.4842780000000  0.5824530000000 1.0
C      1  0.5172630000000  0.5929650000000  0.5634640000000 1.0
C      1  0.4707760000000  0.4627900000000  0.4625000000000 1.0
C      1  0.5407170000000  0.5844770000000  0.5187870000000 1.0
C      1  0.4352380000000  0.4885360000000  0.3981700000000 1.0
C      1  0.5250020000000  0.4173400000000  0.5970270000000 1.0
C      1  0.5446970000000  0.4760680000000  0.5800020000000 1.0
C      1  0.4226610000000  0.4472860000000  0.5172670000000 1.0
C      1  0.5605630000000  0.4809610000000  0.5351450000000 1.0
C      1  0.4444240000000  0.4454100000000  0.4602290000000 1.0
C      1  0.4164170000000  0.4573550000000  0.4353400000000 1.0
C      1  0.5779110000000  0.5314340000000  0.5840590000000 1.0
C      1  0.4478340000000  0.5783950000000  0.5307090000000 1.0
C      1  0.6094380000000  0.4686230000000  0.4554440000000 1.0
C      1  0.5560290000000  0.5822230000000  0.4675390000000 1.0
C      1  0.4451410000000  0.5807130000000  0.4985240000000 1.0
C      1  0.4423780000000  0.5326930000000  0.5245490000000 1.0
C      1  0.5035840000000  0.4297390000000  0.4550300000000 1.0
C      1  0.5940560000000  0.4454440000000  0.5502150000000 1.0
C      1  0.5691120000000  0.4918970000000  0.4728780000000 1.0
C      1  0.4707700000000  0.4707470000000  0.4913040000000 1.0
C      1  0.4769010000000  0.4199790000000  0.4269560000000 1.0
C      1  0.5128330000000  0.4884380000000  0.5191890000000 1.0
C      1  0.4559800000000  0.4987540000000  0.5691140000000 1.0
C      1  0.4867030000000  0.5269550000000  0.4880660000000 1.0
C      1  0.3925410000000  0.5267930000000  0.5476960000000 1.0
C      1  0.5743920000000  0.4559440000000  0.5169180000000 1.0
C      1  0.5032820000000  0.4822030000000  0.3985890000000 1.0
C      1  0.4866190000000  0.5086850000000  0.5168510000000 1.0
C      1  0.4742540000000  0.4906280000000  0.6169840000000 1.0
C      1  0.5991690000000  0.4689650000000  0.5037540000000 1.0
C      1  0.4204490000000  0.4490950000000  0.5494360000000 1.0
C      1  0.4421740000000  0.5532600000000  0.4783470000000 1.0
C      1  0.4663520000000  0.4886120000000  0.4125480000000 1.0
C      1  0.4725230000000  0.5393940000000  0.5993330000000 1.0
C      1  0.5822490000000  0.5751320000000  0.5494310000000 1.0
C      1  0.5424180000000  0.4609120000000  0.5060800000000 1.0
C      1  0.4950040000000  0.5310450000000  0.3967620000000 1.0
C      1  0.5671210000000  0.4318390000000  0.5479270000000 1.0
C      1  0.5952510000000  0.5440620000000  0.4770310000000 1.0
C      1  0.5712640000000  0.5280140000000  0.4172140000000 1.0
C      1  0.5236220000000  0.3893470000000  0.5343920000000 1.0
C      1  0.4541990000000  0.4180600000000  0.4424330000000 1.0
C      1  0.4998750000000  0.4510790000000  0.5778160000000 1.0
C      1  0.4000620000000  0.5543260000000  0.5047390000000 1.0
C      1  0.4599890000000  0.4207470000000  0.4943520000000 1.0
C      1  0.4749820000000  0.5730130000000  0.4653340000000 1.0
C      1  0.6166230000000  0.5580140000000  0.5200520000000 1.0
C      1  0.4253620000000  0.4584980000000  0.4086430000000 1.0
C      1  0.5066320000000  0.4067430000000  0.4311020000000 1.0
C      1  0.4187210000000  0.5511190000000  0.5302850000000 1.0
END
