TITL C-2778422-5617-1020 -8.85044221341055e-05 125000 -336.142116456355 0 0 60 (C1) n - 1
REM
REM in /home/nfs/bkarasulu/CARBON/AIRSS/Generating-Clusters/REBO/Only-C1/SD-CG/HFTN-CG
REM
REM
REM
REM
REM
REM ./C.cell (11c1c37f851c82e70ff6c80c92926a4b)
REM
REM compiler GCC version 9.2.1 20190827 (Red Hat 9.2.1-1)
REM options -cpp -mtune=generic -march=x86-64 -g -O0 -fpre-include=/usr/include/finclude/math-vector-fortran.h
REM seed 1029148581 1694369331 -927406444 466408886 -1683522510 -1071424342 -1327807676 -139338315 -625215241 -952611320 -1348599979 2108021980 1978286690 1443547798 -448507035 -1252366343 276344233 939538476 -1678718981 -946991483 -555988751 34910171 -1915248289 -2012655423 1260045567 1156834027 448726332 -1117711972 -1731583069 -1966002810 404990196 -1351448202 1930050347
REM
CELL 1.54180   50.00000   50.00000   50.00000   90.00000   90.00000   90.00000
LATT -1
SFAC C  
C      1  0.5173590000000  0.5670890000000  0.5435630000000 1.0
C      1  0.5246880000000  0.5037190000000  0.4901480000000 1.0
C      1  0.4939780000000  0.4282410000000  0.5566630000000 1.0
C      1  0.5344560000000  0.5070160000000  0.5290420000000 1.0
C      1  0.4328230000000  0.4698340000000  0.5020250000000 1.0
C      1  0.4779800000000  0.4596830000000  0.4864770000000 1.0
C      1  0.4477100000000  0.4836100000000  0.4529280000000 1.0
C      1  0.5175000000000  0.5303980000000  0.4974970000000 1.0
C      1  0.4839560000000  0.5991860000000  0.4853340000000 1.0
C      1  0.5844360000000  0.5188540000000  0.4713440000000 1.0
C      1  0.4355330000000  0.5031040000000  0.5239290000000 1.0
C      1  0.5350390000000  0.4717770000000  0.4882970000000 1.0
C      1  0.5451720000000  0.4687030000000  0.5309170000000 1.0
C      1  0.4826570000000  0.4425400000000  0.5337680000000 1.0
C      1  0.5462960000000  0.4820520000000  0.5579600000000 1.0
C      1  0.4982390000000  0.6426740000000  0.5612270000000 1.0
C      1  0.4274100000000  0.4812030000000  0.4728940000000 1.0
C      1  0.5045070000000  0.6178950000000  0.5554360000000 1.0
C      1  0.5096520000000  0.5428410000000  0.4501890000000 1.0
C      1  0.4516170000000  0.4469080000000  0.4965630000000 1.0
C      1  0.5220540000000  0.4431240000000  0.5009680000000 1.0
C      1  0.5498420000000  0.4995430000000  0.4432990000000 1.0
C      1  0.4925860000000  0.4674820000000  0.4386630000000 1.0
C      1  0.4586360000000  0.4573520000000  0.5449450000000 1.0
C      1  0.5748800000000  0.5245270000000  0.4976270000000 1.0
C      1  0.4756840000000  0.5107410000000  0.4693920000000 1.0
C      1  0.4469980000000  0.5114600000000  0.4417630000000 1.0
C      1  0.4937070000000  0.4830390000000  0.5046870000000 1.0
C      1  0.4932270000000  0.5064850000000  0.4486470000000 1.0
C      1  0.5666340000000  0.4786370000000  0.5115500000000 1.0
C      1  0.5000860000000  0.5450490000000  0.4765220000000 1.0
C      1  0.4727100000000  0.4698400000000  0.4578420000000 1.0
C      1  0.5113770000000  0.4652530000000  0.4205310000000 1.0
C      1  0.5198440000000  0.5433660000000  0.5216680000000 1.0
C      1  0.5219560000000  0.4966440000000  0.4601010000000 1.0
C      1  0.4383410000000  0.4610290000000  0.5909790000000 1.0
C      1  0.5604020000000  0.5074350000000  0.5147840000000 1.0
C      1  0.5512990000000  0.4447270000000  0.4742820000000 1.0
C      1  0.4789390000000  0.4335310000000  0.5799060000000 1.0
C      1  0.4737700000000  0.5300930000000  0.5154510000000 1.0
C      1  0.4399880000000  0.4747940000000  0.5323990000000 1.0
C      1  0.4471100000000  0.4212470000000  0.5001220000000 1.0
C      1  0.5108770000000  0.5927150000000  0.5495520000000 1.0
C      1  0.4841610000000  0.5084300000000  0.4971630000000 1.0
C      1  0.4493460000000  0.5232410000000  0.4173460000000 1.0
C      1  0.4677200000000  0.5451760000000  0.4875550000000 1.0
C      1  0.5680480000000  0.4724210000000  0.4799360000000 1.0
C      1  0.4288910000000  0.5054140000000  0.4938510000000 1.0
C      1  0.4568770000000  0.4514840000000  0.5737900000000 1.0
C      1  0.4533460000000  0.5229680000000  0.5333410000000 1.0
C      1  0.6014830000000  0.5349870000000  0.4577080000000 1.0
C      1  0.5159280000000  0.4814110000000  0.5219370000000 1.0
C      1  0.5370940000000  0.5112570000000  0.5603280000000 1.0
C      1  0.4459840000000  0.5244550000000  0.4728580000000 1.0
C      1  0.5212140000000  0.5117540000000  0.4301900000000 1.0
C      1  0.5724420000000  0.4952760000000  0.4598580000000 1.0
C      1  0.5390750000000  0.4209910000000  0.4871170000000 1.0
C      1  0.4837850000000  0.5736260000000  0.4838260000000 1.0
C      1  0.4949840000000  0.4434260000000  0.5083270000000 1.0
C      1  0.5276660000000  0.5382430000000  0.5529880000000 1.0
END
