TITL C-2778428-5639-1117 0.00108935509375363 125000 -1063.13369436201 0 0 183 (C1) n - 1
REM
REM in /home/nfs/bkarasulu/CARBON/AIRSS/Generating-Clusters/REBO/Only-C1/SD-CG/HFTN-CG
REM
REM
REM
REM
REM
REM ./C.cell (11c1c37f851c82e70ff6c80c92926a4b)
REM
REM compiler GCC version 9.2.1 20190827 (Red Hat 9.2.1-1)
REM options -cpp -mtune=generic -march=x86-64 -g -O0 -fpre-include=/usr/include/finclude/math-vector-fortran.h
REM seed 1679591280 1287620704 -404041115 -62760623 -2131684529 1941624620 -1601395433 -667208509 1059671542 -1649148906 703826820 757352471 165054763 743587844 -165698587 1048605683 403891820 813302167 -154609401 1444843019 -1193219326 -1829396967 1556710727 1021582715 1111653735 327085618 -155111708 1585562836 1335067917 1992126052 -456888055 -870629152 -391714611
REM
CELL 1.54180   50.00000   50.00000   50.00000   90.00000   90.00000   90.00000
LATT -1
SFAC C  
C      1  0.4679040000000  0.6008060000000  0.4976500000000 1.0
C      1  0.4743210000000  0.5380490000000  0.4697110000000 1.0
C      1  0.5973330000000  0.5021790000000  0.5347250000000 1.0
C      1  0.3988630000000  0.5049060000000  0.5096430000000 1.0
C      1  0.5387920000000  0.5786140000000  0.4492320000000 1.0
C      1  0.5637370000000  0.5170390000000  0.5888620000000 1.0
C      1  0.4781020000000  0.4929050000000  0.4597780000000 1.0
C      1  0.5629020000000  0.4925480000000  0.4153170000000 1.0
C      1  0.5790680000000  0.4579270000000  0.4480100000000 1.0
C      1  0.4168960000000  0.5465600000000  0.5283850000000 1.0
C      1  0.4397970000000  0.4925560000000  0.5172660000000 1.0
C      1  0.4945000000000  0.4057480000000  0.5403390000000 1.0
C      1  0.5265990000000  0.5191680000000  0.3820710000000 1.0
C      1  0.4286790000000  0.5699100000000  0.4982970000000 1.0
C      1  0.6138570000000  0.4890480000000  0.5008460000000 1.0
C      1  0.5234570000000  0.5227250000000  0.4980690000000 1.0
C      1  0.4853380000000  0.4301750000000  0.4388610000000 1.0
C      1  0.4721510000000  0.4752480000000  0.5613060000000 1.0
C      1  0.4006910000000  0.5025360000000  0.5402040000000 1.0
C      1  0.5269540000000  0.5920000000000  0.5650420000000 1.0
C      1  0.4913100000000  0.5406630000000  0.4403170000000 1.0
C      1  0.5345520000000  0.4786510000000  0.5895310000000 1.0
C      1  0.5465900000000  0.4994790000000  0.4510930000000 1.0
C      1  0.5066280000000  0.4744090000000  0.3971010000000 1.0
C      1  0.5467380000000  0.5663700000000  0.5715260000000 1.0
C      1  0.4469300000000  0.5425090000000  0.4894630000000 1.0
C      1  0.4065520000000  0.4492470000000  0.5381890000000 1.0
C      1  0.5215670000000  0.5500450000000  0.4454590000000 1.0
C      1  0.5035470000000  0.5697360000000  0.4129320000000 1.0
C      1  0.4365090000000  0.5087690000000  0.4692840000000 1.0
C      1  0.5043350000000  0.4888920000000  0.4895820000000 1.0
C      1  0.5188290000000  0.4992550000000  0.5333810000000 1.0
C      1  0.5803270000000  0.4675620000000  0.4989660000000 1.0
C      1  0.5199820000000  0.4526940000000  0.5910860000000 1.0
C      1  0.4704210000000  0.4038630000000  0.4773990000000 1.0
C      1  0.5364120000000  0.4415650000000  0.5051140000000 1.0
C      1  0.5140140000000  0.4216070000000  0.4260630000000 1.0
C      1  0.4291800000000  0.5172620000000  0.5004470000000 1.0
C      1  0.4492680000000  0.5054230000000  0.5448120000000 1.0
C      1  0.5529650000000  0.5211090000000  0.4182230000000 1.0
C      1  0.4779500000000  0.4292630000000  0.5530030000000 1.0
C      1  0.5619740000000  0.4372520000000  0.4365810000000 1.0
C      1  0.5068430000000  0.5306770000000  0.5750540000000 1.0
C      1  0.4445130000000  0.4601380000000  0.4574180000000 1.0
C      1  0.5311590000000  0.5515310000000  0.5101980000000 1.0
C      1  0.5870870000000  0.5156970000000  0.5639280000000 1.0
C      1  0.5348430000000  0.4148610000000  0.4871090000000 1.0
C      1  0.5021510000000  0.6043490000000  0.5456930000000 1.0
C      1  0.4647690000000  0.5533350000000  0.4305710000000 1.0
C      1  0.4610350000000  0.4439940000000  0.5273190000000 1.0
C      1  0.4409160000000  0.4541810000000  0.4180710000000 1.0
C      1  0.3996170000000  0.4785080000000  0.4881980000000 1.0
C      1  0.5176470000000  0.3953830000000  0.5286670000000 1.0
C      1  0.5498430000000  0.5942240000000  0.4989740000000 1.0
C      1  0.4968800000000  0.5787840000000  0.5668560000000 1.0
C      1  0.5582700000000  0.5368670000000  0.4853910000000 1.0
C      1  0.4151740000000  0.5567410000000  0.4699600000000 1.0
C      1  0.5369270000000  0.4443360000000  0.4257780000000 1.0
C      1  0.4801850000000  0.4832640000000  0.5331360000000 1.0
C      1  0.5349800000000  0.5746890000000  0.4173180000000 1.0
C      1  0.5110980000000  0.5922010000000  0.4619100000000 1.0
C      1  0.4460260000000  0.5374590000000  0.5337010000000 1.0
C      1  0.4997640000000  0.4486230000000  0.4634740000000 1.0
C      1  0.4565870000000  0.5826450000000  0.4440700000000 1.0
C      1  0.6024180000000  0.4693650000000  0.5254160000000 1.0
C      1  0.4549390000000  0.5166990000000  0.4176510000000 1.0
C      1  0.5192360000000  0.4641870000000  0.4396700000000 1.0
C      1  0.4382680000000  0.4779970000000  0.5618290000000 1.0
C      1  0.4097540000000  0.4474650000000  0.4213960000000 1.0
C      1  0.5141640000000  0.4406470000000  0.5408880000000 1.0
C      1  0.4243970000000  0.5295860000000  0.4256380000000 1.0
C      1  0.4729560000000  0.4137070000000  0.5170510000000 1.0
C      1  0.5581100000000  0.5500680000000  0.5950430000000 1.0
C      1  0.4300380000000  0.4414950000000  0.5147830000000 1.0
C      1  0.4532060000000  0.5534140000000  0.5727010000000 1.0
C      1  0.5536930000000  0.4944020000000  0.5677450000000 1.0
C      1  0.5030110000000  0.5290270000000  0.6068970000000 1.0
C      1  0.4329450000000  0.5583520000000  0.4419850000000 1.0
C      1  0.4529700000000  0.5169280000000  0.5888460000000 1.0
C      1  0.5425130000000  0.4835610000000  0.4744020000000 1.0
C      1  0.4091170000000  0.4779840000000  0.5516470000000 1.0
C      1  0.4730950000000  0.4402510000000  0.5804390000000 1.0
C      1  0.4427610000000  0.5887490000000  0.5172480000000 1.0
C      1  0.4632690000000  0.4124290000000  0.4483150000000 1.0
C      1  0.4645410000000  0.4909920000000  0.5886200000000 1.0
C      1  0.5250720000000  0.4085740000000  0.4555460000000 1.0
C      1  0.5865630000000  0.4965080000000  0.4884700000000 1.0
C      1  0.4710490000000  0.4641930000000  0.4729650000000 1.0
C      1  0.5818190000000  0.5473680000000  0.5713100000000 1.0
C      1  0.4309310000000  0.5288990000000  0.5714290000000 1.0
C      1  0.5865070000000  0.4395830000000  0.5293320000000 1.0
C      1  0.4972980000000  0.5410910000000  0.4900310000000 1.0
C      1  0.3946290000000  0.4466560000000  0.4413080000000 1.0
C      1  0.4001810000000  0.5522690000000  0.5004270000000 1.0
C      1  0.5007440000000  0.5723550000000  0.4950180000000 1.0
C      1  0.5401650000000  0.3890660000000  0.4963660000000 1.0
C      1  0.5983500000000  0.5574290000000  0.5254480000000 1.0
C      1  0.4997250000000  0.5110450000000  0.4316850000000 1.0
C      1  0.5136930000000  0.3764590000000  0.5045390000000 1.0
C      1  0.4941430000000  0.5322370000000  0.5228670000000 1.0
C      1  0.5181340000000  0.5756220000000  0.5231660000000 1.0
C      1  0.4898240000000  0.5838070000000  0.4366110000000 1.0
C      1  0.5585890000000  0.4153690000000  0.4558980000000 1.0
C      1  0.5469840000000  0.5453070000000  0.5461680000000 1.0
C      1  0.4386520000000  0.4316530000000  0.4440500000000 1.0
C      1  0.4177030000000  0.4701780000000  0.5134600000000 1.0
C      1  0.5018460000000  0.4481140000000  0.4076760000000 1.0
C      1  0.4430190000000  0.4125270000000  0.4907400000000 1.0
C      1  0.3894200000000  0.5113570000000  0.4715410000000 1.0
C      1  0.5189290000000  0.5321730000000  0.5430800000000 1.0
C      1  0.4130250000000  0.5270360000000  0.4561030000000 1.0
C      1  0.5414370000000  0.4152240000000  0.5264830000000 1.0
C      1  0.5988670000000  0.5289260000000  0.5135120000000 1.0
C      1  0.5297110000000  0.5313480000000  0.4674100000000 1.0
C      1  0.4817310000000  0.4795220000000  0.6082040000000 1.0
C      1  0.5733320000000  0.4234210000000  0.4814760000000 1.0
C      1  0.5313520000000  0.5414810000000  0.4145720000000 1.0
C      1  0.5542780000000  0.5660760000000  0.4930390000000 1.0
C      1  0.5578200000000  0.5907510000000  0.5506130000000 1.0
C      1  0.5413570000000  0.4992580000000  0.5006120000000 1.0
C      1  0.4509870000000  0.5766440000000  0.5479430000000 1.0
C      1  0.5095260000000  0.5059800000000  0.4641750000000 1.0
C      1  0.5248080000000  0.4315300000000  0.5722810000000 1.0
C      1  0.4902830000000  0.4653500000000  0.5078390000000 1.0
C      1  0.4854580000000  0.5047650000000  0.5120540000000 1.0
C      1  0.5745540000000  0.4809350000000  0.5487340000000 1.0
C      1  0.4577230000000  0.4682900000000  0.5041250000000 1.0
C      1  0.4773600000000  0.5950430000000  0.4669330000000 1.0
C      1  0.4460490000000  0.4849900000000  0.4074570000000 1.0
C      1  0.4819930000000  0.4821890000000  0.4276340000000 1.0
C      1  0.5017970000000  0.5014520000000  0.5612970000000 1.0
C      1  0.5595540000000  0.4681870000000  0.5237260000000 1.0
C      1  0.4783540000000  0.5249810000000  0.3975460000000 1.0
C      1  0.5291320000000  0.4583070000000  0.4779740000000 1.0
C      1  0.4983580000000  0.4367930000000  0.5155350000000 1.0
C      1  0.5707500000000  0.4218360000000  0.5105520000000 1.0
C      1  0.5867900000000  0.5081610000000  0.4596360000000 1.0
C      1  0.4651710000000  0.5044150000000  0.4887950000000 1.0
C      1  0.4708100000000  0.5515920000000  0.5242450000000 1.0
C      1  0.4719310000000  0.5390830000000  0.5980640000000 1.0
C      1  0.5286870000000  0.4736100000000  0.5147970000000 1.0
C      1  0.5336250000000  0.4924690000000  0.3978140000000 1.0
C      1  0.4045600000000  0.4502560000000  0.4698180000000 1.0
C      1  0.5191010000000  0.6008520000000  0.4921670000000 1.0
C      1  0.5661350000000  0.5591440000000  0.4536560000000 1.0
C      1  0.5884640000000  0.5586980000000  0.4708410000000 1.0
C      1  0.5681950000000  0.5146850000000  0.5092400000000 1.0
C      1  0.5696100000000  0.4435810000000  0.5535710000000 1.0
C      1  0.4117350000000  0.5266500000000  0.5509540000000 1.0
C      1  0.5605380000000  0.5173140000000  0.5423250000000 1.0
C      1  0.5272730000000  0.4975080000000  0.6097120000000 1.0
C      1  0.4915370000000  0.4541030000000  0.5982000000000 1.0
C      1  0.5256070000000  0.4926110000000  0.4297630000000 1.0
C      1  0.4400360000000  0.4104040000000  0.5244270000000 1.0
C      1  0.4237320000000  0.4808740000000  0.4658610000000 1.0
C      1  0.4776490000000  0.4921680000000  0.3961690000000 1.0
C      1  0.4455940000000  0.4464170000000  0.5689710000000 1.0
C      1  0.5478620000000  0.4231740000000  0.5555660000000 1.0
C      1  0.4995430000000  0.4978800000000  0.6197560000000 1.0
C      1  0.4849250000000  0.5521330000000  0.5630740000000 1.0
C      1  0.4684130000000  0.5678910000000  0.4955000000000 1.0
C      1  0.5637530000000  0.5286300000000  0.4467920000000 1.0
C      1  0.3816250000000  0.5279920000000  0.4961470000000 1.0
C      1  0.4793620000000  0.5833180000000  0.5315600000000 1.0
C      1  0.4275590000000  0.4288930000000  0.4755060000000 1.0
C      1  0.5063550000000  0.4693330000000  0.5575050000000 1.0
C      1  0.5975910000000  0.5336230000000  0.4798250000000 1.0
C      1  0.4720210000000  0.4528100000000  0.4208870000000 1.0
C      1  0.5805430000000  0.4842920000000  0.4370330000000 1.0
C      1  0.4954050000000  0.6074090000000  0.5133070000000 1.0
C      1  0.5392810000000  0.4617110000000  0.5508840000000 1.0
C      1  0.5830460000000  0.4498870000000  0.4754980000000 1.0
C      1  0.5029490000000  0.3932980000000  0.4770180000000 1.0
C      1  0.5381990000000  0.5967660000000  0.5270350000000 1.0
C      1  0.4960500000000  0.4244550000000  0.4862890000000 1.0
C      1  0.4596510000000  0.5175250000000  0.4473390000000 1.0
C      1  0.4295710000000  0.4281290000000  0.5516910000000 1.0
C      1  0.5763240000000  0.5636460000000  0.5449940000000 1.0
C      1  0.6165460000000  0.5753540000000  0.5186320000000 1.0
C      1  0.5037250000000  0.5399670000000  0.3962440000000 1.0
C      1  0.5372110000000  0.5278790000000  0.6072310000000 1.0
C      1  0.4748200000000  0.5203560000000  0.5555870000000 1.0
C      1  0.4190920000000  0.5028350000000  0.4089480000000 1.0
END
