TITL C-2778435-5768-479 -0.00101267773438765 125000 -928.669522368861 0 0 160 (C1) n - 1
REM
REM in /home/nfs/bkarasulu/CARBON/AIRSS/Generating-Clusters/REBO/Only-C1/SD-CG/HFTN-CG
REM
REM
REM
REM
REM
REM ./C.cell (11c1c37f851c82e70ff6c80c92926a4b)
REM
REM compiler GCC version 9.2.1 20190827 (Red Hat 9.2.1-1)
REM options -cpp -mtune=generic -march=x86-64 -g -O0 -fpre-include=/usr/include/finclude/math-vector-fortran.h
REM seed 204816602 1548396426 267531173 895886402 -2124112490 1371408725 -953586478 -1096763969 -178411478 -1173810734 -1526519682 487277747 -387539293 1503434315 1178906798 -1627271811 -751005504 -383903033 897338609 1499232327 -49569051 609749547 887089620 1025397550 -927858890 173440568 -407587367 -1449533539 -464773156 -410629054 440675651 -1571540017 -1857170064
REM
CELL 1.54180   50.00000   50.00000   50.00000   90.00000   90.00000   90.00000
LATT -1
SFAC C  
C      1  0.4711480000000  0.4373930000000  0.5716140000000 1.0
C      1  0.5161030000000  0.4933040000000  0.5741500000000 1.0
C      1  0.4151450000000  0.4772100000000  0.4664190000000 1.0
C      1  0.5038000000000  0.5488460000000  0.4397510000000 1.0
C      1  0.5630350000000  0.5542280000000  0.4355560000000 1.0
C      1  0.5045790000000  0.5155490000000  0.4420020000000 1.0
C      1  0.4600380000000  0.5793020000000  0.5629600000000 1.0
C      1  0.4924210000000  0.4011380000000  0.5177460000000 1.0
C      1  0.4139160000000  0.4864170000000  0.4965360000000 1.0
C      1  0.5797100000000  0.4354300000000  0.5127040000000 1.0
C      1  0.4906430000000  0.4957260000000  0.6227690000000 1.0
C      1  0.5176550000000  0.5031190000000  0.4015170000000 1.0
C      1  0.5559730000000  0.4069440000000  0.5275500000000 1.0
C      1  0.4637270000000  0.5174790000000  0.5307860000000 1.0
C      1  0.5406400000000  0.4886520000000  0.4603680000000 1.0
C      1  0.4920780000000  0.4704390000000  0.6058470000000 1.0
C      1  0.5899080000000  0.4946060000000  0.4457620000000 1.0
C      1  0.4795560000000  0.5228140000000  0.5578060000000 1.0
C      1  0.4503580000000  0.5421430000000  0.5203430000000 1.0
C      1  0.5715810000000  0.5333870000000  0.4187910000000 1.0
C      1  0.5558360000000  0.4329260000000  0.4972100000000 1.0
C      1  0.6011810000000  0.4400260000000  0.4529580000000 1.0
C      1  0.4841720000000  0.5900930000000  0.5600350000000 1.0
C      1  0.4320110000000  0.5248960000000  0.4750480000000 1.0
C      1  0.4719730000000  0.5916630000000  0.5220620000000 1.0
C      1  0.4996190000000  0.5021940000000  0.5395150000000 1.0
C      1  0.5540070000000  0.4630380000000  0.4700040000000 1.0
C      1  0.6001620000000  0.5056350000000  0.4724010000000 1.0
C      1  0.5087030000000  0.5054040000000  0.5966100000000 1.0
C      1  0.4441520000000  0.4949130000000  0.5378760000000 1.0
C      1  0.4802020000000  0.4390730000000  0.5168400000000 1.0
C      1  0.4560070000000  0.4915920000000  0.4386400000000 1.0
C      1  0.4694180000000  0.4669180000000  0.5855730000000 1.0
C      1  0.5319860000000  0.6032900000000  0.5399880000000 1.0
C      1  0.4101350000000  0.5355160000000  0.4546470000000 1.0
C      1  0.4617880000000  0.5695610000000  0.5189330000000 1.0
C      1  0.5196550000000  0.4337940000000  0.5915630000000 1.0
C      1  0.4239480000000  0.4745020000000  0.5654580000000 1.0
C      1  0.5185810000000  0.4731430000000  0.3966110000000 1.0
C      1  0.6005100000000  0.4648140000000  0.4415120000000 1.0
C      1  0.5563010000000  0.4674610000000  0.5172910000000 1.0
C      1  0.4136430000000  0.5205420000000  0.4294500000000 1.0
C      1  0.5635430000000  0.5129420000000  0.4581810000000 1.0
C      1  0.5084210000000  0.5273950000000  0.5048320000000 1.0
C      1  0.5239200000000  0.4720080000000  0.5026280000000 1.0
C      1  0.4670680000000  0.4040850000000  0.5310420000000 1.0
C      1  0.5612560000000  0.5870520000000  0.5033580000000 1.0
C      1  0.4259180000000  0.5321680000000  0.5616870000000 1.0
C      1  0.5237090000000  0.5921600000000  0.4272560000000 1.0
C      1  0.5346780000000  0.4237900000000  0.5427630000000 1.0
C      1  0.5272870000000  0.5572870000000  0.4613040000000 1.0
C      1  0.5286010000000  0.4422900000000  0.5007150000000 1.0
C      1  0.4859550000000  0.4654970000000  0.4034180000000 1.0
C      1  0.4716950000000  0.3969750000000  0.4647100000000 1.0
C      1  0.4839100000000  0.5586450000000  0.5873630000000 1.0
C      1  0.4517460000000  0.4417450000000  0.4551530000000 1.0
C      1  0.5097430000000  0.5732780000000  0.5720850000000 1.0
C      1  0.4150790000000  0.5076660000000  0.5449790000000 1.0
C      1  0.4599820000000  0.4332030000000  0.5436030000000 1.0
C      1  0.4437990000000  0.4880910000000  0.5827030000000 1.0
C      1  0.5434540000000  0.4383630000000  0.4599200000000 1.0
C      1  0.5183420000000  0.4326200000000  0.4504380000000 1.0
C      1  0.4083160000000  0.4492000000000  0.4854370000000 1.0
C      1  0.4485830000000  0.3836730000000  0.5336830000000 1.0
C      1  0.5408200000000  0.5006830000000  0.5536940000000 1.0
C      1  0.3933840000000  0.5020650000000  0.5041270000000 1.0
C      1  0.5696050000000  0.4639650000000  0.5553530000000 1.0
C      1  0.5679810000000  0.5695980000000  0.5536220000000 1.0
C      1  0.3876420000000  0.5681470000000  0.4892090000000 1.0
C      1  0.4912100000000  0.5142830000000  0.4017450000000 1.0
C      1  0.5104510000000  0.4446250000000  0.4135450000000 1.0
C      1  0.4615340000000  0.4593830000000  0.4276900000000 1.0
C      1  0.5260900000000  0.5507200000000  0.4066520000000 1.0
C      1  0.5710680000000  0.5025880000000  0.4203770000000 1.0
C      1  0.4280550000000  0.4999970000000  0.4514390000000 1.0
C      1  0.5348990000000  0.5760030000000  0.5572940000000 1.0
C      1  0.5395020000000  0.4543030000000  0.5422360000000 1.0
C      1  0.4262430000000  0.5362290000000  0.5023160000000 1.0
C      1  0.3685640000000  0.5873130000000  0.4917100000000 1.0
C      1  0.5781300000000  0.4238040000000  0.4468810000000 1.0
C      1  0.5053110000000  0.5823560000000  0.4613010000000 1.0
C      1  0.4040650000000  0.5599120000000  0.5098100000000 1.0
C      1  0.4561120000000  0.5399090000000  0.4184250000000 1.0
C      1  0.5325530000000  0.5754560000000  0.4896570000000 1.0
C      1  0.4295690000000  0.5659990000000  0.5658440000000 1.0
C      1  0.5679480000000  0.5173630000000  0.5293530000000 1.0
C      1  0.4514880000000  0.5180390000000  0.5764250000000 1.0
C      1  0.5777710000000  0.4691400000000  0.4175850000000 1.0
C      1  0.4386750000000  0.4695610000000  0.4044420000000 1.0
C      1  0.5468120000000  0.4959130000000  0.5240290000000 1.0
C      1  0.4942960000000  0.5871820000000  0.4335770000000 1.0
C      1  0.4922960000000  0.5523210000000  0.4910210000000 1.0
C      1  0.4542600000000  0.5509510000000  0.5824490000000 1.0
C      1  0.5730890000000  0.4325970000000  0.5425940000000 1.0
C      1  0.5443260000000  0.4763930000000  0.5967280000000 1.0
C      1  0.5467240000000  0.4592530000000  0.4075620000000 1.0
C      1  0.4639640000000  0.4718730000000  0.5527280000000 1.0
C      1  0.5085390000000  0.5451530000000  0.6004920000000 1.0
C      1  0.5210960000000  0.4145390000000  0.5652740000000 1.0
C      1  0.4624440000000  0.5228850000000  0.4679650000000 1.0
C      1  0.6010590000000  0.4548330000000  0.5158100000000 1.0
C      1  0.5333090000000  0.5228270000000  0.4146070000000 1.0
C      1  0.4928080000000  0.4215280000000  0.5790920000000 1.0
C      1  0.5259870000000  0.5378130000000  0.5808860000000 1.0
C      1  0.5764230000000  0.5179780000000  0.5571970000000 1.0
C      1  0.4934460000000  0.4396660000000  0.4680060000000 1.0
C      1  0.5657210000000  0.4375650000000  0.4243880000000 1.0
C      1  0.4292800000000  0.4359710000000  0.5072740000000 1.0
C      1  0.4911760000000  0.5513480000000  0.5538230000000 1.0
C      1  0.5600770000000  0.5924560000000  0.5313930000000 1.0
C      1  0.5695790000000  0.5454490000000  0.4670550000000 1.0
C      1  0.4376730000000  0.4557030000000  0.5405660000000 1.0
C      1  0.4549080000000  0.4275900000000  0.5006280000000 1.0
C      1  0.5002890000000  0.6050090000000  0.5349240000000 1.0
C      1  0.5092920000000  0.5817170000000  0.5121240000000 1.0
C      1  0.5064690000000  0.4891130000000  0.4630180000000 1.0
C      1  0.4951180000000  0.5420990000000  0.4075140000000 1.0
C      1  0.5366840000000  0.5501810000000  0.5380760000000 1.0
C      1  0.5073440000000  0.4256220000000  0.5079520000000 1.0
C      1  0.5152240000000  0.4697210000000  0.4360770000000 1.0
C      1  0.4907170000000  0.4644970000000  0.4801920000000 1.0
C      1  0.4644730000000  0.4731100000000  0.4953810000000 1.0
C      1  0.5789060000000  0.5457440000000  0.5645300000000 1.0
C      1  0.4731590000000  0.5197020000000  0.4372420000000 1.0
C      1  0.5975110000000  0.4696870000000  0.5388450000000 1.0
C      1  0.5194820000000  0.4610630000000  0.6001760000000 1.0
C      1  0.5361990000000  0.5272410000000  0.4476190000000 1.0
C      1  0.4992550000000  0.5537540000000  0.5244630000000 1.0
C      1  0.4811330000000  0.4978930000000  0.5119790000000 1.0
C      1  0.5576690000000  0.5419830000000  0.5199820000000 1.0
C      1  0.4876490000000  0.4385800000000  0.4358120000000 1.0
C      1  0.5944560000000  0.4862940000000  0.4920560000000 1.0
C      1  0.4330920000000  0.5244460000000  0.4085770000000 1.0
C      1  0.5215950000000  0.5257510000000  0.5514530000000 1.0
C      1  0.5140480000000  0.4720140000000  0.5476140000000 1.0
C      1  0.4202130000000  0.5549330000000  0.5368600000000 1.0
C      1  0.4734330000000  0.5614010000000  0.4365050000000 1.0
C      1  0.4870100000000  0.4623420000000  0.5367820000000 1.0
C      1  0.5722480000000  0.4687390000000  0.4918650000000 1.0
C      1  0.4376350000000  0.4757630000000  0.5130060000000 1.0
C      1  0.5203940000000  0.5028670000000  0.5054520000000 1.0
C      1  0.5643610000000  0.4901070000000  0.5729140000000 1.0
C      1  0.4963560000000  0.5916000000000  0.4847900000000 1.0
C      1  0.4040820000000  0.4550690000000  0.5191400000000 1.0
C      1  0.5032930000000  0.5255380000000  0.6227250000000 1.0
C      1  0.5606370000000  0.4118100000000  0.4724340000000 1.0
C      1  0.3926450000000  0.5549180000000  0.4645830000000 1.0
C      1  0.5589350000000  0.5559420000000  0.4926930000000 1.0
C      1  0.4710930000000  0.4927180000000  0.4078050000000 1.0
C      1  0.5433900000000  0.4865980000000  0.4272620000000 1.0
C      1  0.4758430000000  0.5508670000000  0.4681460000000 1.0
C      1  0.4035700000000  0.4758150000000  0.5395850000000 1.0
C      1  0.4401290000000  0.4593280000000  0.4767350000000 1.0
C      1  0.4836780000000  0.5055740000000  0.4822170000000 1.0
C      1  0.4030950000000  0.5220700000000  0.5200380000000 1.0
C      1  0.4410340000000  0.4986880000000  0.3978120000000 1.0
C      1  0.4592090000000  0.4196720000000  0.4726150000000 1.0
C      1  0.5599020000000  0.3937530000000  0.5014520000000 1.0
C      1  0.5407460000000  0.5694740000000  0.4233940000000 1.0
C      1  0.5983300000000  0.5327070000000  0.4732500000000 1.0
END
