TITL C-2778426-5645-1267 -0.00182612361547358 125000 -138.172812812587 0 0 25 (C1) n - 1
REM
REM in /home/nfs/bkarasulu/CARBON/AIRSS/Generating-Clusters/REBO/Only-C1/SD-CG/HFTN-CG
REM
REM
REM
REM
REM
REM ./C.cell (11c1c37f851c82e70ff6c80c92926a4b)
REM
REM compiler GCC version 9.2.1 20190827 (Red Hat 9.2.1-1)
REM options -cpp -mtune=generic -march=x86-64 -g -O0 -fpre-include=/usr/include/finclude/math-vector-fortran.h
REM seed -1183364894 1724814744 -57074583 677280552 1143334641 -56980247 1574760474 2129187047 1848520351 907338824 -7942081 1304889791 1740088772 318234936 -1773445603 2145821689 3024398 601347962 762120537 -549905278 -236312010 -1982421215 -485094288 -821620244 -2011975954 -1321183827 2084777577 291166369 -1537307887 1014853742 -2141107803 413080899 581615695
REM
CELL 1.54180   50.00000   50.00000   50.00000   90.00000   90.00000   90.00000
LATT -1
SFAC C  
C      1  0.5059930000000  0.4659620000000  0.4763150000000 1.0
C      1  0.4578780000000  0.4839170000000  0.5352930000000 1.0
C      1  0.5173380000000  0.5085240000000  0.4358220000000 1.0
C      1  0.5321020000000  0.4893610000000  0.5257620000000 1.0
C      1  0.4638030000000  0.4911810000000  0.5041580000000 1.0
C      1  0.4914530000000  0.4890430000000  0.4359980000000 1.0
C      1  0.4841660000000  0.4773990000000  0.4619220000000 1.0
C      1  0.4994810000000  0.5380450000000  0.4847710000000 1.0
C      1  0.5287360000000  0.4882180000000  0.4838990000000 1.0
C      1  0.5245180000000  0.5218980000000  0.4860170000000 1.0
C      1  0.4695010000000  0.4972970000000  0.4776740000000 1.0
C      1  0.5117920000000  0.4721000000000  0.5088410000000 1.0
C      1  0.5329670000000  0.4844600000000  0.5532330000000 1.0
C      1  0.5660550000000  0.5121020000000  0.4517360000000 1.0
C      1  0.4537280000000  0.4846950000000  0.5625800000000 1.0
C      1  0.4760930000000  0.5267230000000  0.4677650000000 1.0
C      1  0.5386130000000  0.5130180000000  0.5136320000000 1.0
C      1  0.4963040000000  0.4823800000000  0.5896840000000 1.0
C      1  0.5369220000000  0.5083880000000  0.4584510000000 1.0
C      1  0.4696750000000  0.4836730000000  0.5845960000000 1.0
C      1  0.4846480000000  0.4736450000000  0.5207540000000 1.0
C      1  0.4534910000000  0.5436260000000  0.4674880000000 1.0
C      1  0.4969080000000  0.5610920000000  0.4974750000000 1.0
C      1  0.4877240000000  0.5208920000000  0.4392820000000 1.0
C      1  0.5201110000000  0.4823600000000  0.5768500000000 1.0
END
