TITL C-2778435-5768-1196 0.00553901216776205 125000 -949.042038196947 0 0 165 (C1) n - 1
REM
REM in /home/nfs/bkarasulu/CARBON/AIRSS/Generating-Clusters/REBO/Only-C1/SD-CG/HFTN-CG
REM
REM
REM
REM
REM
REM ./C.cell (11c1c37f851c82e70ff6c80c92926a4b)
REM
REM compiler GCC version 9.2.1 20190827 (Red Hat 9.2.1-1)
REM options -cpp -mtune=generic -march=x86-64 -g -O0 -fpre-include=/usr/include/finclude/math-vector-fortran.h
REM seed 213334595 1788762570 -368632789 -971443767 971698475 -776795245 -1634327247 366206227 1688253328 -1541609350 123950641 -736089564 -304149758 61724965 1318358931 -1520381386 115619255 -1786937654 -958421860 1535573318 1304589569 906679328 683794831 1729068893 -1436202486 -1837599281 -1756502533 499735125 449509007 2135645513 1883652410 1308104493 1934211363
REM
CELL 1.54180   50.00000   50.00000   50.00000   90.00000   90.00000   90.00000
LATT -1
SFAC C  
C      1  0.5624010000000  0.5038590000000  0.5319320000000 1.0
C      1  0.4215120000000  0.4721490000000  0.5363700000000 1.0
C      1  0.4874150000000  0.5583730000000  0.4888490000000 1.0
C      1  0.4829560000000  0.4935420000000  0.5067250000000 1.0
C      1  0.4730510000000  0.4732930000000  0.5993640000000 1.0
C      1  0.4803870000000  0.4696580000000  0.5493840000000 1.0
C      1  0.4840600000000  0.5497810000000  0.5186900000000 1.0
C      1  0.5592900000000  0.5096970000000  0.5846820000000 1.0
C      1  0.4492170000000  0.4168590000000  0.5284750000000 1.0
C      1  0.5280700000000  0.5656350000000  0.4286340000000 1.0
C      1  0.4417490000000  0.4468920000000  0.5712650000000 1.0
C      1  0.4923120000000  0.5208740000000  0.5255380000000 1.0
C      1  0.4952410000000  0.5744360000000  0.4236220000000 1.0
C      1  0.4470530000000  0.4861010000000  0.5979150000000 1.0
C      1  0.4538280000000  0.5204460000000  0.5047440000000 1.0
C      1  0.5938910000000  0.5425060000000  0.4904830000000 1.0
C      1  0.5557620000000  0.5571160000000  0.5350610000000 1.0
C      1  0.4358580000000  0.5702460000000  0.5515050000000 1.0
C      1  0.5513300000000  0.4147660000000  0.5075880000000 1.0
C      1  0.3980620000000  0.5336000000000  0.4768940000000 1.0
C      1  0.5772310000000  0.5593420000000  0.5112870000000 1.0
C      1  0.5003230000000  0.3948000000000  0.4783390000000 1.0
C      1  0.5421410000000  0.4471480000000  0.4520780000000 1.0
C      1  0.5113740000000  0.5787730000000  0.4585190000000 1.0
C      1  0.5200540000000  0.5769740000000  0.5658940000000 1.0
C      1  0.5263240000000  0.4237140000000  0.4856960000000 1.0
C      1  0.5244490000000  0.4303600000000  0.4205150000000 1.0
C      1  0.4298060000000  0.4889090000000  0.5087760000000 1.0
C      1  0.4389650000000  0.4680650000000  0.4457310000000 1.0
C      1  0.4176820000000  0.5192420000000  0.5655020000000 1.0
C      1  0.4843340000000  0.5902230000000  0.4927240000000 1.0
C      1  0.6067070000000  0.4778480000000  0.5284130000000 1.0
C      1  0.5603820000000  0.4822040000000  0.4136430000000 1.0
C      1  0.5389280000000  0.5617520000000  0.4995330000000 1.0
C      1  0.5500950000000  0.5449640000000  0.4649900000000 1.0
C      1  0.4433560000000  0.4893730000000  0.4822620000000 1.0
C      1  0.5185780000000  0.4360050000000  0.5155030000000 1.0
C      1  0.4608050000000  0.5009320000000  0.4395160000000 1.0
C      1  0.5603350000000  0.5123320000000  0.4289810000000 1.0
C      1  0.4516640000000  0.5215490000000  0.4731630000000 1.0
C      1  0.4960570000000  0.5133140000000  0.6075380000000 1.0
C      1  0.4686790000000  0.5697650000000  0.5418690000000 1.0
C      1  0.5466530000000  0.5340910000000  0.5112230000000 1.0
C      1  0.4801820000000  0.4949930000000  0.4668480000000 1.0
C      1  0.5418650000000  0.5685260000000  0.5794930000000 1.0
C      1  0.4240020000000  0.5074680000000  0.4607270000000 1.0
C      1  0.5348220000000  0.5944770000000  0.4770910000000 1.0
C      1  0.5563960000000  0.5119870000000  0.4932700000000 1.0
C      1  0.4633130000000  0.5443040000000  0.5640580000000 1.0
C      1  0.4678080000000  0.4422100000000  0.4164490000000 1.0
C      1  0.5007130000000  0.3861810000000  0.5166250000000 1.0
C      1  0.4412030000000  0.5665280000000  0.4514250000000 1.0
C      1  0.3974870000000  0.4945880000000  0.5137390000000 1.0
C      1  0.5278620000000  0.3919100000000  0.4983410000000 1.0
C      1  0.5801670000000  0.4666700000000  0.4518530000000 1.0
C      1  0.6089620000000  0.5018920000000  0.5145280000000 1.0
C      1  0.4596740000000  0.4994330000000  0.5308530000000 1.0
C      1  0.5247500000000  0.4881800000000  0.3970630000000 1.0
C      1  0.5068670000000  0.5570160000000  0.5407610000000 1.0
C      1  0.4483290000000  0.5293290000000  0.5427830000000 1.0
C      1  0.4730970000000  0.5334740000000  0.5927040000000 1.0
C      1  0.5136330000000  0.4604140000000  0.4110620000000 1.0
C      1  0.4621550000000  0.4005140000000  0.5465220000000 1.0
C      1  0.4363500000000  0.4454330000000  0.4635140000000 1.0
C      1  0.4348310000000  0.5834570000000  0.4778250000000 1.0
C      1  0.5813990000000  0.5350330000000  0.4661940000000 1.0
C      1  0.5848600000000  0.5257030000000  0.5183840000000 1.0
C      1  0.5084410000000  0.5238350000000  0.4050470000000 1.0
C      1  0.4913390000000  0.5527870000000  0.4495610000000 1.0
C      1  0.5789000000000  0.4385410000000  0.4714460000000 1.0
C      1  0.4719410000000  0.4691030000000  0.4378920000000 1.0
C      1  0.4206360000000  0.5118570000000  0.5322660000000 1.0
C      1  0.4144090000000  0.5492530000000  0.5496370000000 1.0
C      1  0.4965420000000  0.4355480000000  0.5747170000000 1.0
C      1  0.5874010000000  0.4556710000000  0.5319640000000 1.0
C      1  0.4091200000000  0.5669350000000  0.5228760000000 1.0
C      1  0.5413120000000  0.5210100000000  0.4487660000000 1.0
C      1  0.5850070000000  0.4919790000000  0.4356270000000 1.0
C      1  0.4716960000000  0.4399550000000  0.4809960000000 1.0
C      1  0.4665710000000  0.5942090000000  0.5188510000000 1.0
C      1  0.5463560000000  0.4506700000000  0.5813890000000 1.0
C      1  0.5175720000000  0.5042520000000  0.5623340000000 1.0
C      1  0.4910110000000  0.5087640000000  0.3914630000000 1.0
C      1  0.4698820000000  0.4704300000000  0.4854900000000 1.0
C      1  0.4646510000000  0.5285520000000  0.4277360000000 1.0
C      1  0.5133780000000  0.4777380000000  0.5470320000000 1.0
C      1  0.4387630000000  0.5799320000000  0.5111600000000 1.0
C      1  0.5327560000000  0.5166900000000  0.5872750000000 1.0
C      1  0.5564870000000  0.5443640000000  0.5631440000000 1.0
C      1  0.5681760000000  0.5569520000000  0.5925190000000 1.0
C      1  0.5556880000000  0.4557710000000  0.5363820000000 1.0
C      1  0.4993070000000  0.5942670000000  0.5295660000000 1.0
C      1  0.5535760000000  0.4723250000000  0.4689860000000 1.0
C      1  0.5414300000000  0.5214180000000  0.5486760000000 1.0
C      1  0.5460890000000  0.5112630000000  0.4003590000000 1.0
C      1  0.5385480000000  0.4800100000000  0.5251730000000 1.0
C      1  0.5513810000000  0.4521740000000  0.4202980000000 1.0
C      1  0.5350400000000  0.5435480000000  0.4036550000000 1.0
C      1  0.4921810000000  0.4225890000000  0.4303790000000 1.0
C      1  0.4986110000000  0.4244480000000  0.4678040000000 1.0
C      1  0.5426030000000  0.4291510000000  0.5357780000000 1.0
C      1  0.4654580000000  0.4971910000000  0.5629480000000 1.0
C      1  0.4579590000000  0.4690380000000  0.4004640000000 1.0
C      1  0.5763730000000  0.4366520000000  0.5052240000000 1.0
C      1  0.4937530000000  0.4001170000000  0.5435730000000 1.0
C      1  0.4763350000000  0.5891520000000  0.4424170000000 1.0
C      1  0.5089960000000  0.4899330000000  0.4261680000000 1.0
C      1  0.4280930000000  0.4700410000000  0.5827470000000 1.0
C      1  0.4895150000000  0.5153900000000  0.5556670000000 1.0
C      1  0.4891850000000  0.5635470000000  0.5873870000000 1.0
C      1  0.4157240000000  0.4854550000000  0.5616660000000 1.0
C      1  0.5027740000000  0.5410770000000  0.5665790000000 1.0
C      1  0.5622740000000  0.4635050000000  0.4978280000000 1.0
C      1  0.5085450000000  0.4870890000000  0.4572930000000 1.0
C      1  0.6026100000000  0.4977400000000  0.4830590000000 1.0
C      1  0.4259670000000  0.4523380000000  0.4894110000000 1.0
C      1  0.4441570000000  0.5494090000000  0.5177000000000 1.0
C      1  0.4230500000000  0.5330000000000  0.4984940000000 1.0
C      1  0.5697620000000  0.4948450000000  0.5636950000000 1.0
C      1  0.3986460000000  0.5003920000000  0.4803330000000 1.0
C      1  0.4461210000000  0.5144600000000  0.5837190000000 1.0
C      1  0.5949810000000  0.5111850000000  0.4580270000000 1.0
C      1  0.4349880000000  0.4426300000000  0.5412840000000 1.0
C      1  0.4985750000000  0.4854120000000  0.6055040000000 1.0
C      1  0.4914810000000  0.4281750000000  0.5251490000000 1.0
C      1  0.4191250000000  0.5495540000000  0.4355250000000 1.0
C      1  0.5360040000000  0.4081070000000  0.4370950000000 1.0
C      1  0.5088230000000  0.5083350000000  0.4917050000000 1.0
C      1  0.4147520000000  0.5249980000000  0.4375550000000 1.0
C      1  0.5702450000000  0.4643510000000  0.5633590000000 1.0
C      1  0.4640320000000  0.5479300000000  0.4663590000000 1.0
C      1  0.4641610000000  0.4315300000000  0.4488620000000 1.0
C      1  0.4961800000000  0.5243040000000  0.4644960000000 1.0
C      1  0.5163540000000  0.4583090000000  0.4683060000000 1.0
C      1  0.4715780000000  0.4523050000000  0.5766280000000 1.0
C      1  0.5755490000000  0.4911110000000  0.4965000000000 1.0
C      1  0.4981470000000  0.4530630000000  0.4399660000000 1.0
C      1  0.4657220000000  0.5933920000000  0.4674790000000 1.0
C      1  0.4608870000000  0.4165140000000  0.5022400000000 1.0
C      1  0.5630910000000  0.5768350000000  0.4853560000000 1.0
C      1  0.4449850000000  0.4521960000000  0.5108170000000 1.0
C      1  0.5091170000000  0.4106820000000  0.5674480000000 1.0
C      1  0.5419910000000  0.5581470000000  0.3803440000000 1.0
C      1  0.5126320000000  0.5212990000000  0.4373170000000 1.0
C      1  0.5233480000000  0.4714400000000  0.5967630000000 1.0
C      1  0.5775250000000  0.4374220000000  0.4367870000000 1.0
C      1  0.4008150000000  0.4682980000000  0.4915270000000 1.0
C      1  0.5500800000000  0.5751550000000  0.4532230000000 1.0
C      1  0.4102300000000  0.5630570000000  0.4890950000000 1.0
C      1  0.5577260000000  0.4170140000000  0.4555560000000 1.0
C      1  0.5191820000000  0.5539120000000  0.4780410000000 1.0
C      1  0.5120420000000  0.5404270000000  0.5983870000000 1.0
C      1  0.4403720000000  0.4833860000000  0.4186110000000 1.0
C      1  0.5283150000000  0.4616750000000  0.4981020000000 1.0
C      1  0.4581050000000  0.5523790000000  0.4271160000000 1.0
C      1  0.5168210000000  0.4567660000000  0.5691230000000 1.0
C      1  0.4893860000000  0.5861660000000  0.5616510000000 1.0
C      1  0.4718640000000  0.4497690000000  0.5266300000000 1.0
C      1  0.5139650000000  0.6010250000000  0.4993640000000 1.0
C      1  0.4764040000000  0.3918030000000  0.4973890000000 1.0
C      1  0.5354390000000  0.4997670000000  0.4718420000000 1.0
C      1  0.5284790000000  0.5761870000000  0.5268180000000 1.0
C      1  0.5365730000000  0.4223660000000  0.5648590000000 1.0
C      1  0.5226020000000  0.5177280000000  0.5204220000000 1.0
C      1  0.4761410000000  0.4863030000000  0.3872310000000 1.0
END
