TITL C-2778423-5760-870 0.00464944762214335 125000 -917.064483050323 0 0 158 (C1) n - 1
REM
REM in /home/nfs/bkarasulu/CARBON/AIRSS/Generating-Clusters/REBO/Only-C1/SD-CG/HFTN-CG
REM
REM
REM
REM
REM
REM ./C.cell (11c1c37f851c82e70ff6c80c92926a4b)
REM
REM compiler GCC version 9.2.1 20190827 (Red Hat 9.2.1-1)
REM options -cpp -mtune=generic -march=x86-64 -g -O0 -fpre-include=/usr/include/finclude/math-vector-fortran.h
REM seed 1690799201 -2115974435 -279048225 1418175056 -783073077 -813490868 703124120 183493372 842511370 -1063290653 -683440472 609315119 -766818727 -781710051 -1765507387 1163655250 -67817873 669832756 726861061 -747239798 -1029540913 -1120933816 -1073235293 2101604042 -404832911 502013403 1125044679 -2106892933 1476477378 -655208500 145467265 -1969354609 -326801957
REM
CELL 1.54180   50.00000   50.00000   50.00000   90.00000   90.00000   90.00000
LATT -1
SFAC C  
C      1  0.5624400000000  0.5142830000000  0.4112040000000 1.0
C      1  0.4521930000000  0.4276190000000  0.5407090000000 1.0
C      1  0.4792680000000  0.6144320000000  0.5239400000000 1.0
C      1  0.4100940000000  0.5197710000000  0.4526530000000 1.0
C      1  0.4263960000000  0.5634300000000  0.4643640000000 1.0
C      1  0.5854530000000  0.5295390000000  0.5380440000000 1.0
C      1  0.4732790000000  0.3998770000000  0.4622450000000 1.0
C      1  0.5631990000000  0.5737800000000  0.5396350000000 1.0
C      1  0.4621920000000  0.5096020000000  0.4399540000000 1.0
C      1  0.4132250000000  0.5036540000000  0.5437270000000 1.0
C      1  0.6081860000000  0.4880260000000  0.5275160000000 1.0
C      1  0.4035310000000  0.5356900000000  0.5361020000000 1.0
C      1  0.5426500000000  0.4840520000000  0.5119910000000 1.0
C      1  0.5460250000000  0.4137880000000  0.4960490000000 1.0
C      1  0.5748610000000  0.5029090000000  0.4351700000000 1.0
C      1  0.4602510000000  0.5685230000000  0.5089700000000 1.0
C      1  0.5032560000000  0.4604910000000  0.4150290000000 1.0
C      1  0.4109010000000  0.5597080000000  0.4880270000000 1.0
C      1  0.5318270000000  0.4658400000000  0.5372520000000 1.0
C      1  0.5382700000000  0.5820650000000  0.5511780000000 1.0
C      1  0.5198520000000  0.4825680000000  0.5623770000000 1.0
C      1  0.4483770000000  0.4810820000000  0.5765090000000 1.0
C      1  0.4313020000000  0.5930290000000  0.5236580000000 1.0
C      1  0.4942530000000  0.4685780000000  0.5028600000000 1.0
C      1  0.5439880000000  0.5153090000000  0.4691940000000 1.0
C      1  0.5634400000000  0.4534250000000  0.4109410000000 1.0
C      1  0.5537030000000  0.4464000000000  0.5478820000000 1.0
C      1  0.5167440000000  0.4911950000000  0.4996270000000 1.0
C      1  0.4763940000000  0.4439290000000  0.4274610000000 1.0
C      1  0.5710130000000  0.5251860000000  0.4582030000000 1.0
C      1  0.4465930000000  0.4760890000000  0.5126980000000 1.0
C      1  0.4667660000000  0.5636720000000  0.5730330000000 1.0
C      1  0.4375240000000  0.5214700000000  0.4947070000000 1.0
C      1  0.5610150000000  0.4365060000000  0.4669810000000 1.0
C      1  0.4796280000000  0.4984180000000  0.5115700000000 1.0
C      1  0.4020940000000  0.5044150000000  0.4776500000000 1.0
C      1  0.4568370000000  0.5461290000000  0.4834510000000 1.0
C      1  0.4194770000000  0.4323790000000  0.4977010000000 1.0
C      1  0.5109040000000  0.5073770000000  0.4325690000000 1.0
C      1  0.4881480000000  0.5263730000000  0.4469060000000 1.0
C      1  0.4848450000000  0.5375970000000  0.4764300000000 1.0
C      1  0.4867920000000  0.4639620000000  0.4512660000000 1.0
C      1  0.5171880000000  0.5078130000000  0.5390920000000 1.0
C      1  0.4375840000000  0.4185820000000  0.4378580000000 1.0
C      1  0.5006570000000  0.3998790000000  0.4745620000000 1.0
C      1  0.4916240000000  0.4470530000000  0.5951450000000 1.0
C      1  0.5202740000000  0.4215910000000  0.5146580000000 1.0
C      1  0.5746500000000  0.5518480000000  0.5550780000000 1.0
C      1  0.5322410000000  0.4429150000000  0.4192900000000 1.0
C      1  0.5350740000000  0.5694720000000  0.4582730000000 1.0
C      1  0.4387950000000  0.5634170000000  0.5657400000000 1.0
C      1  0.5428210000000  0.5847010000000  0.4877640000000 1.0
C      1  0.4447350000000  0.5339370000000  0.4253830000000 1.0
C      1  0.5994060000000  0.5032300000000  0.5036500000000 1.0
C      1  0.4667300000000  0.5211050000000  0.4028020000000 1.0
C      1  0.4060580000000  0.4525080000000  0.4491520000000 1.0
C      1  0.5927770000000  0.5234760000000  0.4778580000000 1.0
C      1  0.4551820000000  0.4021850000000  0.4874710000000 1.0
C      1  0.4488280000000  0.4923820000000  0.4868850000000 1.0
C      1  0.5293640000000  0.4321590000000  0.5600460000000 1.0
C      1  0.4973900000000  0.5060480000000  0.5732110000000 1.0
C      1  0.4042850000000  0.4559000000000  0.5011990000000 1.0
C      1  0.4014580000000  0.4705200000000  0.4749640000000 1.0
C      1  0.5868160000000  0.4671530000000  0.5406340000000 1.0
C      1  0.4993550000000  0.5742390000000  0.3865310000000 1.0
C      1  0.5272910000000  0.5385170000000  0.4822250000000 1.0
C      1  0.5302390000000  0.5224030000000  0.4112910000000 1.0
C      1  0.4910100000000  0.5933200000000  0.3706230000000 1.0
C      1  0.4224330000000  0.5386290000000  0.5601420000000 1.0
C      1  0.4581440000000  0.5166200000000  0.5284200000000 1.0
C      1  0.5548850000000  0.5426590000000  0.5767100000000 1.0
C      1  0.4943460000000  0.4910430000000  0.4091490000000 1.0
C      1  0.4644980000000  0.4445220000000  0.5915130000000 1.0
C      1  0.5924840000000  0.4632830000000  0.4636570000000 1.0
C      1  0.4282010000000  0.4464730000000  0.4291610000000 1.0
C      1  0.5391450000000  0.5154820000000  0.5642160000000 1.0
C      1  0.4109080000000  0.5064600000000  0.5098130000000 1.0
C      1  0.5306220000000  0.5628540000000  0.5722320000000 1.0
C      1  0.4282580000000  0.4767820000000  0.5576390000000 1.0
C      1  0.5687880000000  0.4949340000000  0.4930300000000 1.0
C      1  0.5023340000000  0.4854360000000  0.5981560000000 1.0
C      1  0.4610020000000  0.4892430000000  0.4136210000000 1.0
C      1  0.4745800000000  0.4461600000000  0.5590730000000 1.0
C      1  0.5376940000000  0.4070010000000  0.5475670000000 1.0
C      1  0.5546830000000  0.5459270000000  0.4170680000000 1.0
C      1  0.5091550000000  0.4497800000000  0.5252050000000 1.0
C      1  0.5320870000000  0.4089630000000  0.4677010000000 1.0
C      1  0.4960730000000  0.5134370000000  0.4885390000000 1.0
C      1  0.4025010000000  0.5494910000000  0.5118300000000 1.0
C      1  0.5033490000000  0.5627730000000  0.4829350000000 1.0
C      1  0.5885630000000  0.5641500000000  0.4973380000000 1.0
C      1  0.5200560000000  0.5953470000000  0.5338800000000 1.0
C      1  0.5533060000000  0.4662750000000  0.6191980000000 1.0
C      1  0.5078460000000  0.5548230000000  0.4027190000000 1.0
C      1  0.4386090000000  0.4154430000000  0.5117560000000 1.0
C      1  0.5075870000000  0.4515860000000  0.5674280000000 1.0
C      1  0.5657970000000  0.5772350000000  0.5118010000000 1.0
C      1  0.5969100000000  0.5040490000000  0.5521070000000 1.0
C      1  0.5576650000000  0.4793940000000  0.5904130000000 1.0
C      1  0.5975300000000  0.5369870000000  0.5080900000000 1.0
C      1  0.5709460000000  0.4855390000000  0.4624060000000 1.0
C      1  0.4509230000000  0.4612640000000  0.4193680000000 1.0
C      1  0.4549680000000  0.5765250000000  0.4681520000000 1.0
C      1  0.5629990000000  0.4907680000000  0.5361210000000 1.0
C      1  0.4894210000000  0.5573630000000  0.5108730000000 1.0
C      1  0.4725080000000  0.4863390000000  0.5975330000000 1.0
C      1  0.4316540000000  0.5694010000000  0.5367810000000 1.0
C      1  0.5153620000000  0.5424210000000  0.4511720000000 1.0
C      1  0.5081200000000  0.4956040000000  0.4626820000000 1.0
C      1  0.4412790000000  0.5440340000000  0.5198770000000 1.0
C      1  0.5382120000000  0.4827020000000  0.4691770000000 1.0
C      1  0.4961080000000  0.4059670000000  0.5056020000000 1.0
C      1  0.5035430000000  0.5361330000000  0.5259840000000 1.0
C      1  0.4594500000000  0.5130200000000  0.5816940000000 1.0
C      1  0.4558330000000  0.4352530000000  0.4814710000000 1.0
C      1  0.5982450000000  0.4443860000000  0.4788810000000 1.0
C      1  0.5339550000000  0.5326580000000  0.5109320000000 1.0
C      1  0.5391350000000  0.5403910000000  0.5411870000000 1.0
C      1  0.4867400000000  0.4934730000000  0.5434290000000 1.0
C      1  0.4985530000000  0.5239040000000  0.3986530000000 1.0
C      1  0.5181710000000  0.4579630000000  0.4451870000000 1.0
C      1  0.4628530000000  0.6081670000000  0.4766010000000 1.0
C      1  0.5267630000000  0.5591780000000  0.4263310000000 1.0
C      1  0.5631810000000  0.4534860000000  0.6400870000000 1.0
C      1  0.4821520000000  0.5363410000000  0.5762300000000 1.0
C      1  0.5740510000000  0.4841800000000  0.5675920000000 1.0
C      1  0.4928960000000  0.6108730000000  0.4931720000000 1.0
C      1  0.4246060000000  0.5433910000000  0.4442530000000 1.0
C      1  0.4246770000000  0.4961960000000  0.4424050000000 1.0
C      1  0.4859330000000  0.4501340000000  0.4784370000000 1.0
C      1  0.5424660000000  0.4182450000000  0.4406440000000 1.0
C      1  0.5713530000000  0.5727980000000  0.4729310000000 1.0
C      1  0.4604920000000  0.4485330000000  0.5086420000000 1.0
C      1  0.5349330000000  0.4512560000000  0.4711080000000 1.0
C      1  0.5210780000000  0.5989840000000  0.5049710000000 1.0
C      1  0.4570200000000  0.6001360000000  0.5071650000000 1.0
C      1  0.5257150000000  0.3831070000000  0.5519700000000 1.0
C      1  0.5096570000000  0.4321230000000  0.4776870000000 1.0
C      1  0.4940080000000  0.6016380000000  0.5443490000000 1.0
C      1  0.5684650000000  0.4373480000000  0.4352360000000 1.0
C      1  0.4820420000000  0.5860210000000  0.5646610000000 1.0
C      1  0.4306140000000  0.4799800000000  0.4639350000000 1.0
C      1  0.5279380000000  0.4789230000000  0.6039950000000 1.0
C      1  0.4422140000000  0.5146110000000  0.5559980000000 1.0
C      1  0.4027760000000  0.4751320000000  0.5205610000000 1.0
C      1  0.4712560000000  0.4675810000000  0.5354290000000 1.0
C      1  0.4821620000000  0.4291170000000  0.5239580000000 1.0
C      1  0.5619390000000  0.5185980000000  0.5166120000000 1.0
C      1  0.4737660000000  0.4917270000000  0.4636520000000 1.0
C      1  0.5637700000000  0.5539690000000  0.4474570000000 1.0
C      1  0.4335570000000  0.4559650000000  0.5372240000000 1.0
C      1  0.5756770000000  0.4304570000000  0.4970610000000 1.0
C      1  0.4878320000000  0.5858140000000  0.4711630000000 1.0
C      1  0.5570870000000  0.4124320000000  0.5271440000000 1.0
C      1  0.5092430000000  0.5415140000000  0.5591040000000 1.0
C      1  0.4259030000000  0.4307380000000  0.4658440000000 1.0
C      1  0.5786340000000  0.4386900000000  0.5288890000000 1.0
C      1  0.4661080000000  0.4157440000000  0.4394160000000 1.0
END
