TITL C-2778426-5645-588 0.00222863631742979 125000 -1083.85340142467 0 0 186 (C1) n - 1
REM
REM in /home/nfs/bkarasulu/CARBON/AIRSS/Generating-Clusters/REBO/Only-C1/SD-CG/HFTN-CG
REM
REM
REM
REM
REM
REM ./C.cell (11c1c37f851c82e70ff6c80c92926a4b)
REM
REM compiler GCC version 9.2.1 20190827 (Red Hat 9.2.1-1)
REM options -cpp -mtune=generic -march=x86-64 -g -O0 -fpre-include=/usr/include/finclude/math-vector-fortran.h
REM seed -514726163 1088594261 -485543250 436346931 561739967 -216952276 -1423761643 878686055 -1943817786 -1878519637 655924900 -931526141 1052319111 847103205 188824075 -1411051394 439397186 -680540020 -542113121 -338752983 -130732924 -309082467 -516439142 -1937933105 -1887076476 262288677 2117168792 -472066790 2144005336 -161449903 -1879789616 1840316876 504207282
REM
CELL 1.54180   50.00000   50.00000   50.00000   90.00000   90.00000   90.00000
LATT -1
SFAC C  
C      1  0.4817640000000  0.6007950000000  0.4612540000000 1.0
C      1  0.4130530000000  0.5024800000000  0.4994420000000 1.0
C      1  0.4637360000000  0.4262870000000  0.5732880000000 1.0
C      1  0.4229300000000  0.5440750000000  0.4309250000000 1.0
C      1  0.5423830000000  0.5571000000000  0.4885900000000 1.0
C      1  0.4947400000000  0.5236760000000  0.4956590000000 1.0
C      1  0.4853200000000  0.4000480000000  0.4696950000000 1.0
C      1  0.5650660000000  0.5010020000000  0.4187400000000 1.0
C      1  0.5497120000000  0.4380820000000  0.4213370000000 1.0
C      1  0.4937550000000  0.4953230000000  0.4768310000000 1.0
C      1  0.4395880000000  0.4974360000000  0.5509990000000 1.0
C      1  0.3980550000000  0.4761650000000  0.4877420000000 1.0
C      1  0.4524540000000  0.4039070000000  0.4947740000000 1.0
C      1  0.4459470000000  0.4283160000000  0.4452670000000 1.0
C      1  0.5310440000000  0.5121330000000  0.5067110000000 1.0
C      1  0.4043340000000  0.5955610000000  0.4408070000000 1.0
C      1  0.4413790000000  0.5803000000000  0.4913920000000 1.0
C      1  0.4228060000000  0.5730210000000  0.4487650000000 1.0
C      1  0.4442370000000  0.5502770000000  0.4051210000000 1.0
C      1  0.5100240000000  0.4208100000000  0.4932520000000 1.0
C      1  0.5383070000000  0.5711770000000  0.5287660000000 1.0
C      1  0.4858600000000  0.5220630000000  0.4064160000000 1.0
C      1  0.5390700000000  0.5461910000000  0.4174420000000 1.0
C      1  0.5343830000000  0.4906390000000  0.3817350000000 1.0
C      1  0.4641990000000  0.5176070000000  0.4918390000000 1.0
C      1  0.5977660000000  0.4493420000000  0.4585830000000 1.0
C      1  0.5589970000000  0.4705880000000  0.4176110000000 1.0
C      1  0.5514890000000  0.4451260000000  0.5799140000000 1.0
C      1  0.4092750000000  0.5066860000000  0.5639590000000 1.0
C      1  0.5075040000000  0.5037990000000  0.4078980000000 1.0
C      1  0.5353860000000  0.4893100000000  0.4602210000000 1.0
C      1  0.5293110000000  0.4386710000000  0.4487740000000 1.0
C      1  0.5315380000000  0.4460220000000  0.5029840000000 1.0
C      1  0.4711050000000  0.5954630000000  0.4922810000000 1.0
C      1  0.5232180000000  0.5185690000000  0.4603390000000 1.0
C      1  0.5092100000000  0.4447400000000  0.4701330000000 1.0
C      1  0.5359720000000  0.4645000000000  0.3953000000000 1.0
C      1  0.5344430000000  0.5443540000000  0.6073550000000 1.0
C      1  0.4370550000000  0.4289250000000  0.5639760000000 1.0
C      1  0.3943640000000  0.4739250000000  0.4589290000000 1.0
C      1  0.5238860000000  0.4375860000000  0.5850860000000 1.0
C      1  0.5069450000000  0.5046630000000  0.5725050000000 1.0
C      1  0.4249580000000  0.5925320000000  0.5187640000000 1.0
C      1  0.5305450000000  0.4696190000000  0.4359620000000 1.0
C      1  0.5690370000000  0.4381990000000  0.4484190000000 1.0
C      1  0.5194800000000  0.4735130000000  0.4853980000000 1.0
C      1  0.4407320000000  0.4704750000000  0.4910320000000 1.0
C      1  0.4169920000000  0.5359270000000  0.5766460000000 1.0
C      1  0.5518070000000  0.4185600000000  0.4662400000000 1.0
C      1  0.4073340000000  0.4410820000000  0.5252800000000 1.0
C      1  0.5542040000000  0.4224090000000  0.4958700000000 1.0
C      1  0.5030960000000  0.4034770000000  0.4473130000000 1.0
C      1  0.4482920000000  0.5236380000000  0.5343920000000 1.0
C      1  0.5942240000000  0.5008220000000  0.4709230000000 1.0
C      1  0.5772480000000  0.4879640000000  0.5847720000000 1.0
C      1  0.5776510000000  0.5098040000000  0.5672180000000 1.0
C      1  0.5328000000000  0.5862330000000  0.4853550000000 1.0
C      1  0.4595780000000  0.5430460000000  0.4527760000000 1.0
C      1  0.4061750000000  0.4314590000000  0.4747150000000 1.0
C      1  0.4313470000000  0.5282450000000  0.5119950000000 1.0
C      1  0.4980690000000  0.4808760000000  0.6142310000000 1.0
C      1  0.5114710000000  0.5661660000000  0.4209280000000 1.0
C      1  0.5562190000000  0.5990500000000  0.5065850000000 1.0
C      1  0.5099220000000  0.6135330000000  0.4674960000000 1.0
C      1  0.4115810000000  0.4995170000000  0.5315620000000 1.0
C      1  0.5234510000000  0.5449880000000  0.5452640000000 1.0
C      1  0.4261480000000  0.4550740000000  0.5701320000000 1.0
C      1  0.5016390000000  0.5269170000000  0.5485120000000 1.0
C      1  0.4296040000000  0.5004730000000  0.5893830000000 1.0
C      1  0.6203840000000  0.4613560000000  0.5311590000000 1.0
C      1  0.5239270000000  0.5490630000000  0.4470460000000 1.0
C      1  0.4287720000000  0.4947510000000  0.4702740000000 1.0
C      1  0.4454000000000  0.5238480000000  0.4730030000000 1.0
C      1  0.5012820000000  0.5340440000000  0.5882580000000 1.0
C      1  0.4805750000000  0.4678590000000  0.4920000000000 1.0
C      1  0.4111100000000  0.4632730000000  0.5471990000000 1.0
C      1  0.5645700000000  0.4782480000000  0.4939080000000 1.0
C      1  0.5747560000000  0.5715380000000  0.5446360000000 1.0
C      1  0.6095970000000  0.4973900000000  0.5467250000000 1.0
C      1  0.4300560000000  0.4248620000000  0.5360220000000 1.0
C      1  0.4695470000000  0.5273630000000  0.5590150000000 1.0
C      1  0.4679350000000  0.4997810000000  0.5788710000000 1.0
C      1  0.4910590000000  0.5293250000000  0.4563640000000 1.0
C      1  0.5289330000000  0.6030110000000  0.5211250000000 1.0
C      1  0.4802760000000  0.4300820000000  0.4802300000000 1.0
C      1  0.5555610000000  0.4715190000000  0.5905700000000 1.0
C      1  0.4724470000000  0.5550080000000  0.4804670000000 1.0
C      1  0.4724120000000  0.4403740000000  0.4424740000000 1.0
C      1  0.5177520000000  0.4323310000000  0.5304440000000 1.0
C      1  0.4932060000000  0.5753040000000  0.5722900000000 1.0
C      1  0.4335670000000  0.4170080000000  0.4732720000000 1.0
C      1  0.5614120000000  0.5110020000000  0.5406230000000 1.0
C      1  0.5249040000000  0.5159430000000  0.6060220000000 1.0
C      1  0.4570280000000  0.6008120000000  0.5225860000000 1.0
C      1  0.4701160000000  0.5557590000000  0.5758180000000 1.0
C      1  0.5729810000000  0.4221980000000  0.5253380000000 1.0
C      1  0.4697240000000  0.5333450000000  0.6002230000000 1.0
C      1  0.5902750000000  0.5391310000000  0.4816710000000 1.0
C      1  0.4213080000000  0.5567400000000  0.5576830000000 1.0
C      1  0.5292360000000  0.4882870000000  0.5905460000000 1.0
C      1  0.4764750000000  0.4639500000000  0.4593400000000 1.0
C      1  0.4840880000000  0.5813690000000  0.4342900000000 1.0
C      1  0.5537610000000  0.5403920000000  0.5324570000000 1.0
C      1  0.4542380000000  0.4256220000000  0.5187400000000 1.0
C      1  0.4769340000000  0.5952240000000  0.5487970000000 1.0
C      1  0.6062660000000  0.4740490000000  0.4803630000000 1.0
C      1  0.5516160000000  0.4617600000000  0.5425310000000 1.0
C      1  0.4849250000000  0.5098110000000  0.5248720000000 1.0
C      1  0.4105810000000  0.5683960000000  0.5324300000000 1.0
C      1  0.6284870000000  0.4571650000000  0.4634970000000 1.0
C      1  0.5380780000000  0.5158460000000  0.4044000000000 1.0
C      1  0.4631290000000  0.4909900000000  0.5066840000000 1.0
C      1  0.5751320000000  0.5796720000000  0.5157620000000 1.0
C      1  0.5453720000000  0.5667660000000  0.5612960000000 1.0
C      1  0.5527750000000  0.5333790000000  0.4693280000000 1.0
C      1  0.4880660000000  0.4018820000000  0.5464480000000 1.0
C      1  0.4881020000000  0.4577310000000  0.4080870000000 1.0
C      1  0.4385030000000  0.5158080000000  0.4234730000000 1.0
C      1  0.4491070000000  0.5612560000000  0.5535920000000 1.0
C      1  0.4965380000000  0.5637550000000  0.4589090000000 1.0
C      1  0.5685350000000  0.5317890000000  0.4269630000000 1.0
C      1  0.4029660000000  0.4475830000000  0.4497330000000 1.0
C      1  0.4472770000000  0.4743520000000  0.5827340000000 1.0
C      1  0.4777300000000  0.3811390000000  0.4952980000000 1.0
C      1  0.4524390000000  0.4418500000000  0.4822740000000 1.0
C      1  0.4582520000000  0.4725270000000  0.5415910000000 1.0
C      1  0.6040860000000  0.5248230000000  0.5651210000000 1.0
C      1  0.5173410000000  0.4405120000000  0.4106900000000 1.0
C      1  0.6017530000000  0.5180860000000  0.4989720000000 1.0
C      1  0.4955850000000  0.4262210000000  0.4313820000000 1.0
C      1  0.4350270000000  0.4552490000000  0.4080080000000 1.0
C      1  0.4012990000000  0.4486840000000  0.4982220000000 1.0
C      1  0.5016640000000  0.5630940000000  0.5155480000000 1.0
C      1  0.4734680000000  0.4919030000000  0.4494820000000 1.0
C      1  0.6045630000000  0.5196820000000  0.5259100000000 1.0
C      1  0.5022010000000  0.4570960000000  0.5977800000000 1.0
C      1  0.4842080000000  0.5030100000000  0.6062590000000 1.0
C      1  0.4527670000000  0.5826200000000  0.4593440000000 1.0
C      1  0.4389920000000  0.5284190000000  0.5981330000000 1.0
C      1  0.5308010000000  0.3988270000000  0.4517280000000 1.0
C      1  0.4463820000000  0.4976730000000  0.4430650000000 1.0
C      1  0.5342530000000  0.5978340000000  0.4564480000000 1.0
C      1  0.4973750000000  0.4241780000000  0.5682950000000 1.0
C      1  0.5672840000000  0.4953850000000  0.4506300000000 1.0
C      1  0.4840480000000  0.4912060000000  0.5511830000000 1.0
C      1  0.5134580000000  0.6185560000000  0.4987190000000 1.0
C      1  0.5532790000000  0.5077580000000  0.4907390000000 1.0
C      1  0.5201890000000  0.5416460000000  0.5038620000000 1.0
C      1  0.5509110000000  0.3992660000000  0.5205670000000 1.0
C      1  0.5697820000000  0.4673410000000  0.4656980000000 1.0
C      1  0.5064820000000  0.3919630000000  0.5049740000000 1.0
C      1  0.4682770000000  0.4519890000000  0.5181050000000 1.0
C      1  0.5208170000000  0.5615970000000  0.5824160000000 1.0
C      1  0.4982690000000  0.4597510000000  0.5271200000000 1.0
C      1  0.5999030000000  0.4681340000000  0.5088140000000 1.0
C      1  0.5015590000000  0.4561920000000  0.5578980000000 1.0
C      1  0.4249990000000  0.4427540000000  0.4313500000000 1.0
C      1  0.5066850000000  0.4781480000000  0.4187680000000 1.0
C      1  0.4571030000000  0.5646580000000  0.4302860000000 1.0
C      1  0.5777960000000  0.4902740000000  0.5236330000000 1.0
C      1  0.5155430000000  0.4852940000000  0.5172830000000 1.0
C      1  0.5886450000000  0.5290480000000  0.4527120000000 1.0
C      1  0.5229470000000  0.4036640000000  0.5269980000000 1.0
C      1  0.4754550000000  0.4555540000000  0.5797350000000 1.0
C      1  0.4243470000000  0.5551990000000  0.5068010000000 1.0
C      1  0.4307210000000  0.4730900000000  0.5210420000000 1.0
C      1  0.5526230000000  0.5821910000000  0.4420880000000 1.0
C      1  0.5382880000000  0.4902810000000  0.5390760000000 1.0
C      1  0.4900690000000  0.5421310000000  0.4261610000000 1.0
C      1  0.4614740000000  0.4579530000000  0.4016870000000 1.0
C      1  0.5910860000000  0.4688600000000  0.5474150000000 1.0
C      1  0.4090330000000  0.5453120000000  0.4609210000000 1.0
C      1  0.4562070000000  0.5686160000000  0.5273270000000 1.0
C      1  0.5018740000000  0.5871840000000  0.4963190000000 1.0
C      1  0.5867050000000  0.5419690000000  0.5415300000000 1.0
C      1  0.3984450000000  0.5322140000000  0.4804060000000 1.0
C      1  0.5009460000000  0.5773790000000  0.5412630000000 1.0
C      1  0.4577280000000  0.5223560000000  0.3996390000000 1.0
C      1  0.4720790000000  0.3994160000000  0.5235380000000 1.0
C      1  0.5700530000000  0.4527380000000  0.5159660000000 1.0
C      1  0.5627960000000  0.5576150000000  0.4474830000000 1.0
C      1  0.5266440000000  0.4713430000000  0.5630660000000 1.0
C      1  0.5287340000000  0.4958320000000  0.3552990000000 1.0
C      1  0.5739100000000  0.5579020000000  0.4955040000000 1.0
C      1  0.5732010000000  0.4406690000000  0.5539590000000 1.0
C      1  0.4731430000000  0.5567000000000  0.5080780000000 1.0
END
