TITL C-2778425-5191-971 0.000555731162642265 125000 -177.486428242174 0 0 33 (C1) n - 1
REM
REM in /home/nfs/bkarasulu/CARBON/AIRSS/Generating-Clusters/REBO/Only-C1/SD-CG/HFTN-CG
REM
REM
REM
REM
REM
REM ./C.cell (11c1c37f851c82e70ff6c80c92926a4b)
REM
REM compiler GCC version 9.2.1 20190827 (Red Hat 9.2.1-1)
REM options -cpp -mtune=generic -march=x86-64 -g -O0 -fpre-include=/usr/include/finclude/math-vector-fortran.h
REM seed 1094796021 530939752 -1412281186 -1129510646 -1274687525 2125781767 -747064915 -1987982336 1389419250 -889484006 1034284043 -1189910047 -117610583 598164986 1901108157 441177829 862673766 1100165337 -598458083 880466593 1316691691 1061607245 1985139227 -1789546256 -838678971 -331134580 -1939374875 -1928676505 -587891932 1627989795 903499137 -275015582 -1626367159
REM
CELL 1.54180   50.00000   50.00000   50.00000   90.00000   90.00000   90.00000
LATT -1
SFAC C  
C      1  0.4874760000000  0.5098890000000  0.5692990000000 1.0
C      1  0.5341460000000  0.5168290000000  0.5464270000000 1.0
C      1  0.5203260000000  0.5142050000000  0.4372310000000 1.0
C      1  0.5702930000000  0.5168980000000  0.5011820000000 1.0
C      1  0.4195300000000  0.4675360000000  0.4937920000000 1.0
C      1  0.4471850000000  0.4643990000000  0.4789260000000 1.0
C      1  0.5309410000000  0.5164300000000  0.4122700000000 1.0
C      1  0.4951090000000  0.5265590000000  0.4932420000000 1.0
C      1  0.4879850000000  0.4974340000000  0.4723010000000 1.0
C      1  0.4985450000000  0.4173920000000  0.5556720000000 1.0
C      1  0.5342970000000  0.5257150000000  0.4604430000000 1.0
C      1  0.5279890000000  0.4707460000000  0.4952500000000 1.0
C      1  0.4422940000000  0.4924640000000  0.4976510000000 1.0
C      1  0.5013140000000  0.4407760000000  0.5427920000000 1.0
C      1  0.4979270000000  0.4981750000000  0.4429880000000 1.0
C      1  0.4680380000000  0.5328020000000  0.5329150000000 1.0
C      1  0.5278080000000  0.5385720000000  0.5118870000000 1.0
C      1  0.5037530000000  0.5014850000000  0.5480610000000 1.0
C      1  0.5147560000000  0.5395080000000  0.5534310000000 1.0
C      1  0.4958240000000  0.4696450000000  0.4858420000000 1.0
C      1  0.4788400000000  0.4743100000000  0.4410000000000 1.0
C      1  0.5035670000000  0.5187820000000  0.5211130000000 1.0
C      1  0.5514330000000  0.5098320000000  0.5265710000000 1.0
C      1  0.4502960000000  0.5300570000000  0.4616710000000 1.0
C      1  0.4573960000000  0.5179950000000  0.5139020000000 1.0
C      1  0.5194660000000  0.5407360000000  0.4803440000000 1.0
C      1  0.4716900000000  0.4615180000000  0.4664570000000 1.0
C      1  0.4879960000000  0.5437620000000  0.5480780000000 1.0
C      1  0.5029700000000  0.4726100000000  0.5433310000000 1.0
C      1  0.5559340000000  0.5115990000000  0.4724340000000 1.0
C      1  0.5052350000000  0.4572540000000  0.5145040000000 1.0
C      1  0.4616690000000  0.5130750000000  0.4806750000000 1.0
C      1  0.5479700000000  0.4910130000000  0.4983170000000 1.0
END
