TITL C-2778430-5657-885 -0.00335760857250531 125000 -973.440578683969 0 0 169 (C1) n - 1
REM
REM in /home/nfs/bkarasulu/CARBON/AIRSS/Generating-Clusters/REBO/Only-C1/SD-CG/HFTN-CG
REM
REM
REM
REM
REM
REM ./C.cell (11c1c37f851c82e70ff6c80c92926a4b)
REM
REM compiler GCC version 9.2.1 20190827 (Red Hat 9.2.1-1)
REM options -cpp -mtune=generic -march=x86-64 -g -O0 -fpre-include=/usr/include/finclude/math-vector-fortran.h
REM seed 1636088288 1220287370 1746139384 -1672799489 160710414 -434977918 -538416888 -624361718 -1270208359 -1675813419 -2035035970 1631097779 575638862 904951031 -1282998135 1952874200 1205650377 1772769556 1733928571 1054639225 854966205 543461586 772624315 1955290694 460942225 -76954191 1615301366 -207523113 -30019439 -1370080915 994477298 -809235820 -1031216532
REM
CELL 1.54180   50.00000   50.00000   50.00000   90.00000   90.00000   90.00000
LATT -1
SFAC C  
C      1  0.4425050000000  0.3999860000000  0.5077050000000 1.0
C      1  0.5309410000000  0.5564540000000  0.5281020000000 1.0
C      1  0.4319900000000  0.4546040000000  0.5487990000000 1.0
C      1  0.5953400000000  0.5131450000000  0.4508980000000 1.0
C      1  0.5171510000000  0.4011020000000  0.4692600000000 1.0
C      1  0.5578010000000  0.4863780000000  0.4941260000000 1.0
C      1  0.5374310000000  0.4235400000000  0.4811220000000 1.0
C      1  0.4838040000000  0.5233690000000  0.4621350000000 1.0
C      1  0.5435900000000  0.5156310000000  0.5397260000000 1.0
C      1  0.5276730000000  0.4559670000000  0.6043490000000 1.0
C      1  0.5186050000000  0.5574350000000  0.5601630000000 1.0
C      1  0.5776580000000  0.4351260000000  0.4721110000000 1.0
C      1  0.5156530000000  0.4096990000000  0.4367420000000 1.0
C      1  0.5276960000000  0.4056990000000  0.5497190000000 1.0
C      1  0.5631190000000  0.4907920000000  0.5328410000000 1.0
C      1  0.5674990000000  0.4757210000000  0.4280760000000 1.0
C      1  0.4651850000000  0.4198140000000  0.4212780000000 1.0
C      1  0.4701120000000  0.4723980000000  0.4015690000000 1.0
C      1  0.4662800000000  0.5369510000000  0.5625340000000 1.0
C      1  0.4282960000000  0.4710770000000  0.4463980000000 1.0
C      1  0.5865320000000  0.5616240000000  0.5204500000000 1.0
C      1  0.5837840000000  0.4653930000000  0.4722390000000 1.0
C      1  0.5402970000000  0.4632190000000  0.4802840000000 1.0
C      1  0.5145290000000  0.5000360000000  0.5451100000000 1.0
C      1  0.4930820000000  0.4094010000000  0.4197990000000 1.0
C      1  0.4178270000000  0.5410010000000  0.5267960000000 1.0
C      1  0.5545910000000  0.4335050000000  0.5368690000000 1.0
C      1  0.4652340000000  0.5975670000000  0.4942140000000 1.0
C      1  0.4679700000000  0.3916230000000  0.4888670000000 1.0
C      1  0.4325780000000  0.5512440000000  0.4539720000000 1.0
C      1  0.4679070000000  0.4421800000000  0.4909450000000 1.0
C      1  0.5168680000000  0.5529770000000  0.4875060000000 1.0
C      1  0.4358200000000  0.5046090000000  0.5571860000000 1.0
C      1  0.5681100000000  0.5538920000000  0.4559560000000 1.0
C      1  0.4748830000000  0.5608710000000  0.6049310000000 1.0
C      1  0.5109320000000  0.4547960000000  0.4678630000000 1.0
C      1  0.5511350000000  0.5732310000000  0.4207260000000 1.0
C      1  0.4031780000000  0.5229230000000  0.4795120000000 1.0
C      1  0.4210530000000  0.4627750000000  0.4846810000000 1.0
C      1  0.4804100000000  0.4569810000000  0.5804460000000 1.0
C      1  0.4467230000000  0.5170750000000  0.6100130000000 1.0
C      1  0.5109940000000  0.5774830000000  0.5100550000000 1.0
C      1  0.4818780000000  0.5717500000000  0.4565700000000 1.0
C      1  0.5540310000000  0.5422650000000  0.5074760000000 1.0
C      1  0.5859060000000  0.5392870000000  0.5465690000000 1.0
C      1  0.5779020000000  0.5109680000000  0.5594950000000 1.0
C      1  0.5220960000000  0.4354350000000  0.5599570000000 1.0
C      1  0.4922700000000  0.3890150000000  0.5106340000000 1.0
C      1  0.4963240000000  0.4642800000000  0.4063410000000 1.0
C      1  0.4516920000000  0.5724240000000  0.4962450000000 1.0
C      1  0.5870680000000  0.5283580000000  0.4797790000000 1.0
C      1  0.5388590000000  0.5484630000000  0.4127310000000 1.0
C      1  0.5586090000000  0.5146970000000  0.4662080000000 1.0
C      1  0.5175400000000  0.4900400000000  0.3988240000000 1.0
C      1  0.5193500000000  0.3934690000000  0.5003270000000 1.0
C      1  0.5927830000000  0.4853090000000  0.5455070000000 1.0
C      1  0.4546940000000  0.5770020000000  0.5454230000000 1.0
C      1  0.4887000000000  0.4808480000000  0.4419290000000 1.0
C      1  0.5487620000000  0.4982800000000  0.4104130000000 1.0
C      1  0.4467700000000  0.5268060000000  0.5376890000000 1.0
C      1  0.5270490000000  0.6147290000000  0.5059850000000 1.0
C      1  0.5528520000000  0.5026710000000  0.5763940000000 1.0
C      1  0.5371910000000  0.4814140000000  0.5614540000000 1.0
C      1  0.5279530000000  0.4763970000000  0.4267560000000 1.0
C      1  0.5376890000000  0.5843550000000  0.4428830000000 1.0
C      1  0.5566050000000  0.5267900000000  0.4171610000000 1.0
C      1  0.4299800000000  0.4272680000000  0.5203410000000 1.0
C      1  0.4847800000000  0.5646160000000  0.5554170000000 1.0
C      1  0.5084970000000  0.5293500000000  0.5283750000000 1.0
C      1  0.4853240000000  0.5127310000000  0.5768350000000 1.0
C      1  0.4489520000000  0.4852530000000  0.5130060000000 1.0
C      1  0.5522330000000  0.4455960000000  0.4340100000000 1.0
C      1  0.4562870000000  0.4286290000000  0.5658440000000 1.0
C      1  0.4776030000000  0.4297520000000  0.4504560000000 1.0
C      1  0.4627410000000  0.5227020000000  0.5103560000000 1.0
C      1  0.4106260000000  0.4427830000000  0.5045340000000 1.0
C      1  0.4040580000000  0.5004660000000  0.5685880000000 1.0
C      1  0.4953050000000  0.4269330000000  0.4987670000000 1.0
C      1  0.5169500000000  0.5198580000000  0.4904990000000 1.0
C      1  0.4081260000000  0.4721200000000  0.5779620000000 1.0
C      1  0.6050120000000  0.5047160000000  0.5063580000000 1.0
C      1  0.5268290000000  0.4562250000000  0.5767870000000 1.0
C      1  0.4898170000000  0.6007280000000  0.5099260000000 1.0
C      1  0.5455940000000  0.5384870000000  0.5602840000000 1.0
C      1  0.5087150000000  0.5489940000000  0.4237010000000 1.0
C      1  0.4486430000000  0.4188340000000  0.4797870000000 1.0
C      1  0.4578620000000  0.5405270000000  0.5947280000000 1.0
C      1  0.6022560000000  0.4734370000000  0.4989410000000 1.0
C      1  0.4511000000000  0.5979510000000  0.4475320000000 1.0
C      1  0.4485280000000  0.4529100000000  0.5119230000000 1.0
C      1  0.4819240000000  0.4919100000000  0.4729880000000 1.0
C      1  0.4912640000000  0.5561880000000  0.5245310000000 1.0
C      1  0.4496540000000  0.4849930000000  0.6062490000000 1.0
C      1  0.5822230000000  0.5610050000000  0.4863520000000 1.0
C      1  0.4312870000000  0.4471790000000  0.5802620000000 1.0
C      1  0.4027270000000  0.5137400000000  0.5371250000000 1.0
C      1  0.5768190000000  0.5342060000000  0.4364860000000 1.0
C      1  0.3934910000000  0.4831210000000  0.5248930000000 1.0
C      1  0.5755690000000  0.4872910000000  0.4541750000000 1.0
C      1  0.5598150000000  0.5744460000000  0.5336090000000 1.0
C      1  0.4110720000000  0.4949400000000  0.4608340000000 1.0
C      1  0.4876930000000  0.5495440000000  0.4759890000000 1.0
C      1  0.4783190000000  0.5611040000000  0.4167780000000 1.0
C      1  0.4543290000000  0.5034560000000  0.5803770000000 1.0
C      1  0.5251170000000  0.5096400000000  0.4611830000000 1.0
C      1  0.4625680000000  0.4498680000000  0.5399540000000 1.0
C      1  0.5461660000000  0.5969300000000  0.5169420000000 1.0
C      1  0.4868910000000  0.4114830000000  0.4710010000000 1.0
C      1  0.5641330000000  0.4250320000000  0.4995510000000 1.0
C      1  0.4726370000000  0.5667020000000  0.3910930000000 1.0
C      1  0.4659800000000  0.4607960000000  0.4544000000000 1.0
C      1  0.4935030000000  0.6231100000000  0.5258650000000 1.0
C      1  0.4157570000000  0.5273410000000  0.4506090000000 1.0
C      1  0.4844970000000  0.5834670000000  0.5838800000000 1.0
C      1  0.5414040000000  0.4078500000000  0.5186340000000 1.0
C      1  0.4929650000000  0.5071350000000  0.5096080000000 1.0
C      1  0.4671000000000  0.5721570000000  0.3660650000000 1.0
C      1  0.5301420000000  0.4443900000000  0.5070720000000 1.0
C      1  0.4450140000000  0.4979070000000  0.4399040000000 1.0
C      1  0.5411110000000  0.5895640000000  0.4700290000000 1.0
C      1  0.4335270000000  0.5662040000000  0.5386860000000 1.0
C      1  0.4945060000000  0.5018580000000  0.4194890000000 1.0
C      1  0.6139710000000  0.4706980000000  0.5447660000000 1.0
C      1  0.5022170000000  0.4024610000000  0.5689580000000 1.0
C      1  0.4523300000000  0.5153210000000  0.4609020000000 1.0
C      1  0.5384860000000  0.4272800000000  0.4484360000000 1.0
C      1  0.4452970000000  0.4446420000000  0.4325360000000 1.0
C      1  0.4902760000000  0.4645960000000  0.4869360000000 1.0
C      1  0.6096310000000  0.4958160000000  0.4743300000000 1.0
C      1  0.5355660000000  0.5167970000000  0.5923130000000 1.0
C      1  0.5482060000000  0.4592500000000  0.4047350000000 1.0
C      1  0.6069390000000  0.5378700000000  0.5063420000000 1.0
C      1  0.4210040000000  0.4786690000000  0.5406660000000 1.0
C      1  0.5205650000000  0.6075670000000  0.4792340000000 1.0
C      1  0.5100460000000  0.5260460000000  0.5895380000000 1.0
C      1  0.4613310000000  0.4962220000000  0.4172490000000 1.0
C      1  0.4885960000000  0.4833450000000  0.5599640000000 1.0
C      1  0.4975280000000  0.6024740000000  0.4602820000000 1.0
C      1  0.5071090000000  0.4335360000000  0.5298770000000 1.0
C      1  0.4869520000000  0.4260980000000  0.5765250000000 1.0
C      1  0.5417540000000  0.5445010000000  0.4697180000000 1.0
C      1  0.4676670000000  0.6074730000000  0.4673010000000 1.0
C      1  0.4297350000000  0.5607400000000  0.4819950000000 1.0
C      1  0.4127490000000  0.5431010000000  0.4968540000000 1.0
C      1  0.4426380000000  0.5150660000000  0.4872800000000 1.0
C      1  0.5028740000000  0.4771000000000  0.5132540000000 1.0
C      1  0.4858610000000  0.4068660000000  0.5328520000000 1.0
C      1  0.4717680000000  0.5509380000000  0.5022160000000 1.0
C      1  0.4905720000000  0.4598510000000  0.5360840000000 1.0
C      1  0.5537380000000  0.5737550000000  0.4941820000000 1.0
C      1  0.4011560000000  0.4860960000000  0.4922090000000 1.0
C      1  0.5053530000000  0.5572880000000  0.5903600000000 1.0
C      1  0.4518880000000  0.4768290000000  0.4800980000000 1.0
C      1  0.5430780000000  0.5121700000000  0.5056140000000 1.0
C      1  0.5545310000000  0.4554240000000  0.5480320000000 1.0
C      1  0.5046860000000  0.5230970000000  0.4386940000000 1.0
C      1  0.4546600000000  0.5666860000000  0.4394660000000 1.0
C      1  0.5730800000000  0.4574530000000  0.5046230000000 1.0
C      1  0.4663670000000  0.4916760000000  0.5351630000000 1.0
C      1  0.5633940000000  0.5424580000000  0.5793840000000 1.0
C      1  0.5365440000000  0.4749880000000  0.5182060000000 1.0
C      1  0.5790710000000  0.5226640000000  0.5184610000000 1.0
C      1  0.4221480000000  0.5050900000000  0.5100860000000 1.0
C      1  0.4325250000000  0.4410790000000  0.4632490000000 1.0
C      1  0.5072370000000  0.5791540000000  0.4375800000000 1.0
C      1  0.4559380000000  0.4594270000000  0.5959840000000 1.0
C      1  0.5265610000000  0.4798020000000  0.4547800000000 1.0
C      1  0.4998630000000  0.4498070000000  0.4363640000000 1.0
C      1  0.4541530000000  0.4109670000000  0.5379280000000 1.0
END
