TITL C-2778434-4341-807 0.154615097950889 125000 -763.158135909456 0 0 134 (C1) n - 1
REM
REM in /home/nfs/bkarasulu/CARBON/AIRSS/Generating-Clusters/REBO/Only-C1/SD-CG/HFTN-CG
REM
REM
REM
REM
REM
REM ./C.cell (11c1c37f851c82e70ff6c80c92926a4b)
REM
REM compiler GCC version 9.2.1 20190827 (Red Hat 9.2.1-1)
REM options -cpp -mtune=generic -march=x86-64 -g -O0 -fpre-include=/usr/include/finclude/math-vector-fortran.h
REM seed -905976141 -722817591 -810388075 1783128041 -2009502876 449020246 1718337435 -1158323001 1763647489 -1447536359 918781278 -1012332615 -511093133 267622528 -2076969399 170189108 -1509508122 663997972 1801150776 1509931616 -1628615335 -173539761 257010730 -510079728 -1440376628 -1649464729 1039412868 -515556658 -1679385142 -1417090004 -512301953 403061447 1281955883
REM
CELL 1.54180   50.00000   50.00000   50.00000   90.00000   90.00000   90.00000
LATT -1
SFAC C  
C      1  0.5443190000000  0.5213980000000  0.4609360000000 1.0
C      1  0.5197150000000  0.5912120000000  0.5310490000000 1.0
C      1  0.4656170000000  0.4337010000000  0.4895240000000 1.0
C      1  0.5108860000000  0.4337990000000  0.4177110000000 1.0
C      1  0.4572870000000  0.5801060000000  0.4561450000000 1.0
C      1  0.5665470000000  0.5631070000000  0.4772210000000 1.0
C      1  0.4332190000000  0.5280260000000  0.5630020000000 1.0
C      1  0.4930950000000  0.5728480000000  0.5200770000000 1.0
C      1  0.4943140000000  0.4057430000000  0.4571640000000 1.0
C      1  0.3877300000000  0.5649040000000  0.4910050000000 1.0
C      1  0.5469010000000  0.4899290000000  0.4736560000000 1.0
C      1  0.4051720000000  0.4685850000000  0.4785300000000 1.0
C      1  0.5563300000000  0.4405410000000  0.4399350000000 1.0
C      1  0.5869240000000  0.5709220000000  0.5220720000000 1.0
C      1  0.5127610000000  0.4060090000000  0.5084040000000 1.0
C      1  0.4200810000000  0.5218100000000  0.5387620000000 1.0
C      1  0.4425160000000  0.5332230000000  0.4185500000000 1.0
C      1  0.5209320000000  0.5910340000000  0.4978620000000 1.0
C      1  0.4298070000000  0.6188670000000  0.5497780000000 1.0
C      1  0.4561740000000  0.5523390000000  0.5604360000000 1.0
C      1  0.4179710000000  0.4970510000000  0.4538700000000 1.0
C      1  0.5613390000000  0.4306440000000  0.5203240000000 1.0
C      1  0.4399500000000  0.5954250000000  0.5439120000000 1.0
C      1  0.4227740000000  0.4675350000000  0.5065490000000 1.0
C      1  0.5129080000000  0.4735000000000  0.4219690000000 1.0
C      1  0.4655000000000  0.4869090000000  0.4505570000000 1.0
C      1  0.5945080000000  0.4990300000000  0.4906570000000 1.0
C      1  0.5038330000000  0.4563250000000  0.5212540000000 1.0
C      1  0.4496140000000  0.4360760000000  0.4479100000000 1.0
C      1  0.4583940000000  0.4546630000000  0.5760950000000 1.0
C      1  0.4815470000000  0.4819200000000  0.4218160000000 1.0
C      1  0.5641010000000  0.4715720000000  0.4400490000000 1.0
C      1  0.5418920000000  0.4877900000000  0.4256770000000 1.0
C      1  0.5336630000000  0.4831390000000  0.5549580000000 1.0
C      1  0.5424360000000  0.5001500000000  0.5898230000000 1.0
C      1  0.4464580000000  0.4464180000000  0.4183150000000 1.0
C      1  0.4999530000000  0.5522750000000  0.4543880000000 1.0
C      1  0.5721050000000  0.4475480000000  0.4669570000000 1.0
C      1  0.5400530000000  0.5217120000000  0.4211690000000 1.0
C      1  0.5693600000000  0.5404270000000  0.4551550000000 1.0
C      1  0.4830920000000  0.5370580000000  0.4345760000000 1.0
C      1  0.5347450000000  0.4232600000000  0.4342510000000 1.0
C      1  0.5403600000000  0.5652260000000  0.5255370000000 1.0
C      1  0.4401410000000  0.4841840000000  0.4677800000000 1.0
C      1  0.4603790000000  0.5034520000000  0.5471920000000 1.0
C      1  0.5089340000000  0.5137050000000  0.5202930000000 1.0
C      1  0.5020710000000  0.4431540000000  0.4454400000000 1.0
C      1  0.4963240000000  0.5802290000000  0.5532260000000 1.0
C      1  0.5893930000000  0.4691730000000  0.4780590000000 1.0
C      1  0.4669560000000  0.4586200000000  0.4050190000000 1.0
C      1  0.4979740000000  0.4004160000000  0.5311230000000 1.0
C      1  0.5336440000000  0.4180100000000  0.4842900000000 1.0
C      1  0.5177680000000  0.5150260000000  0.5822770000000 1.0
C      1  0.4144350000000  0.5513630000000  0.4859330000000 1.0
C      1  0.5583580000000  0.4699650000000  0.5523300000000 1.0
C      1  0.5239180000000  0.4648100000000  0.4530230000000 1.0
C      1  0.5213610000000  0.5449760000000  0.5754630000000 1.0
C      1  0.4691870000000  0.5152730000000  0.5174280000000 1.0
C      1  0.4918970000000  0.5597300000000  0.4937850000000 1.0
C      1  0.5472820000000  0.5265290000000  0.5393970000000 1.0
C      1  0.5257300000000  0.4435400000000  0.5765590000000 1.0
C      1  0.4555120000000  0.4720510000000  0.5023530000000 1.0
C      1  0.5482490000000  0.5475190000000  0.4310000000000 1.0
C      1  0.4935200000000  0.5020330000000  0.5708490000000 1.0
C      1  0.5350590000000  0.4524850000000  0.4811740000000 1.0
C      1  0.4905630000000  0.6006850000000  0.4914920000000 1.0
C      1  0.4400950000000  0.4491050000000  0.5544290000000 1.0
C      1  0.5062030000000  0.4458590000000  0.4918780000000 1.0
C      1  0.5554710000000  0.5119910000000  0.4981510000000 1.0
C      1  0.5858390000000  0.4919080000000  0.4454100000000 1.0
C      1  0.4762000000000  0.4407230000000  0.5177880000000 1.0
C      1  0.5377310000000  0.5623940000000  0.4926800000000 1.0
C      1  0.4366970000000  0.4797910000000  0.5419590000000 1.0
C      1  0.4884110000000  0.5543020000000  0.5722010000000 1.0
C      1  0.4906290000000  0.4899530000000  0.5087390000000 1.0
C      1  0.5526250000000  0.4725530000000  0.5023620000000 1.0
C      1  0.5206200000000  0.5064090000000  0.4433480000000 1.0
C      1  0.4367390000000  0.4370270000000  0.5038170000000 1.0
C      1  0.4220990000000  0.5259080000000  0.5062200000000 1.0
C      1  0.4052020000000  0.4999760000000  0.4915190000000 1.0
C      1  0.4970780000000  0.4530990000000  0.3993490000000 1.0
C      1  0.4419750000000  0.5288640000000  0.4523780000000 1.0
C      1  0.4909160000000  0.5804470000000  0.4570510000000 1.0
C      1  0.5084040000000  0.4403530000000  0.5480040000000 1.0
C      1  0.4673050000000  0.5225360000000  0.4679700000000 1.0
C      1  0.4916600000000  0.4479780000000  0.5763120000000 1.0
C      1  0.4941500000000  0.5129950000000  0.4529260000000 1.0
C      1  0.5173520000000  0.5539050000000  0.5449470000000 1.0
C      1  0.5416680000000  0.4326950000000  0.5484620000000 1.0
C      1  0.4688950000000  0.5377470000000  0.4933510000000 1.0
C      1  0.5705020000000  0.4935190000000  0.5224920000000 1.0
C      1  0.4429290000000  0.4278740000000  0.5350830000000 1.0
C      1  0.5215360000000  0.5412430000000  0.4751990000000 1.0
C      1  0.5890010000000  0.5163980000000  0.4499110000000 1.0
C      1  0.4497030000000  0.5577340000000  0.4375570000000 1.0
C      1  0.5750690000000  0.4528350000000  0.5399070000000 1.0
C      1  0.4446210000000  0.5026510000000  0.4962490000000 1.0
C      1  0.4120410000000  0.4921190000000  0.5243620000000 1.0
C      1  0.5671220000000  0.5546840000000  0.5439430000000 1.0
C      1  0.4125040000000  0.5239770000000  0.4678210000000 1.0
C      1  0.5358240000000  0.4533850000000  0.5221010000000 1.0
C      1  0.4555510000000  0.5649200000000  0.5091890000000 1.0
C      1  0.4899850000000  0.4868080000000  0.5427720000000 1.0
C      1  0.5855840000000  0.5257120000000  0.5039400000000 1.0
C      1  0.5424790000000  0.5698690000000  0.4538340000000 1.0
C      1  0.4705090000000  0.4102660000000  0.4448210000000 1.0
C      1  0.4374480000000  0.5701920000000  0.4821590000000 1.0
C      1  0.4725160000000  0.5248330000000  0.5685360000000 1.0
C      1  0.4394650000000  0.5062170000000  0.5811340000000 1.0
C      1  0.5639350000000  0.5146430000000  0.5768890000000 1.0
C      1  0.4656110000000  0.5891710000000  0.4876490000000 1.0
C      1  0.5778700000000  0.5048550000000  0.5529320000000 1.0
C      1  0.4728120000000  0.4144970000000  0.5354620000000 1.0
C      1  0.4503480000000  0.5713960000000  0.5378990000000 1.0
C      1  0.5130620000000  0.4854060000000  0.4761090000000 1.0
C      1  0.5237370000000  0.4087340000000  0.4565730000000 1.0
C      1  0.5199290000000  0.4751590000000  0.5841450000000 1.0
C      1  0.5218180000000  0.5137220000000  0.4928330000000 1.0
C      1  0.4542110000000  0.4831320000000  0.5881830000000 1.0
C      1  0.4652030000000  0.5101660000000  0.4257280000000 1.0
C      1  0.4668400000000  0.4675330000000  0.5314670000000 1.0
C      1  0.5872210000000  0.5562470000000  0.4978010000000 1.0
C      1  0.4937030000000  0.4172730000000  0.4851260000000 1.0
C      1  0.4868680000000  0.4782230000000  0.5904100000000 1.0
C      1  0.5553480000000  0.5437830000000  0.5742310000000 1.0
C      1  0.5643820000000  0.4272680000000  0.4891120000000 1.0
C      1  0.5291560000000  0.5069480000000  0.5404080000000 1.0
C      1  0.4339510000000  0.4509760000000  0.4722980000000 1.0
C      1  0.5925810000000  0.4725950000000  0.5097320000000 1.0
C      1  0.4804650000000  0.4756480000000  0.4791280000000 1.0
C      1  0.5200980000000  0.5850200000000  0.4649410000000 1.0
C      1  0.4780850000000  0.4460750000000  0.4623540000000 1.0
C      1  0.5867430000000  0.5277970000000  0.5351740000000 1.0
C      1  0.4921390000000  0.5392930000000  0.5280840000000 1.0
END
