TITL C-2778422-5617-644 0.00447857688583156 125000 -1119.02651717965 0 0 189 (C1) n - 1
REM
REM in /home/nfs/bkarasulu/CARBON/AIRSS/Generating-Clusters/REBO/Only-C1/SD-CG/HFTN-CG
REM
REM
REM
REM
REM
REM ./C.cell (11c1c37f851c82e70ff6c80c92926a4b)
REM
REM compiler GCC version 9.2.1 20190827 (Red Hat 9.2.1-1)
REM options -cpp -mtune=generic -march=x86-64 -g -O0 -fpre-include=/usr/include/finclude/math-vector-fortran.h
REM seed -1418604708 -429511594 756391056 486117286 1996471494 2093063277 1483481079 -1015353133 -1514918103 1306292790 -1280411502 -1345792301 -576649061 74448588 -1204148621 1639640085 -1666575383 -1007777256 -1472343684 640256445 2094185404 -1634807403 -467123923 -1613638795 -1824252019 -513983192 -1716953370 -2023055990 -36471592 255144010 -460082451 -1648358666 1501396561
REM
CELL 1.54180   50.00000   50.00000   50.00000   90.00000   90.00000   90.00000
LATT -1
SFAC C  
C      1  0.4834140000000  0.5204760000000  0.4593790000000 1.0
C      1  0.4333680000000  0.4591770000000  0.4216450000000 1.0
C      1  0.3990720000000  0.5218490000000  0.4689250000000 1.0
C      1  0.4755030000000  0.4216710000000  0.4765120000000 1.0
C      1  0.4441110000000  0.5174980000000  0.4744100000000 1.0
C      1  0.4877440000000  0.4890760000000  0.4671780000000 1.0
C      1  0.5730630000000  0.5728860000000  0.4553980000000 1.0
C      1  0.4905650000000  0.4408850000000  0.5796080000000 1.0
C      1  0.4882130000000  0.4096270000000  0.5654410000000 1.0
C      1  0.4819070000000  0.5350220000000  0.3957990000000 1.0
C      1  0.4561840000000  0.3929000000000  0.5150880000000 1.0
C      1  0.4465400000000  0.5710570000000  0.4943590000000 1.0
C      1  0.5454510000000  0.4964710000000  0.6099550000000 1.0
C      1  0.5688310000000  0.4901620000000  0.4106610000000 1.0
C      1  0.4667120000000  0.5372960000000  0.6046050000000 1.0
C      1  0.5542540000000  0.4116420000000  0.4644580000000 1.0
C      1  0.5048400000000  0.5701650000000  0.5241390000000 1.0
C      1  0.5068880000000  0.4691640000000  0.6053790000000 1.0
C      1  0.4943130000000  0.5328910000000  0.5340660000000 1.0
C      1  0.4314000000000  0.4567280000000  0.4818680000000 1.0
C      1  0.4841460000000  0.4392900000000  0.4144600000000 1.0
C      1  0.4750510000000  0.3910910000000  0.4882150000000 1.0
C      1  0.4767670000000  0.5734430000000  0.5395770000000 1.0
C      1  0.5713550000000  0.4814480000000  0.5551820000000 1.0
C      1  0.4569330000000  0.5293670000000  0.4075490000000 1.0
C      1  0.5455480000000  0.4999010000000  0.4341140000000 1.0
C      1  0.5341630000000  0.5861770000000  0.4969710000000 1.0
C      1  0.6073740000000  0.5580890000000  0.4966530000000 1.0
C      1  0.4150640000000  0.5507090000000  0.4676830000000 1.0
C      1  0.4618940000000  0.6109890000000  0.5238350000000 1.0
C      1  0.4871810000000  0.4973070000000  0.4350240000000 1.0
C      1  0.4513080000000  0.4984550000000  0.4511290000000 1.0
C      1  0.4671980000000  0.5066690000000  0.5551120000000 1.0
C      1  0.5680940000000  0.4329260000000  0.5266610000000 1.0
C      1  0.4553560000000  0.5456660000000  0.4759110000000 1.0
C      1  0.5298960000000  0.5549900000000  0.4090590000000 1.0
C      1  0.6032750000000  0.4886970000000  0.4946110000000 1.0
C      1  0.5286080000000  0.4748760000000  0.4446270000000 1.0
C      1  0.4871330000000  0.5390560000000  0.4860310000000 1.0
C      1  0.5521700000000  0.5124480000000  0.5158490000000 1.0
C      1  0.4825300000000  0.4663310000000  0.5034840000000 1.0
C      1  0.5703500000000  0.5464040000000  0.5055350000000 1.0
C      1  0.5223070000000  0.4773600000000  0.4111420000000 1.0
C      1  0.4412860000000  0.5058340000000  0.5755780000000 1.0
C      1  0.4881480000000  0.5659830000000  0.5710620000000 1.0
C      1  0.5511790000000  0.3988450000000  0.5147610000000 1.0
C      1  0.5765820000000  0.4705770000000  0.4717470000000 1.0
C      1  0.6013640000000  0.4646880000000  0.5102740000000 1.0
C      1  0.3935200000000  0.4569390000000  0.5367330000000 1.0
C      1  0.5993560000000  0.5468670000000  0.5245390000000 1.0
C      1  0.5104460000000  0.4230110000000  0.4391630000000 1.0
C      1  0.4085300000000  0.5606810000000  0.5276490000000 1.0
C      1  0.4509590000000  0.5539690000000  0.5405000000000 1.0
C      1  0.5635310000000  0.4528880000000  0.5721700000000 1.0
C      1  0.4585090000000  0.4251480000000  0.5621340000000 1.0
C      1  0.5400520000000  0.4826770000000  0.5106150000000 1.0
C      1  0.6043270000000  0.4911940000000  0.5563930000000 1.0
C      1  0.5172040000000  0.4998800000000  0.6116150000000 1.0
C      1  0.4938960000000  0.5100530000000  0.3874840000000 1.0
C      1  0.5228410000000  0.5469160000000  0.5365640000000 1.0
C      1  0.5215370000000  0.4283040000000  0.4956930000000 1.0
C      1  0.4692910000000  0.4985260000000  0.5942790000000 1.0
C      1  0.5365000000000  0.4319800000000  0.5739790000000 1.0
C      1  0.5658170000000  0.5198930000000  0.4061210000000 1.0
C      1  0.5128840000000  0.6006220000000  0.5137350000000 1.0
C      1  0.4432230000000  0.4524370000000  0.5518290000000 1.0
C      1  0.4176720000000  0.4957310000000  0.4724710000000 1.0
C      1  0.4432110000000  0.5951490000000  0.5393790000000 1.0
C      1  0.4872330000000  0.6118860000000  0.5008430000000 1.0
C      1  0.4185150000000  0.4769110000000  0.4464410000000 1.0
C      1  0.4786650000000  0.4506810000000  0.4614170000000 1.0
C      1  0.4243260000000  0.5355300000000  0.4406060000000 1.0
C      1  0.4922320000000  0.4358280000000  0.4992000000000 1.0
C      1  0.3833860000000  0.4668690000000  0.5095550000000 1.0
C      1  0.6025790000000  0.4629820000000  0.5389640000000 1.0
C      1  0.4555780000000  0.4615730000000  0.5240070000000 1.0
C      1  0.4491150000000  0.4196810000000  0.4562220000000 1.0
C      1  0.4175370000000  0.4866490000000  0.5043440000000 1.0
C      1  0.5770120000000  0.5082270000000  0.4448520000000 1.0
C      1  0.5305040000000  0.4773920000000  0.5400110000000 1.0
C      1  0.5198180000000  0.5042120000000  0.3989290000000 1.0
C      1  0.5216800000000  0.4132790000000  0.5593800000000 1.0
C      1  0.4368040000000  0.5338350000000  0.5197700000000 1.0
C      1  0.5880030000000  0.5178850000000  0.4998820000000 1.0
C      1  0.4607170000000  0.4725660000000  0.4798810000000 1.0
C      1  0.4783880000000  0.4368380000000  0.5295100000000 1.0
C      1  0.5167130000000  0.5477950000000  0.4876560000000 1.0
C      1  0.4298990000000  0.5580980000000  0.5740870000000 1.0
C      1  0.4426690000000  0.4005460000000  0.4839690000000 1.0
C      1  0.5765230000000  0.5628000000000  0.5412220000000 1.0
C      1  0.5369710000000  0.4352510000000  0.5222500000000 1.0
C      1  0.4751660000000  0.5508060000000  0.4499700000000 1.0
C      1  0.4462970000000  0.4788470000000  0.4001480000000 1.0
C      1  0.5070390000000  0.4841050000000  0.5083290000000 1.0
C      1  0.5292590000000  0.3980870000000  0.5348400000000 1.0
C      1  0.4409860000000  0.5968990000000  0.4644030000000 1.0
C      1  0.4136690000000  0.5461490000000  0.5523090000000 1.0
C      1  0.5616990000000  0.5370430000000  0.4678710000000 1.0
C      1  0.4139830000000  0.4111470000000  0.4926530000000 1.0
C      1  0.5550640000000  0.4712180000000  0.5996550000000 1.0
C      1  0.4881680000000  0.5878730000000  0.4761810000000 1.0
C      1  0.5355520000000  0.4461750000000  0.4714440000000 1.0
C      1  0.5635900000000  0.5313710000000  0.5417220000000 1.0
C      1  0.4961580000000  0.5589480000000  0.4113230000000 1.0
C      1  0.4773610000000  0.5737140000000  0.5052490000000 1.0
C      1  0.5827660000000  0.4472520000000  0.4403500000000 1.0
C      1  0.4971730000000  0.4452690000000  0.5504620000000 1.0
C      1  0.4951450000000  0.5197530000000  0.6005730000000 1.0
C      1  0.3845600000000  0.5221020000000  0.4963100000000 1.0
C      1  0.5218520000000  0.6004980000000  0.5437510000000 1.0
C      1  0.4195640000000  0.5806410000000  0.4637960000000 1.0
C      1  0.5827920000000  0.4439520000000  0.5485350000000 1.0
C      1  0.4449800000000  0.5002630000000  0.5008900000000 1.0
C      1  0.4525520000000  0.4514360000000  0.5835340000000 1.0
C      1  0.4734110000000  0.5387980000000  0.5587410000000 1.0
C      1  0.5506090000000  0.5726960000000  0.4286920000000 1.0
C      1  0.4808500000000  0.3913180000000  0.5384610000000 1.0
C      1  0.5410470000000  0.5625460000000  0.4596190000000 1.0
C      1  0.4552910000000  0.6042270000000  0.4919340000000 1.0
C      1  0.5075410000000  0.5504700000000  0.4416300000000 1.0
C      1  0.4305690000000  0.4447150000000  0.4519880000000 1.0
C      1  0.5385360000000  0.5546780000000  0.5092960000000 1.0
C      1  0.4164250000000  0.5091960000000  0.4351920000000 1.0
C      1  0.3865650000000  0.4971920000000  0.5082310000000 1.0
C      1  0.4573410000000  0.5022230000000  0.4190770000000 1.0
C      1  0.5421400000000  0.4889240000000  0.5662910000000 1.0
C      1  0.4641740000000  0.5051090000000  0.5238650000000 1.0
C      1  0.5268700000000  0.4021840000000  0.4547670000000 1.0
C      1  0.5660700000000  0.5858040000000  0.5206330000000 1.0
C      1  0.4288950000000  0.4757550000000  0.5804150000000 1.0
C      1  0.4439610000000  0.5370930000000  0.5889670000000 1.0
C      1  0.6003680000000  0.4473060000000  0.4660580000000 1.0
C      1  0.5140490000000  0.4820300000000  0.5761390000000 1.0
C      1  0.4764960000000  0.4193000000000  0.4367140000000 1.0
C      1  0.5611210000000  0.5362670000000  0.4338790000000 1.0
C      1  0.4119900000000  0.4615080000000  0.5587300000000 1.0
C      1  0.5245720000000  0.5230170000000  0.4721800000000 1.0
C      1  0.4952010000000  0.4941350000000  0.5622380000000 1.0
C      1  0.5032380000000  0.5930800000000  0.5622340000000 1.0
C      1  0.5146860000000  0.4479840000000  0.4157600000000 1.0
C      1  0.5633010000000  0.4133100000000  0.4922240000000 1.0
C      1  0.3977890000000  0.4536730000000  0.4875790000000 1.0
C      1  0.5654810000000  0.5754230000000  0.4884960000000 1.0
C      1  0.4975390000000  0.5017280000000  0.5299560000000 1.0
C      1  0.5401690000000  0.6012420000000  0.4698930000000 1.0
C      1  0.5078010000000  0.5434330000000  0.5827250000000 1.0
C      1  0.4674360000000  0.5898950000000  0.4534030000000 1.0
C      1  0.5053600000000  0.3845910000000  0.5247780000000 1.0
C      1  0.5877620000000  0.4775280000000  0.4339880000000 1.0
C      1  0.6036210000000  0.5197660000000  0.5370660000000 1.0
C      1  0.4820900000000  0.4710910000000  0.4153150000000 1.0
C      1  0.5115260000000  0.5719700000000  0.4672360000000 1.0
C      1  0.5289920000000  0.5285360000000  0.4420870000000 1.0
C      1  0.5965890000000  0.5177830000000  0.4679990000000 1.0
C      1  0.4506950000000  0.4206030000000  0.5290150000000 1.0
C      1  0.4766550000000  0.4673770000000  0.5957600000000 1.0
C      1  0.5175380000000  0.4919980000000  0.4789790000000 1.0
C      1  0.4444250000000  0.5480690000000  0.4246210000000 1.0
C      1  0.5817000000000  0.4416280000000  0.4987740000000 1.0
C      1  0.5793940000000  0.4980400000000  0.5266140000000 1.0
C      1  0.4765290000000  0.4866440000000  0.3878220000000 1.0
C      1  0.5372940000000  0.5277500000000  0.4021850000000 1.0
C      1  0.5514180000000  0.5123880000000  0.4847390000000 1.0
C      1  0.4321860000000  0.4337200000000  0.5076780000000 1.0
C      1  0.4603660000000  0.4683850000000  0.4401770000000 1.0
C      1  0.5507050000000  0.4552990000000  0.4984510000000 1.0
C      1  0.4400730000000  0.5844270000000  0.5662240000000 1.0
C      1  0.6053720000000  0.4863200000000  0.4617580000000 1.0
C      1  0.4284330000000  0.5796990000000  0.5198740000000 1.0
C      1  0.4102160000000  0.5428340000000  0.5005390000000 1.0
C      1  0.5317920000000  0.4517810000000  0.5961130000000 1.0
C      1  0.3922500000000  0.4255140000000  0.4837160000000 1.0
C      1  0.5451330000000  0.5998500000000  0.4458240000000 1.0
C      1  0.5086390000000  0.4527040000000  0.4548550000000 1.0
C      1  0.5580740000000  0.4371790000000  0.4482800000000 1.0
C      1  0.4682940000000  0.5719080000000  0.4265660000000 1.0
C      1  0.4700620000000  0.5349160000000  0.5114340000000 1.0
C      1  0.5026240000000  0.3837530000000  0.4964830000000 1.0
C      1  0.5482880000000  0.5905200000000  0.5456120000000 1.0
C      1  0.5338160000000  0.5433240000000  0.5657850000000 1.0
C      1  0.5212310000000  0.3999720000000  0.4836590000000 1.0
C      1  0.5533660000000  0.5674650000000  0.5651650000000 1.0
C      1  0.5495920000000  0.4835110000000  0.4702410000000 1.0
C      1  0.4216340000000  0.4620240000000  0.5199560000000 1.0
C      1  0.4252660000000  0.5182560000000  0.5480510000000 1.0
C      1  0.5926360000000  0.5506650000000  0.4727080000000 1.0
C      1  0.5517810000000  0.5174780000000  0.5697480000000 1.0
C      1  0.5222640000000  0.4508620000000  0.5418230000000 1.0
C      1  0.5846060000000  0.5176270000000  0.5652460000000 1.0
END
