TITL C-2778436-5916-564 0.000440999909347633 125000 -1109.31971405803 0 0 192 (C1) n - 1
REM
REM in /home/nfs/bkarasulu/CARBON/AIRSS/Generating-Clusters/REBO/Only-C1/SD-CG/HFTN-CG
REM
REM
REM
REM
REM
REM ./C.cell (11c1c37f851c82e70ff6c80c92926a4b)
REM
REM compiler GCC version 9.2.1 20190827 (Red Hat 9.2.1-1)
REM options -cpp -mtune=generic -march=x86-64 -g -O0 -fpre-include=/usr/include/finclude/math-vector-fortran.h
REM seed 1940739432 1818492228 1765899548 975564977 308578526 -1232620986 -277556962 -1725809649 -1363313871 -1157291267 693536568 -1460251031 -628677959 448829874 849325633 1789389817 -2122369749 1107487997 -985024380 1909440730 -66825911 828918569 -1923489248 -1202525878 -1329466435 -404036808 -373368561 1616824420 -1943776504 -1819292584 2108629910 -768330034 1267771690
REM
CELL 1.54180   50.00000   50.00000   50.00000   90.00000   90.00000   90.00000
LATT -1
SFAC C  
C      1  0.5375080000000  0.3952830000000  0.5514670000000 1.0
C      1  0.5777030000000  0.4068030000000  0.5144780000000 1.0
C      1  0.4676040000000  0.4161520000000  0.4349210000000 1.0
C      1  0.4568150000000  0.4241320000000  0.5736800000000 1.0
C      1  0.4840320000000  0.5005050000000  0.4087810000000 1.0
C      1  0.3977950000000  0.4970340000000  0.5380840000000 1.0
C      1  0.5285790000000  0.4638190000000  0.5512330000000 1.0
C      1  0.5970550000000  0.5065430000000  0.4479240000000 1.0
C      1  0.3978570000000  0.5753750000000  0.5099390000000 1.0
C      1  0.5579290000000  0.4676240000000  0.4290460000000 1.0
C      1  0.4972370000000  0.4259540000000  0.4490490000000 1.0
C      1  0.4221030000000  0.5876310000000  0.5257790000000 1.0
C      1  0.5053850000000  0.4751300000000  0.5710350000000 1.0
C      1  0.5269310000000  0.3923440000000  0.4935150000000 1.0
C      1  0.5300520000000  0.4270920000000  0.5290050000000 1.0
C      1  0.5583860000000  0.3972310000000  0.4698000000000 1.0
C      1  0.5247560000000  0.5637330000000  0.5026650000000 1.0
C      1  0.5354540000000  0.5048290000000  0.5217840000000 1.0
C      1  0.5125730000000  0.5504630000000  0.5316060000000 1.0
C      1  0.4495320000000  0.5417600000000  0.5293030000000 1.0
C      1  0.4473860000000  0.5961880000000  0.5446000000000 1.0
C      1  0.4492600000000  0.4936680000000  0.5656460000000 1.0
C      1  0.5300960000000  0.4491310000000  0.5084570000000 1.0
C      1  0.5511540000000  0.5106940000000  0.5508990000000 1.0
C      1  0.5438020000000  0.4856850000000  0.5707500000000 1.0
C      1  0.4392930000000  0.4958660000000  0.4582590000000 1.0
C      1  0.5564160000000  0.5337340000000  0.4277310000000 1.0
C      1  0.4481040000000  0.4496870000000  0.5318100000000 1.0
C      1  0.5336890000000  0.5667850000000  0.5662060000000 1.0
C      1  0.5606310000000  0.5188980000000  0.4644560000000 1.0
C      1  0.5325730000000  0.4828920000000  0.4173770000000 1.0
C      1  0.5793850000000  0.5730180000000  0.4678100000000 1.0
C      1  0.5128600000000  0.5176500000000  0.5423490000000 1.0
C      1  0.4263130000000  0.4945250000000  0.4870680000000 1.0
C      1  0.5533540000000  0.4139500000000  0.4429490000000 1.0
C      1  0.5105970000000  0.4268900000000  0.5822440000000 1.0
C      1  0.4819330000000  0.5559800000000  0.4277290000000 1.0
C      1  0.4698280000000  0.3902120000000  0.5198330000000 1.0
C      1  0.5267870000000  0.5328060000000  0.4209130000000 1.0
C      1  0.5798200000000  0.4467240000000  0.5433900000000 1.0
C      1  0.4616500000000  0.5159300000000  0.4541070000000 1.0
C      1  0.4220830000000  0.4942580000000  0.4346540000000 1.0
C      1  0.4392090000000  0.5394620000000  0.5005570000000 1.0
C      1  0.4338020000000  0.5768670000000  0.4187320000000 1.0
C      1  0.5454730000000  0.5036970000000  0.4406010000000 1.0
C      1  0.5905160000000  0.4491640000000  0.4882250000000 1.0
C      1  0.4035170000000  0.4682340000000  0.4371370000000 1.0
C      1  0.5549620000000  0.5204690000000  0.5039910000000 1.0
C      1  0.5365750000000  0.3952590000000  0.5197440000000 1.0
C      1  0.4958190000000  0.5967720000000  0.4427350000000 1.0
C      1  0.4619670000000  0.4547970000000  0.5875100000000 1.0
C      1  0.4561460000000  0.4051350000000  0.5473360000000 1.0
C      1  0.5199190000000  0.4885380000000  0.4550990000000 1.0
C      1  0.4440030000000  0.5422870000000  0.4573650000000 1.0
C      1  0.4470570000000  0.4878680000000  0.5202570000000 1.0
C      1  0.4043490000000  0.5098400000000  0.5078310000000 1.0
C      1  0.5627160000000  0.4643210000000  0.5894080000000 1.0
C      1  0.5666840000000  0.5615540000000  0.4377570000000 1.0
C      1  0.5349280000000  0.4196070000000  0.4776540000000 1.0
C      1  0.5703640000000  0.5172450000000  0.5852030000000 1.0
C      1  0.5208930000000  0.4948660000000  0.6021310000000 1.0
C      1  0.5114630000000  0.5914210000000  0.5753700000000 1.0
C      1  0.4873120000000  0.4322150000000  0.5607960000000 1.0
C      1  0.4805990000000  0.5360420000000  0.5284250000000 1.0
C      1  0.4239080000000  0.4197730000000  0.4675600000000 1.0
C      1  0.4467950000000  0.5976250000000  0.5052730000000 1.0
C      1  0.5946980000000  0.4795650000000  0.4609890000000 1.0
C      1  0.4502080000000  0.4940490000000  0.4062170000000 1.0
C      1  0.5782290000000  0.5626140000000  0.5499600000000 1.0
C      1  0.5471070000000  0.4806270000000  0.4914700000000 1.0
C      1  0.4205900000000  0.4809970000000  0.5583080000000 1.0
C      1  0.5133360000000  0.4553200000000  0.4534380000000 1.0
C      1  0.5373120000000  0.5606750000000  0.4648530000000 1.0
C      1  0.4673820000000  0.5266210000000  0.5790630000000 1.0
C      1  0.5978700000000  0.5305660000000  0.5363670000000 1.0
C      1  0.4367520000000  0.4210900000000  0.5286960000000 1.0
C      1  0.4242640000000  0.4418040000000  0.5008940000000 1.0
C      1  0.4886210000000  0.3948570000000  0.5468350000000 1.0
C      1  0.5766390000000  0.4964180000000  0.5382080000000 1.0
C      1  0.5731080000000  0.5780170000000  0.5246260000000 1.0
C      1  0.4239290000000  0.4678780000000  0.5309890000000 1.0
C      1  0.5814900000000  0.4899350000000  0.5827280000000 1.0
C      1  0.5708130000000  0.5000710000000  0.4856660000000 1.0
C      1  0.5800200000000  0.5408500000000  0.4591680000000 1.0
C      1  0.4999600000000  0.5755200000000  0.5470690000000 1.0
C      1  0.3969520000000  0.5188090000000  0.4758670000000 1.0
C      1  0.4414120000000  0.5653650000000  0.5700210000000 1.0
C      1  0.4324420000000  0.5192170000000  0.4052020000000 1.0
C      1  0.6058790000000  0.4478610000000  0.4577360000000 1.0
C      1  0.4726460000000  0.5573990000000  0.5725790000000 1.0
C      1  0.4681600000000  0.5920330000000  0.4558230000000 1.0
C      1  0.4677380000000  0.3890270000000  0.4896390000000 1.0
C      1  0.5423710000000  0.5206580000000  0.5960290000000 1.0
C      1  0.5024890000000  0.5206950000000  0.4818740000000 1.0
C      1  0.4464910000000  0.4392640000000  0.4211400000000 1.0
C      1  0.5999520000000  0.5361430000000  0.5024990000000 1.0
C      1  0.4286250000000  0.5608750000000  0.5439490000000 1.0
C      1  0.5084570000000  0.4674250000000  0.4235280000000 1.0
C      1  0.5335370000000  0.5968060000000  0.5499850000000 1.0
C      1  0.4730960000000  0.5023260000000  0.5070060000000 1.0
C      1  0.5010200000000  0.6086280000000  0.5072060000000 1.0
C      1  0.5128290000000  0.5338150000000  0.5981300000000 1.0
C      1  0.4364520000000  0.4461130000000  0.4504410000000 1.0
C      1  0.5188990000000  0.4914220000000  0.4872640000000 1.0
C      1  0.4055870000000  0.4483290000000  0.4639850000000 1.0
C      1  0.5805860000000  0.5625070000000  0.4985310000000 1.0
C      1  0.5108030000000  0.4366460000000  0.4132810000000 1.0
C      1  0.4397040000000  0.4664340000000  0.4942730000000 1.0
C      1  0.5481250000000  0.4509500000000  0.4790960000000 1.0
C      1  0.5397000000000  0.5786660000000  0.4359460000000 1.0
C      1  0.4792460000000  0.4382670000000  0.4117630000000 1.0
C      1  0.4312560000000  0.4673860000000  0.4169700000000 1.0
C      1  0.5747680000000  0.3910140000000  0.4916810000000 1.0
C      1  0.5122980000000  0.5815050000000  0.4241340000000 1.0
C      1  0.5236400000000  0.4744760000000  0.5231490000000 1.0
C      1  0.4722390000000  0.5129850000000  0.5495950000000 1.0
C      1  0.5027760000000  0.6074590000000  0.5398840000000 1.0
C      1  0.4101020000000  0.5371060000000  0.5275700000000 1.0
C      1  0.4613960000000  0.4274280000000  0.4985330000000 1.0
C      1  0.3970510000000  0.4714620000000  0.5151370000000 1.0
C      1  0.4719230000000  0.6095820000000  0.5254450000000 1.0
C      1  0.5630390000000  0.4764160000000  0.5168600000000 1.0
C      1  0.4768730000000  0.4534000000000  0.5147020000000 1.0
C      1  0.5838960000000  0.4711020000000  0.5562710000000 1.0
C      1  0.4727400000000  0.4354190000000  0.4691350000000 1.0
C      1  0.5770340000000  0.4309740000000  0.4603450000000 1.0
C      1  0.5094450000000  0.4420820000000  0.4835270000000 1.0
C      1  0.5521520000000  0.5497590000000  0.4922030000000 1.0
C      1  0.4901050000000  0.5590000000000  0.4604270000000 1.0
C      1  0.4980500000000  0.4322800000000  0.5313400000000 1.0
C      1  0.4541800000000  0.5676970000000  0.4393520000000 1.0
C      1  0.4765730000000  0.5962530000000  0.4883740000000 1.0
C      1  0.4838720000000  0.4821440000000  0.5497450000000 1.0
C      1  0.5077210000000  0.5211100000000  0.3955840000000 1.0
C      1  0.4887700000000  0.5177670000000  0.5988100000000 1.0
C      1  0.5116280000000  0.4005850000000  0.5624380000000 1.0
C      1  0.5425850000000  0.5435850000000  0.5485410000000 1.0
C      1  0.4418430000000  0.5822380000000  0.4755440000000 1.0
C      1  0.4585650000000  0.4639840000000  0.4656960000000 1.0
C      1  0.4122630000000  0.5379350000000  0.4548050000000 1.0
C      1  0.4551780000000  0.4064900000000  0.4650960000000 1.0
C      1  0.5688180000000  0.4620740000000  0.4544510000000 1.0
C      1  0.5272760000000  0.4199650000000  0.4337940000000 1.0
C      1  0.3945670000000  0.4868210000000  0.4644600000000 1.0
C      1  0.4923190000000  0.4706760000000  0.4923910000000 1.0
C      1  0.5373660000000  0.5042360000000  0.3953410000000 1.0
C      1  0.4834040000000  0.4949810000000  0.4700700000000 1.0
C      1  0.5064680000000  0.5085980000000  0.4333300000000 1.0
C      1  0.5604570000000  0.4186500000000  0.5413050000000 1.0
C      1  0.4948410000000  0.4551580000000  0.5927100000000 1.0
C      1  0.5966480000000  0.4823210000000  0.4930410000000 1.0
C      1  0.5409140000000  0.6099150000000  0.4747770000000 1.0
C      1  0.5499590000000  0.5948630000000  0.5248650000000 1.0
C      1  0.5649730000000  0.5098150000000  0.3970700000000 1.0
C      1  0.4986720000000  0.3903630000000  0.4917950000000 1.0
C      1  0.5978060000000  0.5043820000000  0.5148340000000 1.0
C      1  0.4642150000000  0.5584690000000  0.4769450000000 1.0
C      1  0.5295250000000  0.5289880000000  0.4669220000000 1.0
C      1  0.4159610000000  0.5684050000000  0.4685020000000 1.0
C      1  0.4133840000000  0.5233290000000  0.4273160000000 1.0
C      1  0.4811290000000  0.4759990000000  0.4427600000000 1.0
C      1  0.4329560000000  0.4103780000000  0.4978890000000 1.0
C      1  0.4674430000000  0.4573580000000  0.5544100000000 1.0
C      1  0.5849950000000  0.4358580000000  0.5150360000000 1.0
C      1  0.5349890000000  0.4688930000000  0.6063430000000 1.0
C      1  0.5816430000000  0.5353150000000  0.5659680000000 1.0
C      1  0.4792710000000  0.5716530000000  0.5111480000000 1.0
C      1  0.4373140000000  0.5147130000000  0.5888020000000 1.0
C      1  0.3945740000000  0.4665740000000  0.4880930000000 1.0
C      1  0.4496240000000  0.5151640000000  0.4915450000000 1.0
C      1  0.4881170000000  0.4862840000000  0.6052480000000 1.0
C      1  0.4867230000000  0.5418720000000  0.4963880000000 1.0
C      1  0.4692290000000  0.5736600000000  0.5427680000000 1.0
C      1  0.5579720000000  0.5943050000000  0.4585370000000 1.0
C      1  0.5816170000000  0.5122080000000  0.4244180000000 1.0
C      1  0.4556230000000  0.4867480000000  0.5973850000000 1.0
C      1  0.5121690000000  0.6063670000000  0.4662550000000 1.0
C      1  0.5105120000000  0.5750010000000  0.4737910000000 1.0
C      1  0.5669420000000  0.5384830000000  0.5273430000000 1.0
C      1  0.4067480000000  0.5469090000000  0.4933780000000 1.0
C      1  0.5292720000000  0.5972790000000  0.5011790000000 1.0
C      1  0.4708120000000  0.4693280000000  0.4118950000000 1.0
C      1  0.4968240000000  0.4954740000000  0.5233530000000 1.0
C      1  0.5049200000000  0.5594680000000  0.5832100000000 1.0
C      1  0.4150050000000  0.5136950000000  0.5629590000000 1.0
C      1  0.5163840000000  0.5060910000000  0.5698440000000 1.0
C      1  0.5339920000000  0.4480530000000  0.5800990000000 1.0
C      1  0.6063700000000  0.5278900000000  0.4703680000000 1.0
C      1  0.4917560000000  0.4194910000000  0.5004590000000 1.0
C      1  0.5050940000000  0.5535120000000  0.4067980000000 1.0
C      1  0.4877300000000  0.5291570000000  0.4456890000000 1.0
C      1  0.4339190000000  0.5133600000000  0.5344650000000 1.0
END
