TITL C-2778432-5617-659 -0.0052834003386551 125000 -782.074237208146 0 0 135 (C1) n - 1
REM
REM in /home/nfs/bkarasulu/CARBON/AIRSS/Generating-Clusters/REBO/Only-C1/SD-CG/HFTN-CG
REM
REM
REM
REM
REM
REM ./C.cell (11c1c37f851c82e70ff6c80c92926a4b)
REM
REM compiler GCC version 9.2.1 20190827 (Red Hat 9.2.1-1)
REM options -cpp -mtune=generic -march=x86-64 -g -O0 -fpre-include=/usr/include/finclude/math-vector-fortran.h
REM seed 69731603 1408703407 -61220563 36938615 -1823379254 1063553120 1340552068 -2105239843 291354176 -1151558430 -2007504870 1982082960 -992438586 1565539845 939487715 -1414557233 2121003599 526163156 1642837764 -1621550209 -591430126 -1994765495 -1731606699 132380060 -428932305 -1148146216 -878608106 2036447903 -2122495435 554559543 568414353 -1282281048 796049147
REM
CELL 1.54180   50.00000   50.00000   50.00000   90.00000   90.00000   90.00000
LATT -1
SFAC C  
C      1  0.5721340000000  0.4771700000000  0.4859500000000 1.0
C      1  0.5784780000000  0.5358530000000  0.5174020000000 1.0
C      1  0.5152850000000  0.4975110000000  0.4707040000000 1.0
C      1  0.4498560000000  0.5515490000000  0.5578620000000 1.0
C      1  0.4559490000000  0.4335020000000  0.5363660000000 1.0
C      1  0.5319120000000  0.4719760000000  0.4074310000000 1.0
C      1  0.4561330000000  0.4148800000000  0.4891970000000 1.0
C      1  0.4321010000000  0.4697100000000  0.4503190000000 1.0
C      1  0.5495180000000  0.4884460000000  0.5914830000000 1.0
C      1  0.5843060000000  0.5101270000000  0.5283680000000 1.0
C      1  0.5342670000000  0.5902580000000  0.4990880000000 1.0
C      1  0.5070670000000  0.5632840000000  0.5099100000000 1.0
C      1  0.4777590000000  0.5682180000000  0.4465790000000 1.0
C      1  0.4770440000000  0.5732300000000  0.4862530000000 1.0
C      1  0.4146850000000  0.4793750000000  0.5008230000000 1.0
C      1  0.4712120000000  0.5112890000000  0.5919090000000 1.0
C      1  0.5135580000000  0.4978610000000  0.5263380000000 1.0
C      1  0.4526700000000  0.4759730000000  0.5127710000000 1.0
C      1  0.5388190000000  0.4810630000000  0.4867320000000 1.0
C      1  0.5286550000000  0.4496470000000  0.5146250000000 1.0
C      1  0.4744930000000  0.5371730000000  0.5423970000000 1.0
C      1  0.5397610000000  0.5795360000000  0.5252110000000 1.0
C      1  0.4861930000000  0.4492160000000  0.4739090000000 1.0
C      1  0.5596780000000  0.5499800000000  0.5583250000000 1.0
C      1  0.4800730000000  0.5449660000000  0.5142940000000 1.0
C      1  0.4687670000000  0.4178210000000  0.5148890000000 1.0
C      1  0.4524420000000  0.5791740000000  0.5533430000000 1.0
C      1  0.5102530000000  0.4309900000000  0.4370590000000 1.0
C      1  0.4895530000000  0.5907940000000  0.5196680000000 1.0
C      1  0.4112590000000  0.4669430000000  0.5251510000000 1.0
C      1  0.4068300000000  0.4559850000000  0.5551280000000 1.0
C      1  0.4696380000000  0.4803380000000  0.5770770000000 1.0
C      1  0.4506970000000  0.4492680000000  0.4335740000000 1.0
C      1  0.5821730000000  0.5598210000000  0.4624400000000 1.0
C      1  0.5700640000000  0.5289920000000  0.5738770000000 1.0
C      1  0.4741410000000  0.4527980000000  0.5575420000000 1.0
C      1  0.5439130000000  0.4919050000000  0.5338420000000 1.0
C      1  0.4549800000000  0.4545580000000  0.4864260000000 1.0
C      1  0.5297950000000  0.4580750000000  0.4389640000000 1.0
C      1  0.4946060000000  0.5353960000000  0.5872040000000 1.0
C      1  0.5543480000000  0.4624590000000  0.5615780000000 1.0
C      1  0.4960170000000  0.5162200000000  0.4382330000000 1.0
C      1  0.4844150000000  0.5869710000000  0.5528020000000 1.0
C      1  0.5261280000000  0.5343950000000  0.6001190000000 1.0
C      1  0.5704760000000  0.5559900000000  0.4918740000000 1.0
C      1  0.4938340000000  0.4152780000000  0.4517290000000 1.0
C      1  0.5203810000000  0.4042880000000  0.5271830000000 1.0
C      1  0.5448270000000  0.4882850000000  0.4337880000000 1.0
C      1  0.4455960000000  0.5047920000000  0.5745240000000 1.0
C      1  0.4458260000000  0.5588700000000  0.4448480000000 1.0
C      1  0.5109270000000  0.5208920000000  0.4074950000000 1.0
C      1  0.5045470000000  0.5593260000000  0.4331970000000 1.0
C      1  0.5235400000000  0.4150400000000  0.5568270000000 1.0
C      1  0.5547390000000  0.5823110000000  0.4809140000000 1.0
C      1  0.4757440000000  0.5342330000000  0.4540910000000 1.0
C      1  0.4239450000000  0.5207980000000  0.5317450000000 1.0
C      1  0.5860280000000  0.4786430000000  0.5152350000000 1.0
C      1  0.4947710000000  0.4929250000000  0.5487690000000 1.0
C      1  0.5198000000000  0.5492990000000  0.4812690000000 1.0
C      1  0.5625740000000  0.5614490000000  0.5305310000000 1.0
C      1  0.4140540000000  0.4600990000000  0.4760310000000 1.0
C      1  0.4968330000000  0.5112730000000  0.5009220000000 1.0
C      1  0.4988820000000  0.4557030000000  0.4166820000000 1.0
C      1  0.4215500000000  0.4181340000000  0.4569070000000 1.0
C      1  0.5566570000000  0.5211780000000  0.4530700000000 1.0
C      1  0.4406110000000  0.4795270000000  0.4208820000000 1.0
C      1  0.4977980000000  0.4154370000000  0.5123270000000 1.0
C      1  0.4458680000000  0.4205680000000  0.4427860000000 1.0
C      1  0.5258750000000  0.5597170000000  0.4520030000000 1.0
C      1  0.4867750000000  0.5436400000000  0.4108510000000 1.0
C      1  0.4791130000000  0.5972860000000  0.4639170000000 1.0
C      1  0.4695690000000  0.5076650000000  0.5428440000000 1.0
C      1  0.5041400000000  0.4364960000000  0.5599110000000 1.0
C      1  0.5453380000000  0.5356700000000  0.4952480000000 1.0
C      1  0.5537870000000  0.4168510000000  0.5447450000000 1.0
C      1  0.5276810000000  0.5126500000000  0.4466220000000 1.0
C      1  0.5466510000000  0.5788840000000  0.4538800000000 1.0
C      1  0.5315090000000  0.4643780000000  0.5815930000000 1.0
C      1  0.5284920000000  0.5453230000000  0.5433700000000 1.0
C      1  0.5282090000000  0.5273730000000  0.5672820000000 1.0
C      1  0.5787090000000  0.4450740000000  0.5124830000000 1.0
C      1  0.4856720000000  0.4857030000000  0.4388840000000 1.0
C      1  0.4569720000000  0.5876880000000  0.5239440000000 1.0
C      1  0.5438290000000  0.5009570000000  0.5628110000000 1.0
C      1  0.5488330000000  0.4082990000000  0.5139190000000 1.0
C      1  0.5952830000000  0.4644420000000  0.4426790000000 1.0
C      1  0.5031720000000  0.4732670000000  0.5754950000000 1.0
C      1  0.5907030000000  0.4629570000000  0.5451670000000 1.0
C      1  0.4883940000000  0.5447520000000  0.4805490000000 1.0
C      1  0.4421620000000  0.5288500000000  0.4572860000000 1.0
C      1  0.4673420000000  0.4121170000000  0.4615270000000 1.0
C      1  0.5514560000000  0.5046080000000  0.5062770000000 1.0
C      1  0.4321450000000  0.5034410000000  0.4922790000000 1.0
C      1  0.4186950000000  0.5312810000000  0.4821030000000 1.0
C      1  0.5017180000000  0.4889750000000  0.4095330000000 1.0
C      1  0.4227810000000  0.5451330000000  0.5104930000000 1.0
C      1  0.4773450000000  0.4960190000000  0.4672700000000 1.0
C      1  0.5064890000000  0.5057530000000  0.5762810000000 1.0
C      1  0.5766510000000  0.4354260000000  0.5423730000000 1.0
C      1  0.4286240000000  0.4328910000000  0.4850300000000 1.0
C      1  0.4137120000000  0.5099330000000  0.4573990000000 1.0
C      1  0.4826220000000  0.4810480000000  0.4976480000000 1.0
C      1  0.4474340000000  0.5051050000000  0.4141190000000 1.0
C      1  0.5664330000000  0.5078200000000  0.4758220000000 1.0
C      1  0.5535980000000  0.5191560000000  0.5968950000000 1.0
C      1  0.5715620000000  0.5429730000000  0.4436040000000 1.0
C      1  0.5077800000000  0.4370600000000  0.4952160000000 1.0
C      1  0.4790490000000  0.4552010000000  0.4426460000000 1.0
C      1  0.5800590000000  0.4805500000000  0.5667520000000 1.0
C      1  0.5051550000000  0.4494240000000  0.5330600000000 1.0
C      1  0.4638090000000  0.5155260000000  0.4918330000000 1.0
C      1  0.4292030000000  0.4420440000000  0.5363590000000 1.0
C      1  0.5531180000000  0.4979090000000  0.4028140000000 1.0
C      1  0.5143850000000  0.5738090000000  0.5459130000000 1.0
C      1  0.4482370000000  0.4835520000000  0.4738170000000 1.0
C      1  0.4402900000000  0.5735340000000  0.5019960000000 1.0
C      1  0.5480120000000  0.4612640000000  0.5319270000000 1.0
C      1  0.5686640000000  0.4314710000000  0.4690000000000 1.0
C      1  0.4528980000000  0.5438670000000  0.4983410000000 1.0
C      1  0.4797660000000  0.4635510000000  0.5254850000000 1.0
C      1  0.4338150000000  0.5265990000000  0.5594820000000 1.0
C      1  0.5022990000000  0.5966000000000  0.4891320000000 1.0
C      1  0.4740320000000  0.5135670000000  0.4007370000000 1.0
C      1  0.5827430000000  0.5082640000000  0.5579460000000 1.0
C      1  0.5649750000000  0.4254040000000  0.4963400000000 1.0
C      1  0.4912850000000  0.5550430000000  0.5632630000000 1.0
C      1  0.5159600000000  0.4645610000000  0.4676450000000 1.0
C      1  0.4546200000000  0.5378310000000  0.4204080000000 1.0
C      1  0.5796210000000  0.4572710000000  0.4641860000000 1.0
C      1  0.5394360000000  0.5216600000000  0.3961100000000 1.0
C      1  0.4452520000000  0.4994780000000  0.5297400000000 1.0
C      1  0.3987490000000  0.4873990000000  0.4627180000000 1.0
C      1  0.4487610000000  0.5816030000000  0.4700420000000 1.0
C      1  0.5217360000000  0.5288270000000  0.5173800000000 1.0
C      1  0.3953850000000  0.4584920000000  0.5787930000000 1.0
END
