TITL C-2778436-5916-1149 0.0039172178671193 125000 -905.609389682445 0 0 156 (C1) n - 1
REM
REM in /home/nfs/bkarasulu/CARBON/AIRSS/Generating-Clusters/REBO/Only-C1/SD-CG/HFTN-CG
REM
REM
REM
REM
REM
REM ./C.cell (11c1c37f851c82e70ff6c80c92926a4b)
REM
REM compiler GCC version 9.2.1 20190827 (Red Hat 9.2.1-1)
REM options -cpp -mtune=generic -march=x86-64 -g -O0 -fpre-include=/usr/include/finclude/math-vector-fortran.h
REM seed 196649866 577639862 -1377451755 -1361199272 1980333710 1266810162 -1177065844 -1814558173 1774298886 2006165409 -48295039 -361885710 1750469822 1413009568 -174525348 -1951601316 -1886865647 -387389834 -1362771992 41326597 1834261031 1120234716 1452564051 -1447748907 -1702322876 1497278055 -1625840478 -1030656321 -1603262342 665381585 1077610597 464793381 -1728189448
REM
CELL 1.54180   50.00000   50.00000   50.00000   90.00000   90.00000   90.00000
LATT -1
SFAC C  
C      1  0.3896500000000  0.4978430000000  0.5242900000000 1.0
C      1  0.4122980000000  0.5426100000000  0.4752620000000 1.0
C      1  0.4838690000000  0.4358630000000  0.5715510000000 1.0
C      1  0.5224870000000  0.4868100000000  0.5061470000000 1.0
C      1  0.4520980000000  0.4342240000000  0.5677520000000 1.0
C      1  0.4236110000000  0.4359570000000  0.5209550000000 1.0
C      1  0.4876500000000  0.5091290000000  0.3965310000000 1.0
C      1  0.4361480000000  0.5678960000000  0.4557470000000 1.0
C      1  0.5020250000000  0.4182770000000  0.4996750000000 1.0
C      1  0.4354180000000  0.4374900000000  0.4921600000000 1.0
C      1  0.4345880000000  0.5569780000000  0.5335080000000 1.0
C      1  0.4138410000000  0.4667870000000  0.5183730000000 1.0
C      1  0.4185460000000  0.5149690000000  0.4317490000000 1.0
C      1  0.4470470000000  0.5066690000000  0.5873940000000 1.0
C      1  0.5131130000000  0.5273150000000  0.4095380000000 1.0
C      1  0.4905650000000  0.5529960000000  0.4127850000000 1.0
C      1  0.4492260000000  0.5325540000000  0.5718870000000 1.0
C      1  0.5800970000000  0.4453120000000  0.4872790000000 1.0
C      1  0.5273630000000  0.4804280000000  0.4053020000000 1.0
C      1  0.5352790000000  0.4573080000000  0.5449010000000 1.0
C      1  0.4975700000000  0.5443520000000  0.5403810000000 1.0
C      1  0.4731840000000  0.4993590000000  0.6023190000000 1.0
C      1  0.4769480000000  0.5133330000000  0.4820190000000 1.0
C      1  0.4531350000000  0.4756810000000  0.4499880000000 1.0
C      1  0.4820820000000  0.5122350000000  0.4296890000000 1.0
C      1  0.4792260000000  0.4577330000000  0.4405450000000 1.0
C      1  0.5311570000000  0.4220850000000  0.4568410000000 1.0
C      1  0.4860340000000  0.4874270000000  0.5274720000000 1.0
C      1  0.5274520000000  0.4063560000000  0.4832360000000 1.0
C      1  0.5619110000000  0.4524590000000  0.5594250000000 1.0
C      1  0.5832050000000  0.5690870000000  0.5216450000000 1.0
C      1  0.5409770000000  0.5955150000000  0.5208050000000 1.0
C      1  0.4780500000000  0.5660580000000  0.4972860000000 1.0
C      1  0.5264380000000  0.4123520000000  0.5494150000000 1.0
C      1  0.5875710000000  0.4911420000000  0.5592680000000 1.0
C      1  0.6025320000000  0.4896060000000  0.5081220000000 1.0
C      1  0.5042150000000  0.5771500000000  0.5379070000000 1.0
C      1  0.5018420000000  0.4914950000000  0.5638280000000 1.0
C      1  0.4766330000000  0.4703360000000  0.6042940000000 1.0
C      1  0.4380310000000  0.4890100000000  0.4239720000000 1.0
C      1  0.4908010000000  0.5729340000000  0.5673120000000 1.0
C      1  0.4893070000000  0.5400290000000  0.5727800000000 1.0
C      1  0.4522720000000  0.4740240000000  0.5650950000000 1.0
C      1  0.5555690000000  0.5113840000000  0.5275150000000 1.0
C      1  0.5170580000000  0.4818420000000  0.5374480000000 1.0
C      1  0.5153780000000  0.5198140000000  0.5671200000000 1.0
C      1  0.5175110000000  0.5571010000000  0.5816960000000 1.0
C      1  0.5810510000000  0.4449600000000  0.5371880000000 1.0
C      1  0.5291770000000  0.4206850000000  0.5201350000000 1.0
C      1  0.5925640000000  0.5139650000000  0.4609820000000 1.0
C      1  0.3956170000000  0.5253190000000  0.5243290000000 1.0
C      1  0.4672630000000  0.5389820000000  0.5109840000000 1.0
C      1  0.3960990000000  0.4893640000000  0.4651100000000 1.0
C      1  0.6091610000000  0.5181800000000  0.5151360000000 1.0
C      1  0.5082360000000  0.4659740000000  0.4273930000000 1.0
C      1  0.5241990000000  0.5416530000000  0.5131030000000 1.0
C      1  0.5416570000000  0.5456040000000  0.5826850000000 1.0
C      1  0.5339330000000  0.4449680000000  0.4333580000000 1.0
C      1  0.4829120000000  0.5805170000000  0.4684170000000 1.0
C      1  0.5341470000000  0.5610280000000  0.5394600000000 1.0
C      1  0.5141930000000  0.4418380000000  0.5834770000000 1.0
C      1  0.4559910000000  0.4451490000000  0.3945020000000 1.0
C      1  0.5043110000000  0.4701690000000  0.5896520000000 1.0
C      1  0.4370140000000  0.5920140000000  0.4975400000000 1.0
C      1  0.5244250000000  0.4944450000000  0.5966460000000 1.0
C      1  0.4710830000000  0.5013010000000  0.5598010000000 1.0
C      1  0.4644920000000  0.4933190000000  0.5055740000000 1.0
C      1  0.4469850000000  0.5280000000000  0.4880320000000 1.0
C      1  0.4149190000000  0.5368950000000  0.5464280000000 1.0
C      1  0.5224150000000  0.5103380000000  0.4654090000000 1.0
C      1  0.4520430000000  0.4472180000000  0.4222050000000 1.0
C      1  0.4861690000000  0.4957930000000  0.4582270000000 1.0
C      1  0.4698580000000  0.5513260000000  0.3906090000000 1.0
C      1  0.4834440000000  0.4708970000000  0.4780740000000 1.0
C      1  0.4248200000000  0.4950290000000  0.4923030000000 1.0
C      1  0.4635360000000  0.5632160000000  0.5507890000000 1.0
C      1  0.5675580000000  0.5146570000000  0.4150860000000 1.0
C      1  0.4025880000000  0.4796620000000  0.5464530000000 1.0
C      1  0.4623270000000  0.5299260000000  0.5434350000000 1.0
C      1  0.4954710000000  0.4113720000000  0.5531690000000 1.0
C      1  0.3947240000000  0.4835170000000  0.4957340000000 1.0
C      1  0.5286830000000  0.5802020000000  0.4469820000000 1.0
C      1  0.4517390000000  0.5829810000000  0.5260240000000 1.0
C      1  0.5038590000000  0.4423560000000  0.4591190000000 1.0
C      1  0.4523030000000  0.5185890000000  0.4329210000000 1.0
C      1  0.5138850000000  0.5823240000000  0.4734060000000 1.0
C      1  0.5512020000000  0.4779400000000  0.4922090000000 1.0
C      1  0.5685680000000  0.4761050000000  0.5756330000000 1.0
C      1  0.5050040000000  0.4443230000000  0.5410000000000 1.0
C      1  0.4364700000000  0.5036040000000  0.5177920000000 1.0
C      1  0.5850300000000  0.4648970000000  0.4623330000000 1.0
C      1  0.5556410000000  0.4773950000000  0.5261160000000 1.0
C      1  0.5472450000000  0.5391550000000  0.4493470000000 1.0
C      1  0.5943380000000  0.5452440000000  0.5022560000000 1.0
C      1  0.5623670000000  0.5171060000000  0.4962170000000 1.0
C      1  0.5342700000000  0.4273470000000  0.5717990000000 1.0
C      1  0.4784830000000  0.4624950000000  0.5494020000000 1.0
C      1  0.5545340000000  0.5467240000000  0.4877860000000 1.0
C      1  0.5147830000000  0.4805620000000  0.4553600000000 1.0
C      1  0.4254140000000  0.4898560000000  0.5669130000000 1.0
C      1  0.5655070000000  0.5837890000000  0.4621610000000 1.0
C      1  0.4213970000000  0.5395450000000  0.5073040000000 1.0
C      1  0.5140880000000  0.4944530000000  0.3868240000000 1.0
C      1  0.4919450000000  0.5190450000000  0.5189400000000 1.0
C      1  0.4847430000000  0.5887150000000  0.5188290000000 1.0
C      1  0.5237990000000  0.5742510000000  0.5032520000000 1.0
C      1  0.5719650000000  0.5588140000000  0.4521730000000 1.0
C      1  0.5832350000000  0.5303290000000  0.5309320000000 1.0
C      1  0.4651080000000  0.6038530000000  0.4953230000000 1.0
C      1  0.5530030000000  0.5103230000000  0.4643800000000 1.0
C      1  0.5333920000000  0.5279190000000  0.5436490000000 1.0
C      1  0.4614280000000  0.4220200000000  0.4400550000000 1.0
C      1  0.4570610000000  0.5846240000000  0.4501210000000 1.0
C      1  0.4623440000000  0.4242830000000  0.4866020000000 1.0
C      1  0.4016490000000  0.4668570000000  0.4477200000000 1.0
C      1  0.5480910000000  0.4388200000000  0.4901430000000 1.0
C      1  0.4663420000000  0.4395100000000  0.5169660000000 1.0
C      1  0.4555520000000  0.4558140000000  0.5912600000000 1.0
C      1  0.4275110000000  0.5104090000000  0.5431370000000 1.0
C      1  0.5891630000000  0.4758090000000  0.5318700000000 1.0
C      1  0.4046120000000  0.5154730000000  0.4570090000000 1.0
C      1  0.5159340000000  0.5585120000000  0.4339460000000 1.0
C      1  0.5611310000000  0.5784150000000  0.5341180000000 1.0
C      1  0.5785610000000  0.4293550000000  0.5139460000000 1.0
C      1  0.4419390000000  0.4836700000000  0.4731520000000 1.0
C      1  0.5100880000000  0.5259750000000  0.4432180000000 1.0
C      1  0.5244480000000  0.5495410000000  0.4721140000000 1.0
C      1  0.4910430000000  0.4502680000000  0.4961690000000 1.0
C      1  0.5517510000000  0.5798470000000  0.4859510000000 1.0
C      1  0.4987870000000  0.5125230000000  0.5975610000000 1.0
C      1  0.4410620000000  0.5365000000000  0.4565550000000 1.0
C      1  0.4684240000000  0.5275180000000  0.3811460000000 1.0
C      1  0.5625480000000  0.4845200000000  0.4492200000000 1.0
C      1  0.5591320000000  0.5235620000000  0.5782920000000 1.0
C      1  0.4465970000000  0.4660420000000  0.5087380000000 1.0
C      1  0.5879410000000  0.5112160000000  0.4338380000000 1.0
C      1  0.4220290000000  0.5750400000000  0.4810290000000 1.0
C      1  0.5803850000000  0.5187600000000  0.5592650000000 1.0
C      1  0.4446660000000  0.4312260000000  0.5413000000000 1.0
C      1  0.5474950000000  0.4727220000000  0.4281130000000 1.0
C      1  0.4842180000000  0.5558190000000  0.4459880000000 1.0
C      1  0.4813480000000  0.3981720000000  0.5100240000000 1.0
C      1  0.5622960000000  0.4211310000000  0.4478720000000 1.0
C      1  0.5820270000000  0.4361870000000  0.4484660000000 1.0
C      1  0.4221140000000  0.4612300000000  0.4302220000000 1.0
C      1  0.5145720000000  0.5155540000000  0.4953910000000 1.0
C      1  0.4914190000000  0.5424610000000  0.4766180000000 1.0
C      1  0.5217570000000  0.4520010000000  0.5078590000000 1.0
C      1  0.4791430000000  0.3947070000000  0.5349010000000 1.0
C      1  0.5436390000000  0.5276180000000  0.4208020000000 1.0
C      1  0.5820110000000  0.4908080000000  0.4835160000000 1.0
C      1  0.5315920000000  0.4597860000000  0.4703490000000 1.0
C      1  0.5506340000000  0.4967410000000  0.5879260000000 1.0
C      1  0.4763100000000  0.4248290000000  0.4629050000000 1.0
C      1  0.5544090000000  0.4083510000000  0.5040570000000 1.0
C      1  0.5874110000000  0.5409380000000  0.4725400000000 1.0
END
