TITL C-2778427-5640-556 -0.00316763691971946 125000 -766.062107749596 0 0 135 (C1) n - 1
REM
REM in /home/nfs/bkarasulu/CARBON/AIRSS/Generating-Clusters/REBO/Only-C1/SD-CG/HFTN-CG
REM
REM
REM
REM
REM
REM ./C.cell (11c1c37f851c82e70ff6c80c92926a4b)
REM
REM compiler GCC version 9.2.1 20190827 (Red Hat 9.2.1-1)
REM options -cpp -mtune=generic -march=x86-64 -g -O0 -fpre-include=/usr/include/finclude/math-vector-fortran.h
REM seed 1870310983 1258204147 1403442628 1015226633 792281921 -884221889 -1363734720 1669888552 -288379844 222184145 -1664259945 -1474791179 2059919137 -1266273889 1552829812 -1858813753 846724541 -1503177592 -860238361 114938540 1902766734 244551969 -1489619946 -814265586 -1294856655 -692763479 929520348 407165033 1863721724 -1070283588 -1960446597 -937200869 1078388536
REM
CELL 1.54180   50.00000   50.00000   50.00000   90.00000   90.00000   90.00000
LATT -1
SFAC C  
C      1  0.5584940000000  0.5717050000000  0.4951430000000 1.0
C      1  0.4084230000000  0.5077580000000  0.5296500000000 1.0
C      1  0.5458590000000  0.4959810000000  0.5411390000000 1.0
C      1  0.4774350000000  0.4431370000000  0.4286020000000 1.0
C      1  0.4914670000000  0.5692380000000  0.6021130000000 1.0
C      1  0.4640240000000  0.4372000000000  0.5502090000000 1.0
C      1  0.4707480000000  0.4667020000000  0.5403110000000 1.0
C      1  0.4939660000000  0.4884360000000  0.5411470000000 1.0
C      1  0.4612890000000  0.4512740000000  0.5127110000000 1.0
C      1  0.5412940000000  0.5794180000000  0.4439410000000 1.0
C      1  0.4764520000000  0.4061130000000  0.4700640000000 1.0
C      1  0.4874040000000  0.4551430000000  0.4653110000000 1.0
C      1  0.5627180000000  0.4759750000000  0.4299290000000 1.0
C      1  0.4278910000000  0.5541300000000  0.4961670000000 1.0
C      1  0.5432990000000  0.4126140000000  0.5319370000000 1.0
C      1  0.5511350000000  0.4832810000000  0.4828400000000 1.0
C      1  0.4922460000000  0.4713320000000  0.5941550000000 1.0
C      1  0.5627500000000  0.5765640000000  0.5255230000000 1.0
C      1  0.4789560000000  0.5180930000000  0.4971870000000 1.0
C      1  0.5438870000000  0.4486130000000  0.4298750000000 1.0
C      1  0.6014700000000  0.5157200000000  0.5157860000000 1.0
C      1  0.5105740000000  0.4972210000000  0.4482930000000 1.0
C      1  0.5216630000000  0.5470900000000  0.4655500000000 1.0
C      1  0.4554680000000  0.5201350000000  0.5906060000000 1.0
C      1  0.4825560000000  0.4883260000000  0.4613770000000 1.0
C      1  0.4342330000000  0.5279990000000  0.5676900000000 1.0
C      1  0.4335460000000  0.4843890000000  0.4146780000000 1.0
C      1  0.5264880000000  0.4211080000000  0.4409540000000 1.0
C      1  0.5347340000000  0.5828390000000  0.5398570000000 1.0
C      1  0.4313470000000  0.4815160000000  0.5634300000000 1.0
C      1  0.5526270000000  0.5025240000000  0.5109650000000 1.0
C      1  0.4382760000000  0.5507720000000  0.4310840000000 1.0
C      1  0.4711290000000  0.6016850000000  0.4966010000000 1.0
C      1  0.5706930000000  0.4585000000000  0.5071170000000 1.0
C      1  0.4299750000000  0.5426620000000  0.4633160000000 1.0
C      1  0.5627290000000  0.4279230000000  0.5198490000000 1.0
C      1  0.5107860000000  0.5219040000000  0.3868090000000 1.0
C      1  0.5753880000000  0.5540320000000  0.5356200000000 1.0
C      1  0.4048280000000  0.4618230000000  0.4858620000000 1.0
C      1  0.5256440000000  0.4698210000000  0.5862330000000 1.0
C      1  0.5256330000000  0.4033310000000  0.4611690000000 1.0
C      1  0.4279860000000  0.5102870000000  0.4548840000000 1.0
C      1  0.4593370000000  0.5085620000000  0.5234670000000 1.0
C      1  0.4560530000000  0.4698480000000  0.4292490000000 1.0
C      1  0.5836590000000  0.5057460000000  0.4716470000000 1.0
C      1  0.4545790000000  0.5685220000000  0.4812260000000 1.0
C      1  0.4605020000000  0.5419740000000  0.4127280000000 1.0
C      1  0.4809610000000  0.4145900000000  0.5005590000000 1.0
C      1  0.4583770000000  0.4899010000000  0.5587680000000 1.0
C      1  0.4213420000000  0.5036640000000  0.4253010000000 1.0
C      1  0.4842930000000  0.5228430000000  0.3972650000000 1.0
C      1  0.5350940000000  0.5187770000000  0.4900980000000 1.0
C      1  0.4316980000000  0.5151030000000  0.5418890000000 1.0
C      1  0.4876130000000  0.5525350000000  0.5016060000000 1.0
C      1  0.4609070000000  0.5126690000000  0.4541230000000 1.0
C      1  0.5062650000000  0.3987190000000  0.4845950000000 1.0
C      1  0.4894040000000  0.4852750000000  0.4940280000000 1.0
C      1  0.5163410000000  0.5117110000000  0.5784270000000 1.0
C      1  0.4205960000000  0.4381230000000  0.4859300000000 1.0
C      1  0.4606130000000  0.5643000000000  0.5369820000000 1.0
C      1  0.5871900000000  0.4862880000000  0.4997070000000 1.0
C      1  0.4216760000000  0.4711130000000  0.5386000000000 1.0
C      1  0.5070150000000  0.5841970000000  0.4630150000000 1.0
C      1  0.4604930000000  0.4135590000000  0.5256220000000 1.0
C      1  0.4398120000000  0.4849250000000  0.5142470000000 1.0
C      1  0.5607690000000  0.5302550000000  0.5288880000000 1.0
C      1  0.4125350000000  0.4917760000000  0.4725170000000 1.0
C      1  0.5129710000000  0.4792270000000  0.4237840000000 1.0
C      1  0.5117230000000  0.5395890000000  0.5148080000000 1.0
C      1  0.4588890000000  0.4731300000000  0.4896680000000 1.0
C      1  0.5048590000000  0.5186170000000  0.4744810000000 1.0
C      1  0.5149270000000  0.5627590000000  0.4371690000000 1.0
C      1  0.4914640000000  0.5560770000000  0.4723070000000 1.0
C      1  0.4915120000000  0.5485830000000  0.4265410000000 1.0
C      1  0.5258290000000  0.4531560000000  0.5582060000000 1.0
C      1  0.5381590000000  0.5902770000000  0.4755000000000 1.0
C      1  0.4829460000000  0.5153430000000  0.4291530000000 1.0
C      1  0.4911530000000  0.4005600000000  0.5360100000000 1.0
C      1  0.5453080000000  0.5386460000000  0.5724830000000 1.0
C      1  0.5050410000000  0.4439400000000  0.5431660000000 1.0
C      1  0.4800630000000  0.5437110000000  0.5500490000000 1.0
C      1  0.5351610000000  0.6104010000000  0.5000530000000 1.0
C      1  0.4969690000000  0.4913770000000  0.5691550000000 1.0
C      1  0.5618770000000  0.5066670000000  0.4142800000000 1.0
C      1  0.5924410000000  0.5286440000000  0.4907820000000 1.0
C      1  0.4384320000000  0.5591210000000  0.5607070000000 1.0
C      1  0.5611820000000  0.4256750000000  0.4867040000000 1.0
C      1  0.5294870000000  0.4282970000000  0.4978510000000 1.0
C      1  0.5769510000000  0.4728390000000  0.5495480000000 1.0
C      1  0.5031430000000  0.5133890000000  0.5282560000000 1.0
C      1  0.4752000000000  0.5920840000000  0.4670670000000 1.0
C      1  0.4087700000000  0.4884630000000  0.5049920000000 1.0
C      1  0.5403210000000  0.4557190000000  0.4708250000000 1.0
C      1  0.5097340000000  0.4466960000000  0.4288690000000 1.0
C      1  0.5233600000000  0.5609770000000  0.5634870000000 1.0
C      1  0.5155280000000  0.4038850000000  0.5170220000000 1.0
C      1  0.5394600000000  0.5049200000000  0.4605970000000 1.0
C      1  0.4673630000000  0.4304640000000  0.4557260000000 1.0
C      1  0.5347610000000  0.5492130000000  0.5336140000000 1.0
C      1  0.4911990000000  0.4384100000000  0.5209960000000 1.0
C      1  0.4944830000000  0.5574170000000  0.5749710000000 1.0
C      1  0.5118460000000  0.4467980000000  0.4764770000000 1.0
C      1  0.4536480000000  0.5347600000000  0.4864560000000 1.0
C      1  0.5887230000000  0.4923980000000  0.5332280000000 1.0
C      1  0.4937210000000  0.6022600000000  0.5197310000000 1.0
C      1  0.4756270000000  0.5752110000000  0.5155310000000 1.0
C      1  0.5797810000000  0.4524360000000  0.4760570000000 1.0
C      1  0.4347980000000  0.4317720000000  0.5130940000000 1.0
C      1  0.5367220000000  0.4578080000000  0.5104930000000 1.0
C      1  0.5835800000000  0.5540800000000  0.4865170000000 1.0
C      1  0.5557650000000  0.5165080000000  0.5739900000000 1.0
C      1  0.5362230000000  0.5506340000000  0.4937080000000 1.0
C      1  0.4526050000000  0.5739180000000  0.4491760000000 1.0
C      1  0.4843310000000  0.4723810000000  0.4125990000000 1.0
C      1  0.4823380000000  0.4474850000000  0.6041610000000 1.0
C      1  0.4292050000000  0.5593240000000  0.5275650000000 1.0
C      1  0.5742430000000  0.4776380000000  0.4575550000000 1.0
C      1  0.5209960000000  0.6034230000000  0.5226630000000 1.0
C      1  0.5614160000000  0.4346880000000  0.4543690000000 1.0
C      1  0.5646930000000  0.5141320000000  0.4446910000000 1.0
C      1  0.4817930000000  0.4156770000000  0.5592070000000 1.0
C      1  0.4164800000000  0.4445490000000  0.5346220000000 1.0
C      1  0.4711180000000  0.5451340000000  0.4523170000000 1.0
C      1  0.5374360000000  0.4844450000000  0.4092890000000 1.0
C      1  0.4708620000000  0.4976210000000  0.5982670000000 1.0
C      1  0.5486650000000  0.4594300000000  0.5404400000000 1.0
C      1  0.5534580000000  0.4834920000000  0.5718790000000 1.0
C      1  0.5238970000000  0.5136390000000  0.5497930000000 1.0
C      1  0.5140540000000  0.4754350000000  0.5042950000000 1.0
C      1  0.5320300000000  0.4998400000000  0.6013890000000 1.0
C      1  0.4377760000000  0.4378950000000  0.4639950000000 1.0
C      1  0.5355290000000  0.5132040000000  0.3935500000000 1.0
C      1  0.4496480000000  0.4659180000000  0.4602200000000 1.0
C      1  0.4698720000000  0.5176930000000  0.5534620000000 1.0
C      1  0.4618170000000  0.5508090000000  0.5842210000000 1.0
END
