TITL C-2778428-5639-653 -9.56412643630705e-08 125000 -167.88645184884 0 0 29 (C1) n - 1
REM
REM in /home/nfs/bkarasulu/CARBON/AIRSS/Generating-Clusters/REBO/Only-C1/SD-CG/HFTN-CG
REM
REM
REM
REM
REM
REM ./C.cell (11c1c37f851c82e70ff6c80c92926a4b)
REM
REM compiler GCC version 9.2.1 20190827 (Red Hat 9.2.1-1)
REM options -cpp -mtune=generic -march=x86-64 -g -O0 -fpre-include=/usr/include/finclude/math-vector-fortran.h
REM seed 1562308468 1525847649 -1310071744 1314556198 -440478037 1687524181 -157952191 -789690130 -625837229 -894667851 -100772956 1840898394 -1537319334 920262074 1595741678 620126911 71833424 -1161560237 -1461550777 -609143410 816606886 -1843020806 695687790 -347109793 -514602889 914418592 -1571100043 -1694264853 -2128840512 -95203625 -524896837 -1906981501 928981587
REM
CELL 1.54180   50.00000   50.00000   50.00000   90.00000   90.00000   90.00000
LATT -1
SFAC C  
C      1  0.5159970000000  0.5321240000000  0.5338260000000 1.0
C      1  0.4991890000000  0.4968700000000  0.5653190000000 1.0
C      1  0.4947610000000  0.5149180000000  0.5445700000000 1.0
C      1  0.4907460000000  0.5649610000000  0.3959060000000 1.0
C      1  0.5030810000000  0.5370350000000  0.4390320000000 1.0
C      1  0.5029210000000  0.4939680000000  0.4634940000000 1.0
C      1  0.5071710000000  0.4148390000000  0.5076010000000 1.0
C      1  0.5403280000000  0.4731370000000  0.4939010000000 1.0
C      1  0.5231430000000  0.4760660000000  0.4716450000000 1.0
C      1  0.4700720000000  0.5151800000000  0.5287600000000 1.0
C      1  0.4783270000000  0.5619910000000  0.5133900000000 1.0
C      1  0.5327540000000  0.4238660000000  0.5083760000000 1.0
C      1  0.5433790000000  0.4970370000000  0.5085300000000 1.0
C      1  0.4607120000000  0.5409170000000  0.5203410000000 1.0
C      1  0.5055380000000  0.5603440000000  0.4946830000000 1.0
C      1  0.5075900000000  0.4626340000000  0.6046790000000 1.0
C      1  0.4750680000000  0.4862160000000  0.4659340000000 1.0
C      1  0.4636100000000  0.4925730000000  0.5132810000000 1.0
C      1  0.5074470000000  0.5600760000000  0.5274320000000 1.0
C      1  0.4968640000000  0.5511100000000  0.4172960000000 1.0
C      1  0.5456540000000  0.4471700000000  0.5032570000000 1.0
C      1  0.5096000000000  0.5222760000000  0.4618240000000 1.0
C      1  0.4667660000000  0.4748490000000  0.4915990000000 1.0
C      1  0.4688350000000  0.4471800000000  0.4959770000000 1.0
C      1  0.5291040000000  0.5212360000000  0.5096050000000 1.0
C      1  0.4826380000000  0.4249140000000  0.5022210000000 1.0
C      1  0.4568830000000  0.4917140000000  0.4464350000000 1.0
C      1  0.5034230000000  0.4796150000000  0.5851570000000 1.0
C      1  0.5183970000000  0.5351850000000  0.4859280000000 1.0
END
