TITL C-2778428-5639-1372 0.00111180287112218 125000 -160.678363089224 0 0 28 (C1) n - 1
REM
REM in /home/nfs/bkarasulu/CARBON/AIRSS/Generating-Clusters/REBO/Only-C1/SD-CG/HFTN-CG
REM
REM
REM
REM
REM
REM ./C.cell (11c1c37f851c82e70ff6c80c92926a4b)
REM
REM compiler GCC version 9.2.1 20190827 (Red Hat 9.2.1-1)
REM options -cpp -mtune=generic -march=x86-64 -g -O0 -fpre-include=/usr/include/finclude/math-vector-fortran.h
REM seed 146801405 951837421 -1521490012 1096461090 -352206217 1074545225 34661652 1360959843 -271693300 -1949787665 -82135643 1203234158 566287441 -235411119 -1421750425 -216164801 -1412044930 396137423 167361658 1829021637 1221896796 -785278059 989006846 307671263 1531161574 1851334945 -1410620669 345186221 -717895983 539507413 -507154100 -630782727 -1414811318
REM
CELL 1.54180   50.00000   50.00000   50.00000   90.00000   90.00000   90.00000
LATT -1
SFAC C  
C      1  0.6045260000000  0.4977150000000  0.5555740000000 1.0
C      1  0.5265100000000  0.4651970000000  0.5237810000000 1.0
C      1  0.4539160000000  0.5243390000000  0.4729900000000 1.0
C      1  0.4511480000000  0.5006380000000  0.5142160000000 1.0
C      1  0.4564810000000  0.5255700000000  0.5015830000000 1.0
C      1  0.4559970000000  0.4980580000000  0.4601010000000 1.0
C      1  0.4733340000000  0.5431660000000  0.5160540000000 1.0
C      1  0.5819820000000  0.4550000000000  0.5193340000000 1.0
C      1  0.5444420000000  0.5539580000000  0.5399200000000 1.0
C      1  0.4644420000000  0.4778380000000  0.5040440000000 1.0
C      1  0.5071490000000  0.4484210000000  0.5043240000000 1.0
C      1  0.4503640000000  0.5468840000000  0.4560660000000 1.0
C      1  0.4540460000000  0.4714650000000  0.4191470000000 1.0
C      1  0.5532790000000  0.4663590000000  0.5262180000000 1.0
C      1  0.5808440000000  0.5158200000000  0.5451310000000 1.0
C      1  0.4873160000000  0.4679250000000  0.5177540000000 1.0
C      1  0.5660370000000  0.5383330000000  0.5430530000000 1.0
C      1  0.4480240000000  0.5197990000000  0.4173070000000 1.0
C      1  0.5048710000000  0.4855670000000  0.5357400000000 1.0
C      1  0.4787820000000  0.4526010000000  0.4653180000000 1.0
C      1  0.5797530000000  0.4833270000000  0.5375830000000 1.0
C      1  0.4992840000000  0.4396130000000  0.4787260000000 1.0
C      1  0.4958360000000  0.5387940000000  0.5327860000000 1.0
C      1  0.5177910000000  0.5561010000000  0.5360100000000 1.0
C      1  0.4471830000000  0.5448060000000  0.4287840000000 1.0
C      1  0.4525710000000  0.4956040000000  0.4316150000000 1.0
C      1  0.4999750000000  0.5121500000000  0.5415300000000 1.0
C      1  0.4641190000000  0.4749530000000  0.4753100000000 1.0
END
