TITL C-2778424-3986-782 0.118780038619817 125000 -175.896320675766 0 0 32 (C1) n - 1
REM
REM in /home/nfs/bkarasulu/CARBON/AIRSS/Generating-Clusters/REBO/Only-C1/SD-CG/HFTN-CG
REM
REM
REM
REM
REM
REM ./C.cell (11c1c37f851c82e70ff6c80c92926a4b)
REM
REM compiler GCC version 9.2.1 20190827 (Red Hat 9.2.1-1)
REM options -cpp -mtune=generic -march=x86-64 -g -O0 -fpre-include=/usr/include/finclude/math-vector-fortran.h
REM seed 1105074209 -1667502067 2110630072 221437492 1552315696 -574933373 -1756816396 732424770 234007150 316661234 462260162 -2045241162 -1224518100 1807493512 610604289 -317281722 881258062 -754890736 49125752 -1572818043 -2074490345 -225447192 1956339300 -184622480 1903421026 184504652 1065492504 -749365415 -1065796825 1391999519 280396164 -998481236 923959596
REM
CELL 1.54180   50.00000   50.00000   50.00000   90.00000   90.00000   90.00000
LATT -1
SFAC C  
C      1  0.5563370000000  0.4857970000000  0.5307470000000 1.0
C      1  0.4605310000000  0.5329880000000  0.5147180000000 1.0
C      1  0.5401950000000  0.5431480000000  0.5712620000000 1.0
C      1  0.4467300000000  0.4341490000000  0.4498040000000 1.0
C      1  0.5091870000000  0.5001580000000  0.5150380000000 1.0
C      1  0.4976390000000  0.5494080000000  0.5531800000000 1.0
C      1  0.4573460000000  0.4823500000000  0.4456850000000 1.0
C      1  0.5391400000000  0.4582490000000  0.4973890000000 1.0
C      1  0.4292990000000  0.4148270000000  0.4466980000000 1.0
C      1  0.4872090000000  0.4827150000000  0.3903030000000 1.0
C      1  0.5145400000000  0.4782710000000  0.4998600000000 1.0
C      1  0.4660760000000  0.4919100000000  0.4153450000000 1.0
C      1  0.5210550000000  0.5327270000000  0.5515700000000 1.0
C      1  0.5305420000000  0.5078360000000  0.5348410000000 1.0
C      1  0.5605130000000  0.4640110000000  0.5145320000000 1.0
C      1  0.4854670000000  0.5127510000000  0.5112350000000 1.0
C      1  0.5832550000000  0.4491590000000  0.5148850000000 1.0
C      1  0.4893920000000  0.5113460000000  0.3999530000000 1.0
C      1  0.5855040000000  0.5317130000000  0.5864340000000 1.0
C      1  0.4341390000000  0.4919140000000  0.4225570000000 1.0
C      1  0.5637980000000  0.5275880000000  0.5708310000000 1.0
C      1  0.5395030000000  0.5813300000000  0.6041590000000 1.0
C      1  0.5283700000000  0.5661710000000  0.5847840000000 1.0
C      1  0.5126330000000  0.4543860000000  0.4789420000000 1.0
C      1  0.4471230000000  0.5023030000000  0.4685730000000 1.0
C      1  0.4144600000000  0.5066230000000  0.4345500000000 1.0
C      1  0.5017590000000  0.5693820000000  0.5728690000000 1.0
C      1  0.4907600000000  0.4501470000000  0.4630610000000 1.0
C      1  0.4651830000000  0.4546030000000  0.4530920000000 1.0
C      1  0.5605680000000  0.5076990000000  0.5518660000000 1.0
C      1  0.4212860000000  0.5129910000000  0.4608860000000 1.0
C      1  0.4604620000000  0.5113500000000  0.4903510000000 1.0
END
