TITL C-2778428-5639-731 -0.00183670096642513 125000 -478.654207376487 0 0 81 (C1) n - 1
REM
REM in /home/nfs/bkarasulu/CARBON/AIRSS/Generating-Clusters/REBO/Only-C1/SD-CG/HFTN-CG
REM
REM
REM
REM
REM
REM ./C.cell (11c1c37f851c82e70ff6c80c92926a4b)
REM
REM compiler GCC version 9.2.1 20190827 (Red Hat 9.2.1-1)
REM options -cpp -mtune=generic -march=x86-64 -g -O0 -fpre-include=/usr/include/finclude/math-vector-fortran.h
REM seed -537502420 860631140 1278566102 894217995 -1395077752 1279097904 1014291726 -1753932547 -935619186 -1757115142 -89589653 -605443606 -1116598330 -94509764 -1378391509 1508121573 -570992373 -144122825 485348338 1309952275 480863678 -1638258488 705102129 1091910750 -321870045 -194185192 -1400230041 1962589076 -1250541456 -770983831 -1299303580 1383179291 1516333684
REM
CELL 1.54180   50.00000   50.00000   50.00000   90.00000   90.00000   90.00000
LATT -1
SFAC C  
C      1  0.5111260000000  0.4415190000000  0.5499400000000 1.0
C      1  0.5444810000000  0.4718580000000  0.5299070000000 1.0
C      1  0.4538280000000  0.5298660000000  0.5617760000000 1.0
C      1  0.5464580000000  0.5401310000000  0.5127710000000 1.0
C      1  0.4509770000000  0.4455430000000  0.4973100000000 1.0
C      1  0.5248360000000  0.4778790000000  0.4785090000000 1.0
C      1  0.5282810000000  0.5203760000000  0.4182930000000 1.0
C      1  0.4611880000000  0.5576310000000  0.5153530000000 1.0
C      1  0.4941380000000  0.4652960000000  0.5045210000000 1.0
C      1  0.5655260000000  0.4862410000000  0.4623730000000 1.0
C      1  0.5628010000000  0.5025670000000  0.5694620000000 1.0
C      1  0.5019180000000  0.5511810000000  0.5107170000000 1.0
C      1  0.4642230000000  0.4732090000000  0.4316500000000 1.0
C      1  0.4861890000000  0.4677970000000  0.4787030000000 1.0
C      1  0.4777720000000  0.4947320000000  0.4206880000000 1.0
C      1  0.4544840000000  0.4699320000000  0.5662430000000 1.0
C      1  0.4682110000000  0.5547610000000  0.5485020000000 1.0
C      1  0.5359290000000  0.5676100000000  0.5236700000000 1.0
C      1  0.4586730000000  0.4881860000000  0.5866690000000 1.0
C      1  0.4135410000000  0.4800600000000  0.4899480000000 1.0
C      1  0.4798780000000  0.4537280000000  0.5557160000000 1.0
C      1  0.4249050000000  0.5240920000000  0.5171980000000 1.0
C      1  0.4719900000000  0.4512530000000  0.4551430000000 1.0
C      1  0.5030010000000  0.4760480000000  0.5649670000000 1.0
C      1  0.5321990000000  0.4861740000000  0.5031870000000 1.0
C      1  0.5135740000000  0.5048100000000  0.5395950000000 1.0
C      1  0.5133170000000  0.4287640000000  0.5241720000000 1.0
C      1  0.4375840000000  0.5162460000000  0.5418960000000 1.0
C      1  0.4375690000000  0.5467090000000  0.4956820000000 1.0
C      1  0.4111610000000  0.5032000000000  0.5037520000000 1.0
C      1  0.5564880000000  0.4851740000000  0.4348020000000 1.0
C      1  0.5353020000000  0.5246780000000  0.4573710000000 1.0
C      1  0.4391690000000  0.5270110000000  0.4421630000000 1.0
C      1  0.4665410000000  0.4477900000000  0.5277760000000 1.0
C      1  0.5341520000000  0.4304850000000  0.5017040000000 1.0
C      1  0.4740640000000  0.5281540000000  0.5275580000000 1.0
C      1  0.4450730000000  0.4850820000000  0.5407080000000 1.0
C      1  0.5222910000000  0.5439940000000  0.4357480000000 1.0
C      1  0.4998860000000  0.5689780000000  0.4718330000000 1.0
C      1  0.4433180000000  0.5177490000000  0.4824620000000 1.0
C      1  0.4837630000000  0.4272810000000  0.5109760000000 1.0
C      1  0.4984270000000  0.5064470000000  0.5673150000000 1.0
C      1  0.5176060000000  0.5001560000000  0.4561140000000 1.0
C      1  0.5327660000000  0.4651950000000  0.5571260000000 1.0
C      1  0.4813890000000  0.5291730000000  0.4961480000000 1.0
C      1  0.4734750000000  0.5593110000000  0.4839810000000 1.0
C      1  0.5566320000000  0.5294380000000  0.5753940000000 1.0
C      1  0.4739430000000  0.5005110000000  0.5363560000000 1.0
C      1  0.4482780000000  0.5520990000000  0.4634590000000 1.0
C      1  0.4671910000000  0.5171400000000  0.4601120000000 1.0
C      1  0.5080810000000  0.4948630000000  0.4239110000000 1.0
C      1  0.5747980000000  0.5137850000000  0.5026860000000 1.0
C      1  0.5213950000000  0.4511440000000  0.4698450000000 1.0
C      1  0.5313060000000  0.4718050000000  0.4284280000000 1.0
C      1  0.5643630000000  0.5160470000000  0.4727560000000 1.0
C      1  0.4412010000000  0.4625600000000  0.4521750000000 1.0
C      1  0.4713600000000  0.5125980000000  0.5775850000000 1.0
C      1  0.5241100000000  0.5653050000000  0.4916460000000 1.0
C      1  0.4735690000000  0.4299190000000  0.4786950000000 1.0
C      1  0.4964720000000  0.4837490000000  0.5254020000000 1.0
C      1  0.5671150000000  0.4681920000000  0.4846400000000 1.0
C      1  0.4893810000000  0.4975360000000  0.4693010000000 1.0
C      1  0.4738020000000  0.5449910000000  0.4412980000000 1.0
C      1  0.5248680000000  0.4482400000000  0.4421220000000 1.0
C      1  0.5520850000000  0.5488980000000  0.5513760000000 1.0
C      1  0.5058190000000  0.4287760000000  0.4851110000000 1.0
C      1  0.5457370000000  0.5423800000000  0.4819520000000 1.0
C      1  0.4666870000000  0.4983870000000  0.4952440000000 1.0
C      1  0.5731560000000  0.5332630000000  0.5296640000000 1.0
C      1  0.4984920000000  0.5579590000000  0.5382000000000 1.0
C      1  0.5515190000000  0.4790010000000  0.5779800000000 1.0
C      1  0.4641650000000  0.5196920000000  0.4205740000000 1.0
C      1  0.5710120000000  0.4828490000000  0.5117040000000 1.0
C      1  0.5404420000000  0.5110320000000  0.5241390000000 1.0
C      1  0.5554810000000  0.5102910000000  0.4200900000000 1.0
C      1  0.5002760000000  0.5581510000000  0.4451290000000 1.0
C      1  0.5231980000000  0.5645000000000  0.5525670000000 1.0
C      1  0.4300450000000  0.4607360000000  0.4782770000000 1.0
C      1  0.5687030000000  0.5018470000000  0.5399810000000 1.0
C      1  0.5557810000000  0.4426590000000  0.4890020000000 1.0
C      1  0.4560720000000  0.4755990000000  0.5111020000000 1.0
END
