TITL C-2778422-5617-361 -0.000661690271008014 125000 -933.98353878004 0 0 156 (C1) n - 1
REM
REM in /home/nfs/bkarasulu/CARBON/AIRSS/Generating-Clusters/REBO/Only-C1/SD-CG/HFTN-CG
REM
REM
REM
REM
REM
REM ./C.cell (11c1c37f851c82e70ff6c80c92926a4b)
REM
REM compiler GCC version 9.2.1 20190827 (Red Hat 9.2.1-1)
REM options -cpp -mtune=generic -march=x86-64 -g -O0 -fpre-include=/usr/include/finclude/math-vector-fortran.h
REM seed 1543883861 1697826136 -1829451109 -1514693050 -1226801620 1764660374 -385151658 -1475754536 907689494 1759842622 1239251668 503581164 -347080027 1993398034 1560808548 828081590 484909433 -522776418 -2129005069 399519666 1710412445 -1263580035 2374880 -1176478660 -1703705744 1755136133 1151531947 -1642885399 -1278236635 2083705341 -2068214059 -564323671 -1137965773
REM
CELL 1.54180   50.00000   50.00000   50.00000   90.00000   90.00000   90.00000
LATT -1
SFAC C  
C      1  0.5247000000000  0.5024820000000  0.4586720000000 1.0
C      1  0.5515290000000  0.5790830000000  0.5336930000000 1.0
C      1  0.4485850000000  0.4511570000000  0.5604090000000 1.0
C      1  0.5867730000000  0.4987630000000  0.5598260000000 1.0
C      1  0.4054340000000  0.4867520000000  0.4670460000000 1.0
C      1  0.4764900000000  0.5882100000000  0.5401620000000 1.0
C      1  0.4486080000000  0.5036550000000  0.4504140000000 1.0
C      1  0.5147600000000  0.5605670000000  0.4331430000000 1.0
C      1  0.5657720000000  0.4612860000000  0.5866410000000 1.0
C      1  0.5622340000000  0.5612650000000  0.4439210000000 1.0
C      1  0.5305740000000  0.4473650000000  0.4456710000000 1.0
C      1  0.5395610000000  0.5223970000000  0.4168000000000 1.0
C      1  0.4517840000000  0.5974180000000  0.5291660000000 1.0
C      1  0.3946570000000  0.4937310000000  0.5175220000000 1.0
C      1  0.5065200000000  0.4271900000000  0.5009850000000 1.0
C      1  0.4795620000000  0.4176340000000  0.5342380000000 1.0
C      1  0.5170070000000  0.5193230000000  0.3989510000000 1.0
C      1  0.4766020000000  0.5597650000000  0.5432380000000 1.0
C      1  0.4498850000000  0.4263550000000  0.5468820000000 1.0
C      1  0.5405620000000  0.5325560000000  0.5901450000000 1.0
C      1  0.4754150000000  0.4613250000000  0.4097150000000 1.0
C      1  0.5077300000000  0.3985850000000  0.5337960000000 1.0
C      1  0.5366650000000  0.5015520000000  0.5756280000000 1.0
C      1  0.5655290000000  0.5148830000000  0.5662140000000 1.0
C      1  0.6055620000000  0.5090460000000  0.4981900000000 1.0
C      1  0.5220710000000  0.4748100000000  0.4605080000000 1.0
C      1  0.5555670000000  0.4265900000000  0.4094810000000 1.0
C      1  0.4785030000000  0.4920650000000  0.4538630000000 1.0
C      1  0.4925460000000  0.5965040000000  0.4870930000000 1.0
C      1  0.4600280000000  0.5846840000000  0.4345230000000 1.0
C      1  0.4730210000000  0.6082710000000  0.4367500000000 1.0
C      1  0.4914260000000  0.5452710000000  0.5240400000000 1.0
C      1  0.4923090000000  0.4676010000000  0.4656920000000 1.0
C      1  0.4591520000000  0.5114300000000  0.5375990000000 1.0
C      1  0.5183910000000  0.4456090000000  0.6002660000000 1.0
C      1  0.4431870000000  0.5716880000000  0.5756520000000 1.0
C      1  0.4564650000000  0.5014040000000  0.5919210000000 1.0
C      1  0.5588290000000  0.5059920000000  0.4917610000000 1.0
C      1  0.5137750000000  0.4636250000000  0.5536620000000 1.0
C      1  0.4660050000000  0.5717660000000  0.5857370000000 1.0
C      1  0.4223390000000  0.5691240000000  0.4638860000000 1.0
C      1  0.4126840000000  0.5049560000000  0.5513610000000 1.0
C      1  0.5832670000000  0.4749220000000  0.5376890000000 1.0
C      1  0.5502860000000  0.4710120000000  0.4325340000000 1.0
C      1  0.4416950000000  0.5888110000000  0.4804290000000 1.0
C      1  0.5838090000000  0.4608250000000  0.5004750000000 1.0
C      1  0.3917150000000  0.5451780000000  0.5016280000000 1.0
C      1  0.3670170000000  0.5476360000000  0.4906780000000 1.0
C      1  0.5964360000000  0.5362730000000  0.5084150000000 1.0
C      1  0.5392090000000  0.4083310000000  0.5431150000000 1.0
C      1  0.5874800000000  0.4410410000000  0.5377660000000 1.0
C      1  0.5558150000000  0.4177490000000  0.4897160000000 1.0
C      1  0.4361190000000  0.4947810000000  0.5293910000000 1.0
C      1  0.5097780000000  0.4760160000000  0.5264740000000 1.0
C      1  0.4782740000000  0.4810190000000  0.5943060000000 1.0
C      1  0.4986660000000  0.3972850000000  0.4460680000000 1.0
C      1  0.6110040000000  0.4529080000000  0.5193370000000 1.0
C      1  0.5405580000000  0.5884250000000  0.4797640000000 1.0
C      1  0.4653480000000  0.4888990000000  0.4244770000000 1.0
C      1  0.4304750000000  0.4697400000000  0.5503720000000 1.0
C      1  0.5412420000000  0.4499960000000  0.5225510000000 1.0
C      1  0.5321470000000  0.4940730000000  0.5198620000000 1.0
C      1  0.4251600000000  0.4158160000000  0.4347400000000 1.0
C      1  0.5623760000000  0.4248340000000  0.5452310000000 1.0
C      1  0.4448640000000  0.3860170000000  0.4990010000000 1.0
C      1  0.4008800000000  0.5228200000000  0.5176460000000 1.0
C      1  0.5808180000000  0.5145230000000  0.4475990000000 1.0
C      1  0.5183490000000  0.5302350000000  0.5494890000000 1.0
C      1  0.5120160000000  0.5557940000000  0.5084880000000 1.0
C      1  0.5720670000000  0.5611890000000  0.5484050000000 1.0
C      1  0.5620320000000  0.5452690000000  0.5695100000000 1.0
C      1  0.5099790000000  0.5240100000000  0.5949530000000 1.0
C      1  0.5541720000000  0.5031160000000  0.4317170000000 1.0
C      1  0.4265360000000  0.5517370000000  0.5556920000000 1.0
C      1  0.5090100000000  0.4388180000000  0.4709050000000 1.0
C      1  0.4410880000000  0.4862840000000  0.4996620000000 1.0
C      1  0.4748420000000  0.5061070000000  0.5634890000000 1.0
C      1  0.5421620000000  0.5495920000000  0.4252790000000 1.0
C      1  0.4821240000000  0.4228310000000  0.3819010000000 1.0
C      1  0.4487120000000  0.4137190000000  0.4465760000000 1.0
C      1  0.5291320000000  0.6141370000000  0.4884520000000 1.0
C      1  0.4973000000000  0.3998510000000  0.5031900000000 1.0
C      1  0.4765150000000  0.4570110000000  0.5755790000000 1.0
C      1  0.5706010000000  0.4501460000000  0.4146060000000 1.0
C      1  0.6086600000000  0.4829990000000  0.5079480000000 1.0
C      1  0.5097240000000  0.5834360000000  0.5047260000000 1.0
C      1  0.4009620000000  0.4443090000000  0.5215330000000 1.0
C      1  0.4508770000000  0.5595330000000  0.4375500000000 1.0
C      1  0.4583140000000  0.4631140000000  0.4997760000000 1.0
C      1  0.5304580000000  0.6026290000000  0.5204930000000 1.0
C      1  0.4509730000000  0.4111840000000  0.4762140000000 1.0
C      1  0.5214260000000  0.4817810000000  0.3862520000000 1.0
C      1  0.4753090000000  0.3922560000000  0.4894700000000 1.0
C      1  0.4846090000000  0.4495840000000  0.5431720000000 1.0
C      1  0.5782080000000  0.4799130000000  0.4054810000000 1.0
C      1  0.5375200000000  0.4713030000000  0.5733160000000 1.0
C      1  0.4956410000000  0.5397330000000  0.4288710000000 1.0
C      1  0.5134480000000  0.5546680000000  0.5626310000000 1.0
C      1  0.4068480000000  0.5272730000000  0.5611000000000 1.0
C      1  0.4437660000000  0.5488060000000  0.4808070000000 1.0
C      1  0.4747640000000  0.5246440000000  0.5139050000000 1.0
C      1  0.4900750000000  0.6256760000000  0.4493250000000 1.0
C      1  0.5121110000000  0.4238480000000  0.5562140000000 1.0
C      1  0.4510250000000  0.4139580000000  0.5160220000000 1.0
C      1  0.4266940000000  0.5334940000000  0.5269700000000 1.0
C      1  0.4823480000000  0.4658150000000  0.5145390000000 1.0
C      1  0.4049420000000  0.4701530000000  0.5335110000000 1.0
C      1  0.4316360000000  0.4947650000000  0.4735680000000 1.0
C      1  0.3844750000000  0.4845560000000  0.4913820000000 1.0
C      1  0.5770130000000  0.5439400000000  0.4599630000000 1.0
C      1  0.5222380000000  0.5081550000000  0.3707800000000 1.0
C      1  0.5923620000000  0.4987650000000  0.4212720000000 1.0
C      1  0.4142370000000  0.5644400000000  0.4959670000000 1.0
C      1  0.5233640000000  0.5780730000000  0.5508710000000 1.0
C      1  0.4662630000000  0.5319080000000  0.5838420000000 1.0
C      1  0.5302520000000  0.4263560000000  0.4226340000000 1.0
C      1  0.5033210000000  0.4916950000000  0.6028940000000 1.0
C      1  0.5217670000000  0.4713470000000  0.6100480000000 1.0
C      1  0.5939300000000  0.5499810000000  0.5333880000000 1.0
C      1  0.5032930000000  0.5985350000000  0.5410720000000 1.0
C      1  0.5177170000000  0.5397390000000  0.4857120000000 1.0
C      1  0.4330170000000  0.5892770000000  0.5098770000000 1.0
C      1  0.5456170000000  0.4766790000000  0.3991830000000 1.0
C      1  0.5382160000000  0.3997700000000  0.4790610000000 1.0
C      1  0.4960790000000  0.4809160000000  0.4004450000000 1.0
C      1  0.4739720000000  0.4137940000000  0.4309630000000 1.0
C      1  0.5482280000000  0.5391430000000  0.5114660000000 1.0
C      1  0.4760740000000  0.4340190000000  0.4066160000000 1.0
C      1  0.4921380000000  0.5516420000000  0.5880020000000 1.0
C      1  0.5873950000000  0.4691660000000  0.5713920000000 1.0
C      1  0.5172990000000  0.4362700000000  0.5247050000000 1.0
C      1  0.5364920000000  0.5764780000000  0.4540910000000 1.0
C      1  0.5735430000000  0.5465680000000  0.4899130000000 1.0
C      1  0.4876750000000  0.5113710000000  0.4118680000000 1.0
C      1  0.5034510000000  0.6208480000000  0.4737680000000 1.0
C      1  0.5595090000000  0.4424300000000  0.5022360000000 1.0
C      1  0.4424720000000  0.4367980000000  0.4947530000000 1.0
C      1  0.4981430000000  0.5144640000000  0.4503290000000 1.0
C      1  0.4697680000000  0.5832620000000  0.4763380000000 1.0
C      1  0.5833260000000  0.5092500000000  0.4782980000000 1.0
C      1  0.5135900000000  0.4069620000000  0.4673720000000 1.0
C      1  0.4461820000000  0.5339890000000  0.4437320000000 1.0
C      1  0.4949670000000  0.5389700000000  0.4687400000000 1.0
C      1  0.4116430000000  0.4409690000000  0.4953110000000 1.0
C      1  0.5530030000000  0.5712240000000  0.5011820000000 1.0
C      1  0.4563600000000  0.5403230000000  0.5547520000000 1.0
C      1  0.4467670000000  0.5335840000000  0.5067480000000 1.0
C      1  0.5323260000000  0.5222780000000  0.5262780000000 1.0
C      1  0.5525370000000  0.4556510000000  0.5496160000000 1.0
C      1  0.4725670000000  0.5547450000000  0.4707990000000 1.0
C      1  0.5358030000000  0.5177610000000  0.4800380000000 1.0
C      1  0.5014830000000  0.4369750000000  0.5803090000000 1.0
C      1  0.3970080000000  0.4574140000000  0.4771920000000 1.0
C      1  0.5066790000000  0.4120450000000  0.4199150000000 1.0
C      1  0.5616160000000  0.4831950000000  0.5134910000000 1.0
C      1  0.5046110000000  0.5068940000000  0.5659770000000 1.0
END
