TITL C-2778435-5768-1145 -0.00307664758693675 125000 -468.41372447944 0 0 80 (C1) n - 1
REM
REM in /home/nfs/bkarasulu/CARBON/AIRSS/Generating-Clusters/REBO/Only-C1/SD-CG/HFTN-CG
REM
REM
REM
REM
REM
REM ./C.cell (11c1c37f851c82e70ff6c80c92926a4b)
REM
REM compiler GCC version 9.2.1 20190827 (Red Hat 9.2.1-1)
REM options -cpp -mtune=generic -march=x86-64 -g -O0 -fpre-include=/usr/include/finclude/math-vector-fortran.h
REM seed 717773082 1304761255 2132216234 -11078076 2068444104 1919047174 -1801402187 -583233830 971597390 -605192248 92447460 -78417395 -1460882305 894210064 -1956153770 1406265606 534115097 92956089 334044000 -923736788 1538189591 -1510659966 -81812367 -468966872 1653214432 851339015 -623808169 -104207406 -1081061973 2077943812 1765924211 -1023215874 -26805532
REM
CELL 1.54180   50.00000   50.00000   50.00000   90.00000   90.00000   90.00000
LATT -1
SFAC C  
C      1  0.5169000000000  0.4745280000000  0.5150390000000 1.0
C      1  0.5851490000000  0.5066700000000  0.4779100000000 1.0
C      1  0.4357850000000  0.5266000000000  0.5344220000000 1.0
C      1  0.4707580000000  0.4840240000000  0.5250560000000 1.0
C      1  0.5001970000000  0.5612040000000  0.4654190000000 1.0
C      1  0.5519900000000  0.4537350000000  0.4776600000000 1.0
C      1  0.5310220000000  0.5291220000000  0.5156000000000 1.0
C      1  0.4536520000000  0.5528900000000  0.5101610000000 1.0
C      1  0.4977330000000  0.4203240000000  0.4986790000000 1.0
C      1  0.4240720000000  0.5016750000000  0.5200680000000 1.0
C      1  0.4668370000000  0.5663800000000  0.5360620000000 1.0
C      1  0.4582530000000  0.4503610000000  0.5571550000000 1.0
C      1  0.4844070000000  0.3792070000000  0.4046970000000 1.0
C      1  0.4632760000000  0.5297850000000  0.4594350000000 1.0
C      1  0.4898310000000  0.4627240000000  0.5228040000000 1.0
C      1  0.5808800000000  0.5004610000000  0.5057670000000 1.0
C      1  0.5964860000000  0.5430280000000  0.5216120000000 1.0
C      1  0.5637510000000  0.5110250000000  0.4603890000000 1.0
C      1  0.5097320000000  0.4899450000000  0.5806150000000 1.0
C      1  0.5158820000000  0.6121580000000  0.4994540000000 1.0
C      1  0.5147080000000  0.4879160000000  0.4873860000000 1.0
C      1  0.5186570000000  0.4913230000000  0.4377770000000 1.0
C      1  0.5005700000000  0.5297780000000  0.4731590000000 1.0
C      1  0.5300640000000  0.4646630000000  0.4310220000000 1.0
C      1  0.5065480000000  0.5436820000000  0.5251780000000 1.0
C      1  0.4368000000000  0.4575490000000  0.5076310000000 1.0
C      1  0.4978200000000  0.3993980000000  0.4146600000000 1.0
C      1  0.5011330000000  0.5479880000000  0.5645550000000 1.0
C      1  0.5586950000000  0.4849300000000  0.5146620000000 1.0
C      1  0.4258050000000  0.4794870000000  0.4661410000000 1.0
C      1  0.5758890000000  0.5570470000000  0.5104660000000 1.0
C      1  0.5342940000000  0.4999700000000  0.5294740000000 1.0
C      1  0.4836480000000  0.5099400000000  0.4429370000000 1.0
C      1  0.4811590000000  0.4372590000000  0.5138440000000 1.0
C      1  0.5327600000000  0.4152970000000  0.5375250000000 1.0
C      1  0.4345130000000  0.5041710000000  0.4265550000000 1.0
C      1  0.4614720000000  0.5011620000000  0.4218830000000 1.0
C      1  0.4729260000000  0.5462540000000  0.5564060000000 1.0
C      1  0.5516940000000  0.5507730000000  0.5016630000000 1.0
C      1  0.5225740000000  0.4232760000000  0.4524330000000 1.0
C      1  0.4901640000000  0.5831210000000  0.5297910000000 1.0
C      1  0.4528040000000  0.4346290000000  0.5125050000000 1.0
C      1  0.5237440000000  0.5472890000000  0.4459930000000 1.0
C      1  0.4966900000000  0.5933310000000  0.5034660000000 1.0
C      1  0.5283420000000  0.5029480000000  0.5586160000000 1.0
C      1  0.4273230000000  0.4747200000000  0.5286320000000 1.0
C      1  0.4823100000000  0.4386310000000  0.5538010000000 1.0
C      1  0.4827860000000  0.5174200000000  0.4920570000000 1.0
C      1  0.5328840000000  0.5408670000000  0.4774380000000 1.0
C      1  0.4991870000000  0.4877470000000  0.4634900000000 1.0
C      1  0.4453100000000  0.4753620000000  0.4861530000000 1.0
C      1  0.5117410000000  0.4137230000000  0.4765380000000 1.0
C      1  0.5119890000000  0.4207290000000  0.4251870000000 1.0
C      1  0.4834630000000  0.4841790000000  0.5717610000000 1.0
C      1  0.5126280000000  0.5681510000000  0.5441650000000 1.0
C      1  0.4251630000000  0.5047330000000  0.4536570000000 1.0
C      1  0.4573470000000  0.5227000000000  0.5520920000000 1.0
C      1  0.5069840000000  0.4322690000000  0.5439710000000 1.0
C      1  0.5523180000000  0.4592410000000  0.5050920000000 1.0
C      1  0.4569570000000  0.5716240000000  0.4861670000000 1.0
C      1  0.6098440000000  0.5024710000000  0.5455830000000 1.0
C      1  0.5176060000000  0.4463560000000  0.4122670000000 1.0
C      1  0.4651950000000  0.4943540000000  0.4974120000000 1.0
C      1  0.5315610000000  0.5101670000000  0.4886700000000 1.0
C      1  0.5973400000000  0.5148370000000  0.5248870000000 1.0
C      1  0.4351410000000  0.4666980000000  0.5552420000000 1.0
C      1  0.4818900000000  0.5367450000000  0.5139960000000 1.0
C      1  0.4356970000000  0.5791090000000  0.4703230000000 1.0
C      1  0.4223210000000  0.4763080000000  0.5772380000000 1.0
C      1  0.4846310000000  0.5784650000000  0.4816240000000 1.0
C      1  0.5186410000000  0.5284450000000  0.5761430000000 1.0
C      1  0.5298650000000  0.4455830000000  0.5225000000000 1.0
C      1  0.5126750000000  0.5121560000000  0.6029910000000 1.0
C      1  0.5396180000000  0.5170850000000  0.4439630000000 1.0
C      1  0.5382630000000  0.4482470000000  0.4539030000000 1.0
C      1  0.4384050000000  0.5241720000000  0.4701110000000 1.0
C      1  0.5094680000000  0.5228800000000  0.4287960000000 1.0
C      1  0.4685600000000  0.4961310000000  0.5508930000000 1.0
C      1  0.4340940000000  0.5279120000000  0.5003200000000 1.0
C      1  0.6107300000000  0.5107510000000  0.4692050000000 1.0
END
