TITL C-2778434-4341-106 -0.00136110929095959 125000 -662.177002929823 0 0 115 (C1) n - 1
REM
REM in /home/nfs/bkarasulu/CARBON/AIRSS/Generating-Clusters/REBO/Only-C1/SD-CG/HFTN-CG
REM
REM
REM
REM
REM
REM ./C.cell (11c1c37f851c82e70ff6c80c92926a4b)
REM
REM compiler GCC version 9.2.1 20190827 (Red Hat 9.2.1-1)
REM options -cpp -mtune=generic -march=x86-64 -g -O0 -fpre-include=/usr/include/finclude/math-vector-fortran.h
REM seed 514558946 -1336720105 -1453500301 1649312832 -1212650633 -1741033115 1650993646 -30152094 -878750772 -143888712 1302175814 1221410898 1810140052 1092831636 -806495897 158862950 -1687226450 742506176 160871247 596684578 233882953 -22661400 1903134732 -1093858508 2048809863 933737799 1420488881 -2046906221 -289409910 2064286877 -1771310823 1161607051 -1132825188
REM
CELL 1.54180   50.00000   50.00000   50.00000   90.00000   90.00000   90.00000
LATT -1
SFAC C  
C      1  0.4842550000000  0.4583420000000  0.4765720000000 1.0
C      1  0.5618580000000  0.5734640000000  0.5372590000000 1.0
C      1  0.5232710000000  0.5816020000000  0.4937390000000 1.0
C      1  0.5727390000000  0.4946080000000  0.5562870000000 1.0
C      1  0.5478490000000  0.5909420000000  0.5155180000000 1.0
C      1  0.4663200000000  0.4480100000000  0.5656730000000 1.0
C      1  0.5219050000000  0.5466710000000  0.5202020000000 1.0
C      1  0.5658150000000  0.4688690000000  0.3764160000000 1.0
C      1  0.4609860000000  0.5005860000000  0.5827480000000 1.0
C      1  0.5203230000000  0.4721970000000  0.5360940000000 1.0
C      1  0.4722420000000  0.4975350000000  0.5302060000000 1.0
C      1  0.4904220000000  0.5127260000000  0.4028970000000 1.0
C      1  0.4606280000000  0.5738770000000  0.4690340000000 1.0
C      1  0.3954380000000  0.5097250000000  0.4445670000000 1.0
C      1  0.5801220000000  0.4598850000000  0.5159100000000 1.0
C      1  0.4393110000000  0.5496090000000  0.5505700000000 1.0
C      1  0.5653300000000  0.5276020000000  0.4742930000000 1.0
C      1  0.6055960000000  0.4537980000000  0.5150190000000 1.0
C      1  0.4405120000000  0.4376290000000  0.5206410000000 1.0
C      1  0.4926530000000  0.5239490000000  0.4934040000000 1.0
C      1  0.4701730000000  0.4259290000000  0.4567270000000 1.0
C      1  0.4958560000000  0.4620990000000  0.4038740000000 1.0
C      1  0.4927310000000  0.4799170000000  0.5475320000000 1.0
C      1  0.4327390000000  0.5607310000000  0.5228700000000 1.0
C      1  0.4515310000000  0.4855510000000  0.4437750000000 1.0
C      1  0.5460380000000  0.5369590000000  0.5622180000000 1.0
C      1  0.5456770000000  0.5647040000000  0.5588360000000 1.0
C      1  0.5385910000000  0.4920880000000  0.4081200000000 1.0
C      1  0.4002090000000  0.4963860000000  0.4913740000000 1.0
C      1  0.5276740000000  0.4781910000000  0.5668440000000 1.0
C      1  0.4825120000000  0.4124500000000  0.5021680000000 1.0
C      1  0.4916190000000  0.4926050000000  0.5761020000000 1.0
C      1  0.5792510000000  0.5534600000000  0.5254430000000 1.0
C      1  0.4473340000000  0.4290100000000  0.4740190000000 1.0
C      1  0.5676870000000  0.5501010000000  0.4966730000000 1.0
C      1  0.4739050000000  0.5670370000000  0.5130830000000 1.0
C      1  0.4741070000000  0.5494840000000  0.4872360000000 1.0
C      1  0.5186720000000  0.6004000000000  0.5285600000000 1.0
C      1  0.5252960000000  0.4301650000000  0.4318230000000 1.0
C      1  0.5492490000000  0.4377130000000  0.4206110000000 1.0
C      1  0.5028550000000  0.5567760000000  0.5386890000000 1.0
C      1  0.5199970000000  0.5084800000000  0.5528220000000 1.0
C      1  0.4744130000000  0.4294450000000  0.4295540000000 1.0
C      1  0.4666660000000  0.5959620000000  0.5298360000000 1.0
C      1  0.4556420000000  0.4817160000000  0.5080550000000 1.0
C      1  0.4740570000000  0.4980330000000  0.4853710000000 1.0
C      1  0.5133050000000  0.5997430000000  0.5563550000000 1.0
C      1  0.5655530000000  0.4535680000000  0.3979210000000 1.0
C      1  0.5207660000000  0.4825780000000  0.4721510000000 1.0
C      1  0.5545700000000  0.4659900000000  0.5168030000000 1.0
C      1  0.5211900000000  0.4242370000000  0.5340270000000 1.0
C      1  0.5001230000000  0.4058530000000  0.5216240000000 1.0
C      1  0.5047550000000  0.4910600000000  0.4443290000000 1.0
C      1  0.4577350000000  0.5664040000000  0.5653330000000 1.0
C      1  0.4619210000000  0.5089520000000  0.4031630000000 1.0
C      1  0.5496910000000  0.5165680000000  0.4483790000000 1.0
C      1  0.5178720000000  0.5691840000000  0.4700700000000 1.0
C      1  0.5008560000000  0.4391960000000  0.4209350000000 1.0
C      1  0.4413910000000  0.5317450000000  0.4461670000000 1.0
C      1  0.5394150000000  0.5075690000000  0.4826640000000 1.0
C      1  0.4737530000000  0.5312760000000  0.5752340000000 1.0
C      1  0.4556260000000  0.4392280000000  0.4095210000000 1.0
C      1  0.5193560000000  0.5184840000000  0.4500900000000 1.0
C      1  0.6040880000000  0.4290570000000  0.4313850000000 1.0
C      1  0.4057390000000  0.4735110000000  0.5477980000000 1.0
C      1  0.5585290000000  0.4725630000000  0.5673500000000 1.0
C      1  0.4321850000000  0.4535170000000  0.4744940000000 1.0
C      1  0.4380390000000  0.4638330000000  0.5423680000000 1.0
C      1  0.4387510000000  0.5663580000000  0.4942630000000 1.0
C      1  0.4804030000000  0.5776640000000  0.5509570000000 1.0
C      1  0.4133700000000  0.4835970000000  0.5161490000000 1.0
C      1  0.4634010000000  0.5353310000000  0.5224540000000 1.0
C      1  0.4298580000000  0.4972630000000  0.5429650000000 1.0
C      1  0.5387240000000  0.5343040000000  0.5024510000000 1.0
C      1  0.4525210000000  0.5190980000000  0.5006870000000 1.0
C      1  0.4780280000000  0.4825990000000  0.4586740000000 1.0
C      1  0.5018920000000  0.5123060000000  0.5242980000000 1.0
C      1  0.4283460000000  0.4752980000000  0.4567810000000 1.0
C      1  0.5239270000000  0.4148000000000  0.4545760000000 1.0
C      1  0.5268510000000  0.4484890000000  0.5151340000000 1.0
C      1  0.5813690000000  0.4371170000000  0.4206360000000 1.0
C      1  0.5097160000000  0.4887990000000  0.5016630000000 1.0
C      1  0.5627390000000  0.5798510000000  0.4885180000000 1.0
C      1  0.5968770000000  0.5092470000000  0.5507590000000 1.0
C      1  0.5519230000000  0.5126040000000  0.5425860000000 1.0
C      1  0.4491780000000  0.5103830000000  0.4293080000000 1.0
C      1  0.4703620000000  0.4582060000000  0.5368240000000 1.0
C      1  0.4548080000000  0.4856340000000  0.3879840000000 1.0
C      1  0.4678200000000  0.4612540000000  0.3946900000000 1.0
C      1  0.5437330000000  0.4254910000000  0.5593690000000 1.0
C      1  0.5379150000000  0.4945640000000  0.5200440000000 1.0
C      1  0.5950140000000  0.5337010000000  0.5378100000000 1.0
C      1  0.4731190000000  0.4685700000000  0.5865960000000 1.0
C      1  0.5213420000000  0.5300920000000  0.5791680000000 1.0
C      1  0.5197960000000  0.5754190000000  0.5696580000000 1.0
C      1  0.4542710000000  0.4201320000000  0.5018930000000 1.0
C      1  0.5058690000000  0.5386090000000  0.4662780000000 1.0
C      1  0.4996150000000  0.5855870000000  0.5111590000000 1.0
C      1  0.4891950000000  0.5668530000000  0.4554170000000 1.0
C      1  0.4801110000000  0.5380830000000  0.5456610000000 1.0
C      1  0.5111340000000  0.5043990000000  0.5919210000000 1.0
C      1  0.5686730000000  0.5927200000000  0.4665720000000 1.0
C      1  0.5129860000000  0.4309600000000  0.5663660000000 1.0
C      1  0.5002020000000  0.5526400000000  0.5783130000000 1.0
C      1  0.4322770000000  0.4631340000000  0.5030140000000 1.0
C      1  0.5160700000000  0.4519460000000  0.4866870000000 1.0
C      1  0.4436540000000  0.5385720000000  0.4757440000000 1.0
C      1  0.5562180000000  0.5028310000000  0.4229200000000 1.0
C      1  0.5633700000000  0.4444560000000  0.5668980000000 1.0
C      1  0.4860860000000  0.4674300000000  0.5080700000000 1.0
C      1  0.4068330000000  0.4939100000000  0.4635680000000 1.0
C      1  0.4439490000000  0.5179480000000  0.5589530000000 1.0
C      1  0.5078830000000  0.4883720000000  0.4134030000000 1.0
C      1  0.4953580000000  0.4264770000000  0.4770360000000 1.0
C      1  0.5059450000000  0.4557630000000  0.5777060000000 1.0
END
