TITL C-2778427-5640-1147 -0.0486143640497372 125000 -159.52980540845 0 0 29 (C1) n - 1
REM
REM in /home/nfs/bkarasulu/CARBON/AIRSS/Generating-Clusters/REBO/Only-C1/SD-CG/HFTN-CG
REM
REM
REM
REM
REM
REM ./C.cell (11c1c37f851c82e70ff6c80c92926a4b)
REM
REM compiler GCC version 9.2.1 20190827 (Red Hat 9.2.1-1)
REM options -cpp -mtune=generic -march=x86-64 -g -O0 -fpre-include=/usr/include/finclude/math-vector-fortran.h
REM seed 18871984 1679013945 1161826932 -578676576 -2065169588 911770377 -1590288345 1862802206 -1938453849 -1577794422 -1619043686 511125960 1996627653 -5904706 1702773137 -1558862779 1994140606 -2144641075 1881607343 -1234364630 -1406895396 2074988113 35128227 464171632 122618725 1076487063 1663812994 1642402145 1959361187 -920589451 -1459138870 -235475889 800531380
REM
CELL 1.54180   50.00000   50.00000   50.00000   90.00000   90.00000   90.00000
LATT -1
SFAC C  
C      1  0.4630180000000  0.5045150000000  0.4769060000000 1.0
C      1  0.4818890000000  0.5361910000000  0.5206970000000 1.0
C      1  0.5491320000000  0.5315630000000  0.5535240000000 1.0
C      1  0.4398690000000  0.3831670000000  0.4897880000000 1.0
C      1  0.4672960000000  0.4591640000000  0.4943100000000 1.0
C      1  0.4487510000000  0.4077790000000  0.4912520000000 1.0
C      1  0.5895580000000  0.5161820000000  0.4613690000000 1.0
C      1  0.5119830000000  0.5325160000000  0.4742840000000 1.0
C      1  0.4108750000000  0.4634400000000  0.4494720000000 1.0
C      1  0.5710340000000  0.5395540000000  0.5663930000000 1.0
C      1  0.5044830000000  0.5152740000000  0.5272890000000 1.0
C      1  0.5638380000000  0.5215980000000  0.4656510000000 1.0
C      1  0.5381170000000  0.5270130000000  0.4699330000000 1.0
C      1  0.4880290000000  0.5662880000000  0.5144820000000 1.0
C      1  0.4989430000000  0.4893850000000  0.5185660000000 1.0
C      1  0.4317240000000  0.4708800000000  0.4634990000000 1.0
C      1  0.4894060000000  0.5531390000000  0.4682400000000 1.0
C      1  0.4859090000000  0.5218070000000  0.4925660000000 1.0
C      1  0.4577770000000  0.4327890000000  0.4927400000000 1.0
C      1  0.4579360000000  0.5322730000000  0.5346960000000 1.0
C      1  0.5031070000000  0.4415970000000  0.5217530000000 1.0
C      1  0.4884460000000  0.5740190000000  0.4879480000000 1.0
C      1  0.4540010000000  0.4788300000000  0.4784860000000 1.0
C      1  0.4898490000000  0.4639520000000  0.5111830000000 1.0
C      1  0.5272290000000  0.5235730000000  0.5406540000000 1.0
C      1  0.4648530000000  0.5345250000000  0.4664820000000 1.0
C      1  0.6148690000000  0.5108530000000  0.4571540000000 1.0
C      1  0.5925880000000  0.5474180000000  0.5790580000000 1.0
C      1  0.5154910000000  0.4207170000000  0.5316260000000 1.0
END
