TITL C-2778433-5640-173 -0.00172747003228961 125000 -831.880286927465 0 0 141 (C1) n - 1
REM
REM in /home/nfs/bkarasulu/CARBON/AIRSS/Generating-Clusters/REBO/Only-C1/SD-CG/HFTN-CG
REM
REM
REM
REM
REM
REM ./C.cell (11c1c37f851c82e70ff6c80c92926a4b)
REM
REM compiler GCC version 9.2.1 20190827 (Red Hat 9.2.1-1)
REM options -cpp -mtune=generic -march=x86-64 -g -O0 -fpre-include=/usr/include/finclude/math-vector-fortran.h
REM seed 798575966 624291697 -1712125815 -1589423834 -28041593 4102566 1722312686 1178837388 305724457 1899303646 23476796 -1845639493 -1428311810 1353458232 576550439 -618593682 1512988583 -1538292015 1763461253 -1520166994 553872919 647963773 1255298082 -1089884246 430055571 650783255 -1106526697 46887399 239136478 1352608511 -1013946169 613176015 72440485
REM
CELL 1.54180   50.00000   50.00000   50.00000   90.00000   90.00000   90.00000
LATT -1
SFAC C  
C      1  0.5478610000000  0.5659770000000  0.5052530000000 1.0
C      1  0.4816570000000  0.4490740000000  0.5385260000000 1.0
C      1  0.4417440000000  0.4839570000000  0.5064460000000 1.0
C      1  0.4557160000000  0.5553860000000  0.4595410000000 1.0
C      1  0.5499110000000  0.5795600000000  0.5543130000000 1.0
C      1  0.4686910000000  0.4185210000000  0.4666340000000 1.0
C      1  0.4766720000000  0.4660700000000  0.5827510000000 1.0
C      1  0.4940340000000  0.4022940000000  0.4624310000000 1.0
C      1  0.5386150000000  0.4830940000000  0.5917350000000 1.0
C      1  0.5623380000000  0.4803510000000  0.4138790000000 1.0
C      1  0.5640890000000  0.4231830000000  0.4536580000000 1.0
C      1  0.6030020000000  0.4863100000000  0.4838420000000 1.0
C      1  0.5325160000000  0.4141900000000  0.4970390000000 1.0
C      1  0.4803860000000  0.5627970000000  0.5769040000000 1.0
C      1  0.5631020000000  0.4894500000000  0.6014580000000 1.0
C      1  0.5548300000000  0.5589790000000  0.4723590000000 1.0
C      1  0.4137740000000  0.4661630000000  0.4832340000000 1.0
C      1  0.5269440000000  0.4884260000000  0.5537670000000 1.0
C      1  0.5437420000000  0.5524320000000  0.4405900000000 1.0
C      1  0.4870060000000  0.4317940000000  0.5162460000000 1.0
C      1  0.4879160000000  0.5573390000000  0.4481780000000 1.0
C      1  0.4672940000000  0.4737040000000  0.4543030000000 1.0
C      1  0.4169260000000  0.4965540000000  0.4401240000000 1.0
C      1  0.5904760000000  0.5233770000000  0.5533110000000 1.0
C      1  0.5135430000000  0.5389870000000  0.4459440000000 1.0
C      1  0.5578680000000  0.5579220000000  0.5361580000000 1.0
C      1  0.4726320000000  0.4404490000000  0.4900880000000 1.0
C      1  0.5275770000000  0.4836760000000  0.4812090000000 1.0
C      1  0.5457580000000  0.4680490000000  0.5249590000000 1.0
C      1  0.4465460000000  0.5784610000000  0.5282430000000 1.0
C      1  0.4394790000000  0.4253970000000  0.5204040000000 1.0
C      1  0.4611420000000  0.5087890000000  0.4152140000000 1.0
C      1  0.5030420000000  0.5406600000000  0.5906980000000 1.0
C      1  0.4528520000000  0.5807640000000  0.4288700000000 1.0
C      1  0.5362450000000  0.4238990000000  0.4361440000000 1.0
C      1  0.5072370000000  0.4884890000000  0.4576500000000 1.0
C      1  0.5172740000000  0.5343510000000  0.5128370000000 1.0
C      1  0.5766790000000  0.4383590000000  0.4960430000000 1.0
C      1  0.4933750000000  0.4749270000000  0.5367590000000 1.0
C      1  0.4648460000000  0.5772380000000  0.5539570000000 1.0
C      1  0.4445560000000  0.4418720000000  0.4184580000000 1.0
C      1  0.5996210000000  0.4937460000000  0.5116060000000 1.0
C      1  0.5315670000000  0.4438240000000  0.4703600000000 1.0
C      1  0.5098270000000  0.5006960000000  0.4096000000000 1.0
C      1  0.4533230000000  0.5845610000000  0.4993510000000 1.0
C      1  0.5221830000000  0.4135270000000  0.4644520000000 1.0
C      1  0.4935340000000  0.4592650000000  0.4807230000000 1.0
C      1  0.5085040000000  0.5794120000000  0.5838880000000 1.0
C      1  0.5029440000000  0.4777160000000  0.5754370000000 1.0
C      1  0.4760420000000  0.4954720000000  0.5437650000000 1.0
C      1  0.5220750000000  0.5713130000000  0.5271210000000 1.0
C      1  0.4060690000000  0.4950060000000  0.4698440000000 1.0
C      1  0.5851660000000  0.4603630000000  0.4762310000000 1.0
C      1  0.5284660000000  0.5362150000000  0.5955480000000 1.0
C      1  0.4254870000000  0.5191160000000  0.5478730000000 1.0
C      1  0.4755970000000  0.5925120000000  0.4827190000000 1.0
C      1  0.4349520000000  0.4913210000000  0.4111510000000 1.0
C      1  0.4782240000000  0.3929450000000  0.5140060000000 1.0
C      1  0.4505720000000  0.5400220000000  0.5380040000000 1.0
C      1  0.5481130000000  0.4597180000000  0.4567650000000 1.0
C      1  0.4058980000000  0.5122070000000  0.5283550000000 1.0
C      1  0.5808400000000  0.5403700000000  0.4732170000000 1.0
C      1  0.4860560000000  0.5824180000000  0.4275850000000 1.0
C      1  0.5848960000000  0.5221150000000  0.4483730000000 1.0
C      1  0.4385650000000  0.5226080000000  0.4355120000000 1.0
C      1  0.5082020000000  0.6072610000000  0.5176810000000 1.0
C      1  0.4525690000000  0.4223100000000  0.4367130000000 1.0
C      1  0.5286390000000  0.4785680000000  0.4094530000000 1.0
C      1  0.4145060000000  0.5254150000000  0.4827600000000 1.0
C      1  0.4799680000000  0.5266350000000  0.4986790000000 1.0
C      1  0.5207810000000  0.4545220000000  0.4971520000000 1.0
C      1  0.5671570000000  0.5097900000000  0.4950540000000 1.0
C      1  0.5947610000000  0.4929120000000  0.4550680000000 1.0
C      1  0.4478250000000  0.4895320000000  0.5353110000000 1.0
C      1  0.4204580000000  0.5509430000000  0.4962140000000 1.0
C      1  0.5180590000000  0.4511000000000  0.4265480000000 1.0
C      1  0.5702940000000  0.4860330000000  0.5191920000000 1.0
C      1  0.4400750000000  0.5152540000000  0.4665780000000 1.0
C      1  0.4361160000000  0.4232170000000  0.4654990000000 1.0
C      1  0.5383350000000  0.5343040000000  0.5322240000000 1.0
C      1  0.4393300000000  0.5661410000000  0.4822230000000 1.0
C      1  0.5906470000000  0.5308490000000  0.4999230000000 1.0
C      1  0.5055170000000  0.5055730000000  0.5063840000000 1.0
C      1  0.5187860000000  0.4846980000000  0.5231770000000 1.0
C      1  0.4822650000000  0.5950880000000  0.5344000000000 1.0
C      1  0.4314970000000  0.4673380000000  0.4346060000000 1.0
C      1  0.5237220000000  0.4350420000000  0.5526230000000 1.0
C      1  0.5840100000000  0.4440180000000  0.4490350000000 1.0
C      1  0.4973160000000  0.4592460000000  0.4467930000000 1.0
C      1  0.4601660000000  0.4067250000000  0.5319860000000 1.0
C      1  0.4134790000000  0.5005160000000  0.5032050000000 1.0
C      1  0.5610990000000  0.4838000000000  0.4745690000000 1.0
C      1  0.5010920000000  0.4213310000000  0.5597420000000 1.0
C      1  0.4411420000000  0.4618300000000  0.3965350000000 1.0
C      1  0.4726860000000  0.5047430000000  0.4462490000000 1.0
C      1  0.4317250000000  0.4915170000000  0.5652890000000 1.0
C      1  0.5052920000000  0.5114390000000  0.4377000000000 1.0
C      1  0.5437600000000  0.5133840000000  0.5505340000000 1.0
C      1  0.5658770000000  0.5199850000000  0.5677310000000 1.0
C      1  0.4756320000000  0.5463860000000  0.5212200000000 1.0
C      1  0.5335350000000  0.4586220000000  0.5685580000000 1.0
C      1  0.5700080000000  0.4461470000000  0.5211890000000 1.0
C      1  0.4468440000000  0.4543130000000  0.5022070000000 1.0
C      1  0.4237290000000  0.4496180000000  0.5344500000000 1.0
C      1  0.5607220000000  0.4191590000000  0.4821210000000 1.0
C      1  0.5525600000000  0.4521130000000  0.4261250000000 1.0
C      1  0.5081480000000  0.5568860000000  0.4929480000000 1.0
C      1  0.5378560000000  0.5138000000000  0.4854580000000 1.0
C      1  0.5274020000000  0.5397290000000  0.4746430000000 1.0
C      1  0.4088260000000  0.4629600000000  0.5156870000000 1.0
C      1  0.4250860000000  0.5555620000000  0.5243230000000 1.0
C      1  0.5310980000000  0.4372190000000  0.5223040000000 1.0
C      1  0.4707140000000  0.5927880000000  0.4548670000000 1.0
C      1  0.5350810000000  0.5775180000000  0.5783420000000 1.0
C      1  0.4588740000000  0.5019580000000  0.4868510000000 1.0
C      1  0.5046950000000  0.4076260000000  0.5111500000000 1.0
C      1  0.5632120000000  0.5369890000000  0.4272210000000 1.0
C      1  0.4498520000000  0.5084770000000  0.5885690000000 1.0
C      1  0.5551140000000  0.5301780000000  0.5921950000000 1.0
C      1  0.6018230000000  0.5212920000000  0.5270610000000 1.0
C      1  0.5364060000000  0.6015740000000  0.5359270000000 1.0
C      1  0.4883220000000  0.4907710000000  0.4840490000000 1.0
C      1  0.4388270000000  0.5539210000000  0.4318620000000 1.0
C      1  0.4358760000000  0.4592220000000  0.5579250000000 1.0
C      1  0.4852560000000  0.5075050000000  0.6070620000000 1.0
C      1  0.5848900000000  0.4722320000000  0.4380380000000 1.0
C      1  0.4702900000000  0.5351430000000  0.5940690000000 1.0
C      1  0.5008970000000  0.5847170000000  0.4939950000000 1.0
C      1  0.5482960000000  0.5923080000000  0.4747610000000 1.0
C      1  0.4602490000000  0.5186310000000  0.5591960000000 1.0
C      1  0.4942420000000  0.5667610000000  0.5290580000000 1.0
C      1  0.5113870000000  0.4963970000000  0.5997080000000 1.0
C      1  0.4855560000000  0.5043830000000  0.3963270000000 1.0
C      1  0.4228810000000  0.4342160000000  0.4917310000000 1.0
C      1  0.5735480000000  0.5084160000000  0.4191000000000 1.0
C      1  0.4766860000000  0.5308120000000  0.4659090000000 1.0
C      1  0.5374290000000  0.5985600000000  0.5022390000000 1.0
C      1  0.4388430000000  0.4571450000000  0.4632280000000 1.0
C      1  0.4749300000000  0.4135950000000  0.5556870000000 1.0
C      1  0.4635050000000  0.4513570000000  0.5621540000000 1.0
C      1  0.4653040000000  0.4841930000000  0.6020170000000 1.0
END
