TITL C-2778427-5640-339 -0.000401315358150383 125000 -650.855961636014 0 0 110 (C1) n - 1
REM
REM in /home/nfs/bkarasulu/CARBON/AIRSS/Generating-Clusters/REBO/Only-C1/SD-CG/HFTN-CG
REM
REM
REM
REM
REM
REM ./C.cell (11c1c37f851c82e70ff6c80c92926a4b)
REM
REM compiler GCC version 9.2.1 20190827 (Red Hat 9.2.1-1)
REM options -cpp -mtune=generic -march=x86-64 -g -O0 -fpre-include=/usr/include/finclude/math-vector-fortran.h
REM seed -930169041 2081191012 -361775475 1132433805 -779618840 2091536233 425500118 1536049492 1590034665 1159996324 1882674219 679911961 89286873 -747142915 -2082726462 104568295 821818792 2077795795 -1658972125 -1825334970 169521748 -649316575 -441762934 -197112677 1639494573 1524574349 772864446 -1927801621 1442934619 1451817499 2078957128 1353957075 1767360064
REM
CELL 1.54180   50.00000   50.00000   50.00000   90.00000   90.00000   90.00000
LATT -1
SFAC C  
C      1  0.5475890000000  0.5178950000000  0.5377270000000 1.0
C      1  0.5206060000000  0.4477720000000  0.4453800000000 1.0
C      1  0.4920420000000  0.4001880000000  0.4948570000000 1.0
C      1  0.5715170000000  0.5314470000000  0.4717890000000 1.0
C      1  0.5217450000000  0.4665760000000  0.5727040000000 1.0
C      1  0.5811320000000  0.4733740000000  0.4799730000000 1.0
C      1  0.5256260000000  0.4928030000000  0.5294820000000 1.0
C      1  0.5239470000000  0.4982060000000  0.5630080000000 1.0
C      1  0.4694330000000  0.4646050000000  0.5734540000000 1.0
C      1  0.4113010000000  0.4886860000000  0.4832230000000 1.0
C      1  0.4805340000000  0.4550630000000  0.4803210000000 1.0
C      1  0.5514580000000  0.4395210000000  0.4573200000000 1.0
C      1  0.5476600000000  0.4963200000000  0.4963660000000 1.0
C      1  0.5022990000000  0.5194770000000  0.5473740000000 1.0
C      1  0.5737110000000  0.5152190000000  0.5076490000000 1.0
C      1  0.5140560000000  0.5752320000000  0.4475830000000 1.0
C      1  0.5230120000000  0.4450830000000  0.5507390000000 1.0
C      1  0.5501130000000  0.5027240000000  0.4277550000000 1.0
C      1  0.5493250000000  0.5493960000000  0.5482220000000 1.0
C      1  0.4944040000000  0.5023580000000  0.4837280000000 1.0
C      1  0.5311510000000  0.5410270000000  0.5918180000000 1.0
C      1  0.5707570000000  0.4796100000000  0.5569090000000 1.0
C      1  0.4523340000000  0.5662150000000  0.5206290000000 1.0
C      1  0.5526950000000  0.4755180000000  0.5789730000000 1.0
C      1  0.5300990000000  0.5575990000000  0.5691600000000 1.0
C      1  0.5493910000000  0.4680560000000  0.5089400000000 1.0
C      1  0.5255090000000  0.4175760000000  0.4584830000000 1.0
C      1  0.5008840000000  0.4155580000000  0.5193390000000 1.0
C      1  0.4892430000000  0.5425240000000  0.4911000000000 1.0
C      1  0.4971920000000  0.5220440000000  0.4105440000000 1.0
C      1  0.4466810000000  0.4812080000000  0.5684360000000 1.0
C      1  0.4877500000000  0.5088450000000  0.5755600000000 1.0
C      1  0.4379530000000  0.5611140000000  0.4934530000000 1.0
C      1  0.4525570000000  0.4178740000000  0.5101090000000 1.0
C      1  0.5078730000000  0.5721320000000  0.5240560000000 1.0
C      1  0.4053680000000  0.5383450000000  0.4949930000000 1.0
C      1  0.5836840000000  0.5007110000000  0.4798630000000 1.0
C      1  0.5200870000000  0.5442820000000  0.4892160000000 1.0
C      1  0.4694450000000  0.5317340000000  0.4207260000000 1.0
C      1  0.5381770000000  0.5537970000000  0.4365500000000 1.0
C      1  0.5334510000000  0.5140890000000  0.5880640000000 1.0
C      1  0.4511180000000  0.5232140000000  0.5215110000000 1.0
C      1  0.4722020000000  0.5350220000000  0.5686120000000 1.0
C      1  0.4925690000000  0.4923750000000  0.3989720000000 1.0
C      1  0.5964690000000  0.5174060000000  0.5310140000000 1.0
C      1  0.5660810000000  0.5478650000000  0.5014030000000 1.0
C      1  0.4655280000000  0.5589360000000  0.4213710000000 1.0
C      1  0.5151960000000  0.5394290000000  0.5295900000000 1.0
C      1  0.4788640000000  0.4696010000000  0.4201870000000 1.0
C      1  0.5313220000000  0.5652650000000  0.4738870000000 1.0
C      1  0.5191880000000  0.4610400000000  0.5226690000000 1.0
C      1  0.4817510000000  0.5720530000000  0.4387970000000 1.0
C      1  0.4635480000000  0.3979450000000  0.4947500000000 1.0
C      1  0.5503840000000  0.4376710000000  0.5348300000000 1.0
C      1  0.4284240000000  0.4634600000000  0.4776090000000 1.0
C      1  0.4524900000000  0.4583150000000  0.4645730000000 1.0
C      1  0.4663270000000  0.4437960000000  0.5272610000000 1.0
C      1  0.4536750000000  0.4612620000000  0.4374380000000 1.0
C      1  0.5212210000000  0.5074890000000  0.4657430000000 1.0
C      1  0.5906920000000  0.5468900000000  0.5248160000000 1.0
C      1  0.5685810000000  0.4609120000000  0.5361370000000 1.0
C      1  0.4181770000000  0.4571760000000  0.5064360000000 1.0
C      1  0.4335230000000  0.5080490000000  0.5756520000000 1.0
C      1  0.5205900000000  0.4284550000000  0.4996640000000 1.0
C      1  0.5400730000000  0.5612030000000  0.5188860000000 1.0
C      1  0.4779700000000  0.5063140000000  0.5319230000000 1.0
C      1  0.5137520000000  0.4515410000000  0.4842180000000 1.0
C      1  0.4475300000000  0.4950270000000  0.5405940000000 1.0
C      1  0.4144440000000  0.5091440000000  0.4229320000000 1.0
C      1  0.4337060000000  0.4400140000000  0.5213450000000 1.0
C      1  0.4183380000000  0.5325580000000  0.5217660000000 1.0
C      1  0.5062820000000  0.4883920000000  0.4295110000000 1.0
C      1  0.5076110000000  0.5684570000000  0.5570330000000 1.0
C      1  0.5478430000000  0.4283070000000  0.5080300000000 1.0
C      1  0.5595970000000  0.5606370000000  0.4625100000000 1.0
C      1  0.4699130000000  0.5228460000000  0.4735320000000 1.0
C      1  0.5617500000000  0.4472270000000  0.4849870000000 1.0
C      1  0.4183380000000  0.5024150000000  0.5303340000000 1.0
C      1  0.5739860000000  0.5056140000000  0.5465890000000 1.0
C      1  0.5326060000000  0.4785300000000  0.4407410000000 1.0
C      1  0.4790380000000  0.6083890000000  0.5053200000000 1.0
C      1  0.5095500000000  0.4014110000000  0.4723830000000 1.0
C      1  0.4499620000000  0.3806480000000  0.4789290000000 1.0
C      1  0.5792030000000  0.5591350000000  0.5475350000000 1.0
C      1  0.4829840000000  0.5541540000000  0.5496800000000 1.0
C      1  0.5684620000000  0.4543280000000  0.4353700000000 1.0
C      1  0.5693760000000  0.4770540000000  0.4252480000000 1.0
C      1  0.4338140000000  0.5506030000000  0.5445140000000 1.0
C      1  0.4808240000000  0.5841840000000  0.5159450000000 1.0
C      1  0.4833630000000  0.4911310000000  0.4535300000000 1.0
C      1  0.5347770000000  0.5236800000000  0.5065410000000 1.0
C      1  0.4914770000000  0.4577060000000  0.4497290000000 1.0
C      1  0.4984210000000  0.4279620000000  0.5450350000000 1.0
C      1  0.4867570000000  0.4599700000000  0.5119060000000 1.0
C      1  0.4170850000000  0.5164970000000  0.4730990000000 1.0
C      1  0.4429670000000  0.5349660000000  0.4820510000000 1.0
C      1  0.4771100000000  0.5446230000000  0.5186560000000 1.0
C      1  0.4293230000000  0.5127830000000  0.4443900000000 1.0
C      1  0.4922840000000  0.4806920000000  0.5799100000000 1.0
C      1  0.5078290000000  0.5259720000000  0.4430570000000 1.0
C      1  0.4599050000000  0.5138150000000  0.4439280000000 1.0
C      1  0.5306770000000  0.4762410000000  0.4745980000000 1.0
C      1  0.5296390000000  0.5276300000000  0.4167870000000 1.0
C      1  0.4084080000000  0.5674880000000  0.4888130000000 1.0
C      1  0.4741680000000  0.4414320000000  0.5571630000000 1.0
C      1  0.4436150000000  0.5335070000000  0.5662660000000 1.0
C      1  0.4954300000000  0.5495760000000  0.4584500000000 1.0
C      1  0.4962110000000  0.4915880000000  0.5120080000000 1.0
C      1  0.4052760000000  0.4845290000000  0.5132480000000 1.0
C      1  0.5466140000000  0.5246520000000  0.4524800000000 1.0
END
