TITL C-2778432-5617-102 0.00521081670094036 125000 -571.468012322894 0 0 97 (C1) n - 1
REM
REM in /home/nfs/bkarasulu/CARBON/AIRSS/Generating-Clusters/REBO/Only-C1/SD-CG/HFTN-CG
REM
REM
REM
REM
REM
REM ./C.cell (11c1c37f851c82e70ff6c80c92926a4b)
REM
REM compiler GCC version 9.2.1 20190827 (Red Hat 9.2.1-1)
REM options -cpp -mtune=generic -march=x86-64 -g -O0 -fpre-include=/usr/include/finclude/math-vector-fortran.h
REM seed -2098351755 1930877165 -722715405 -2065912375 -540337994 -1628322027 -602558352 -213132207 1480403573 -839874111 729674295 -1371184541 -205874407 1359322697 -282834602 449300739 63951289 -1822045413 -2035974715 -491495057 1947801610 719503437 -1033482800 378355807 1646181279 2087414055 734072902 2143367427 2075852308 -332469378 1387796455 -1787452938 1825775573
REM
CELL 1.54180   50.00000   50.00000   50.00000   90.00000   90.00000   90.00000
LATT -1
SFAC C  
C      1  0.4560350000000  0.5334100000000  0.5228780000000 1.0
C      1  0.4281700000000  0.4871470000000  0.4235780000000 1.0
C      1  0.4503170000000  0.5561250000000  0.4562910000000 1.0
C      1  0.4424360000000  0.5181640000000  0.5473600000000 1.0
C      1  0.5128130000000  0.4582340000000  0.5825170000000 1.0
C      1  0.4813000000000  0.5629980000000  0.5512320000000 1.0
C      1  0.4666320000000  0.4159100000000  0.4479250000000 1.0
C      1  0.4957390000000  0.4158050000000  0.4752970000000 1.0
C      1  0.4462590000000  0.4335850000000  0.5422670000000 1.0
C      1  0.4913090000000  0.5835200000000  0.4510310000000 1.0
C      1  0.5731660000000  0.4962630000000  0.5477950000000 1.0
C      1  0.5534840000000  0.4942130000000  0.4427730000000 1.0
C      1  0.4345990000000  0.4478420000000  0.5174820000000 1.0
C      1  0.5297290000000  0.4861700000000  0.5404800000000 1.0
C      1  0.4628600000000  0.5826770000000  0.4605830000000 1.0
C      1  0.5204680000000  0.4966340000000  0.4047770000000 1.0
C      1  0.5649440000000  0.5178730000000  0.5652850000000 1.0
C      1  0.4786110000000  0.5427580000000  0.4809210000000 1.0
C      1  0.5350900000000  0.4719520000000  0.5710590000000 1.0
C      1  0.5369110000000  0.4665690000000  0.5194970000000 1.0
C      1  0.4565640000000  0.4970820000000  0.4916580000000 1.0
C      1  0.5209230000000  0.5490870000000  0.5071760000000 1.0
C      1  0.4956800000000  0.4514870000000  0.5117050000000 1.0
C      1  0.5065430000000  0.4965560000000  0.4606360000000 1.0
C      1  0.4542520000000  0.5953650000000  0.4868180000000 1.0
C      1  0.5280250000000  0.5037190000000  0.5970020000000 1.0
C      1  0.4646970000000  0.4888890000000  0.5235940000000 1.0
C      1  0.4848950000000  0.4590250000000  0.5791670000000 1.0
C      1  0.4618530000000  0.5638210000000  0.5267310000000 1.0
C      1  0.5052630000000  0.4973130000000  0.5855600000000 1.0
C      1  0.5090950000000  0.5700210000000  0.5475520000000 1.0
C      1  0.5043000000000  0.5303460000000  0.5491920000000 1.0
C      1  0.4394700000000  0.4809000000000  0.4462360000000 1.0
C      1  0.5433420000000  0.4810470000000  0.4899120000000 1.0
C      1  0.5222470000000  0.4555520000000  0.4674670000000 1.0
C      1  0.4601360000000  0.4380780000000  0.4632270000000 1.0
C      1  0.4792450000000  0.4852250000000  0.4757580000000 1.0
C      1  0.5535130000000  0.5099340000000  0.5901120000000 1.0
C      1  0.4175310000000  0.4987650000000  0.5107870000000 1.0
C      1  0.5630050000000  0.4458710000000  0.5415050000000 1.0
C      1  0.4293750000000  0.5422490000000  0.4783610000000 1.0
C      1  0.4841920000000  0.5159760000000  0.5258080000000 1.0
C      1  0.5736420000000  0.5246280000000  0.5066230000000 1.0
C      1  0.5137930000000  0.5788450000000  0.4706180000000 1.0
C      1  0.5001990000000  0.4314890000000  0.5389820000000 1.0
C      1  0.4827540000000  0.4673740000000  0.5363690000000 1.0
C      1  0.5337080000000  0.4937900000000  0.4678090000000 1.0
C      1  0.4771390000000  0.5393930000000  0.4482420000000 1.0
C      1  0.5049790000000  0.5012820000000  0.5028540000000 1.0
C      1  0.5013370000000  0.5173400000000  0.4086940000000 1.0
C      1  0.4782280000000  0.5376480000000  0.5675100000000 1.0
C      1  0.5593610000000  0.4459510000000  0.5035290000000 1.0
C      1  0.5364600000000  0.5581770000000  0.4675850000000 1.0
C      1  0.5718290000000  0.4769930000000  0.5034230000000 1.0
C      1  0.5455650000000  0.5341160000000  0.5180220000000 1.0
C      1  0.4445410000000  0.4374550000000  0.4864630000000 1.0
C      1  0.5333000000000  0.4362820000000  0.5322040000000 1.0
C      1  0.4307640000000  0.4857970000000  0.4753810000000 1.0
C      1  0.4597870000000  0.5162080000000  0.5688580000000 1.0
C      1  0.5219800000000  0.4266500000000  0.4706190000000 1.0
C      1  0.5029580000000  0.5831970000000  0.4966290000000 1.0
C      1  0.5743380000000  0.5616970000000  0.5457570000000 1.0
C      1  0.5290380000000  0.5499780000000  0.5586850000000 1.0
C      1  0.5373450000000  0.4654090000000  0.4400070000000 1.0
C      1  0.4189230000000  0.5644730000000  0.4978760000000 1.0
C      1  0.4740950000000  0.4908430000000  0.5759310000000 1.0
C      1  0.5615220000000  0.4316600000000  0.4733840000000 1.0
C      1  0.5476390000000  0.5043510000000  0.4110130000000 1.0
C      1  0.4754180000000  0.5715700000000  0.4968310000000 1.0
C      1  0.5073780000000  0.5421840000000  0.4295960000000 1.0
C      1  0.4661990000000  0.4660380000000  0.4522950000000 1.0
C      1  0.4348000000000  0.4801230000000  0.5206010000000 1.0
C      1  0.5405080000000  0.4184800000000  0.4963870000000 1.0
C      1  0.4727680000000  0.3949450000000  0.4334460000000 1.0
C      1  0.4738530000000  0.4416000000000  0.5547670000000 1.0
C      1  0.5562770000000  0.4411430000000  0.4484790000000 1.0
C      1  0.4221050000000  0.4602200000000  0.4884590000000 1.0
C      1  0.5167540000000  0.5752570000000  0.5204920000000 1.0
C      1  0.5139960000000  0.4727410000000  0.4200380000000 1.0
C      1  0.5551790000000  0.5458200000000  0.4872560000000 1.0
C      1  0.4755580000000  0.5192300000000  0.4230770000000 1.0
C      1  0.5565380000000  0.5442270000000  0.5566500000000 1.0
C      1  0.5014220000000  0.4851780000000  0.5542350000000 1.0
C      1  0.5344210000000  0.5435200000000  0.4429540000000 1.0
C      1  0.5040190000000  0.5319470000000  0.4927450000000 1.0
C      1  0.5537320000000  0.5260620000000  0.4332820000000 1.0
C      1  0.4905320000000  0.4194990000000  0.5024450000000 1.0
C      1  0.4953760000000  0.5707160000000  0.4260410000000 1.0
C      1  0.5798290000000  0.4991330000000  0.5191330000000 1.0
C      1  0.4931630000000  0.4782060000000  0.4392730000000 1.0
C      1  0.4386730000000  0.5805920000000  0.5088420000000 1.0
C      1  0.4175400000000  0.5136930000000  0.4856250000000 1.0
C      1  0.5625690000000  0.4702630000000  0.5566640000000 1.0
C      1  0.5180750000000  0.4104500000000  0.5187330000000 1.0
C      1  0.5048080000000  0.4704460000000  0.4906250000000 1.0
C      1  0.4543990000000  0.5274020000000  0.4926510000000 1.0
C      1  0.5238670000000  0.5141300000000  0.5283240000000 1.0
END
