TITL C-2778430-5657-1107 -0.00448754673996968 125000 -401.028460099401 0 0 72 (C1) n - 1
REM
REM in /home/nfs/bkarasulu/CARBON/AIRSS/Generating-Clusters/REBO/Only-C1/SD-CG/HFTN-CG
REM
REM
REM
REM
REM
REM ./C.cell (11c1c37f851c82e70ff6c80c92926a4b)
REM
REM compiler GCC version 9.2.1 20190827 (Red Hat 9.2.1-1)
REM options -cpp -mtune=generic -march=x86-64 -g -O0 -fpre-include=/usr/include/finclude/math-vector-fortran.h
REM seed 1048252812 -1945706323 -2143269572 -1554259996 1102737373 1788890294 -1203192305 -174010252 -1646211805 -1219316063 -1963781695 -1626956778 2119426706 -889590607 43441993 -1963835474 -177968931 -1531690426 -1920057481 -1697652117 228599204 -212088253 1544226611 -238205379 1744516619 -831558823 654839688 -744999082 326702911 -617148768 887394604 -523481266 -1060385834
REM
CELL 1.54180   50.00000   50.00000   50.00000   90.00000   90.00000   90.00000
LATT -1
SFAC C  
C      1  0.5166550000000  0.5697180000000  0.4909790000000 1.0
C      1  0.4535810000000  0.4930060000000  0.4853440000000 1.0
C      1  0.4747170000000  0.4240670000000  0.4823380000000 1.0
C      1  0.5700850000000  0.5129900000000  0.4689590000000 1.0
C      1  0.5188930000000  0.4226970000000  0.4583650000000 1.0
C      1  0.5059850000000  0.5253800000000  0.5212040000000 1.0
C      1  0.5344770000000  0.5505280000000  0.4702140000000 1.0
C      1  0.4636130000000  0.5235400000000  0.4800980000000 1.0
C      1  0.4646460000000  0.5633960000000  0.4775740000000 1.0
C      1  0.4488790000000  0.5363440000000  0.5418600000000 1.0
C      1  0.5251600000000  0.5052750000000  0.5304540000000 1.0
C      1  0.4424340000000  0.4887860000000  0.4594990000000 1.0
C      1  0.4945750000000  0.4353810000000  0.4616190000000 1.0
C      1  0.5198010000000  0.5334340000000  0.4457670000000 1.0
C      1  0.5602720000000  0.4674110000000  0.5001050000000 1.0
C      1  0.4679100000000  0.4255180000000  0.5318570000000 1.0
C      1  0.5517420000000  0.5628660000000  0.5466560000000 1.0
C      1  0.5674990000000  0.5006290000000  0.5010600000000 1.0
C      1  0.4996220000000  0.5502740000000  0.5625100000000 1.0
C      1  0.4830300000000  0.4126330000000  0.5113490000000 1.0
C      1  0.5349020000000  0.4845930000000  0.4390930000000 1.0
C      1  0.4806010000000  0.5047040000000  0.4328340000000 1.0
C      1  0.4348980000000  0.5358350000000  0.5093520000000 1.0
C      1  0.5381300000000  0.4811720000000  0.5710880000000 1.0
C      1  0.4301080000000  0.5847110000000  0.4399670000000 1.0
C      1  0.4940340000000  0.5493710000000  0.4782660000000 1.0
C      1  0.5519010000000  0.4581210000000  0.5661710000000 1.0
C      1  0.4929380000000  0.5512180000000  0.5319680000000 1.0
C      1  0.4481660000000  0.5362420000000  0.4532650000000 1.0
C      1  0.4276130000000  0.4389190000000  0.4750200000000 1.0
C      1  0.5366420000000  0.4722010000000  0.4682800000000 1.0
C      1  0.5035340000000  0.5772460000000  0.5180630000000 1.0
C      1  0.4730470000000  0.5292280000000  0.5589250000000 1.0
C      1  0.4588050000000  0.4663890000000  0.5032780000000 1.0
C      1  0.5473260000000  0.5134630000000  0.4434700000000 1.0
C      1  0.5479170000000  0.5586860000000  0.4988560000000 1.0
C      1  0.5184620000000  0.4523690000000  0.4884650000000 1.0
C      1  0.5248740000000  0.5294660000000  0.5733490000000 1.0
C      1  0.5320910000000  0.5600630000000  0.5650580000000 1.0
C      1  0.4193450000000  0.4899140000000  0.5315180000000 1.0
C      1  0.5564200000000  0.5163600000000  0.5267020000000 1.0
C      1  0.4832450000000  0.4988960000000  0.5476590000000 1.0
C      1  0.4699820000000  0.4533550000000  0.5314550000000 1.0
C      1  0.5569820000000  0.5476880000000  0.5231320000000 1.0
C      1  0.4422450000000  0.5567960000000  0.4870600000000 1.0
C      1  0.4428990000000  0.5076520000000  0.5246200000000 1.0
C      1  0.4707590000000  0.5395260000000  0.5089690000000 1.0
C      1  0.5039560000000  0.4824320000000  0.4421240000000 1.0
C      1  0.5414470000000  0.4605850000000  0.5200360000000 1.0
C      1  0.4879020000000  0.5257260000000  0.4554220000000 1.0
C      1  0.4978080000000  0.5126770000000  0.5754200000000 1.0
C      1  0.4389690000000  0.5609270000000  0.4464930000000 1.0
C      1  0.5423090000000  0.4434370000000  0.5434680000000 1.0
C      1  0.4968560000000  0.4687340000000  0.4678360000000 1.0
C      1  0.5150580000000  0.4777740000000  0.5207250000000 1.0
C      1  0.5470490000000  0.4688910000000  0.4162210000000 1.0
C      1  0.4884840000000  0.4781060000000  0.4136890000000 1.0
C      1  0.5240190000000  0.5197710000000  0.4753040000000 1.0
C      1  0.5003470000000  0.5185660000000  0.4926740000000 1.0
C      1  0.5455030000000  0.4244640000000  0.4660780000000 1.0
C      1  0.5146220000000  0.4354810000000  0.5477580000000 1.0
C      1  0.4967470000000  0.4616830000000  0.5424090000000 1.0
C      1  0.4703420000000  0.4920900000000  0.5215060000000 1.0
C      1  0.5568680000000  0.4486620000000  0.4758750000000 1.0
C      1  0.4514260000000  0.4424950000000  0.4857860000000 1.0
C      1  0.4558580000000  0.5645070000000  0.5267760000000 1.0
C      1  0.5428690000000  0.5091710000000  0.5574460000000 1.0
C      1  0.4511620000000  0.5090020000000  0.4411750000000 1.0
C      1  0.5062260000000  0.4819490000000  0.5664610000000 1.0
C      1  0.5428460000000  0.4983720000000  0.4800750000000 1.0
C      1  0.5068290000000  0.4295750000000  0.4991570000000 1.0
C      1  0.4930600000000  0.4868680000000  0.4963890000000 1.0
END
