TITL C-2778430-5657-16 -0.00031008742092834 125000 -770.272264369812 0 0 134 (C1) n - 1
REM
REM in /home/nfs/bkarasulu/CARBON/AIRSS/Generating-Clusters/REBO/Only-C1/SD-CG/HFTN-CG
REM
REM
REM
REM
REM
REM ./C.cell (11c1c37f851c82e70ff6c80c92926a4b)
REM
REM compiler GCC version 9.2.1 20190827 (Red Hat 9.2.1-1)
REM options -cpp -mtune=generic -march=x86-64 -g -O0 -fpre-include=/usr/include/finclude/math-vector-fortran.h
REM seed -317608158 -976405349 -22563215 779360713 -1381526884 -1294515609 -1385547380 -1702062768 1547330118 -946798256 1177254644 -1265850926 -1762170686 1691982767 1848867814 1480624354 1765190909 510239571 -578055418 953855982 254837348 -254911323 -1644466386 -1025544170 1976117203 -44824493 -1919223080 -612220558 -848327137 347275180 -836311273 1530845993 1871289608
REM
CELL 1.54180   50.00000   50.00000   50.00000   90.00000   90.00000   90.00000
LATT -1
SFAC C  
C      1  0.5686230000000  0.4666180000000  0.5067200000000 1.0
C      1  0.5976220000000  0.5215020000000  0.4930130000000 1.0
C      1  0.5079060000000  0.4942240000000  0.4058210000000 1.0
C      1  0.5816310000000  0.5292200000000  0.5400720000000 1.0
C      1  0.5190900000000  0.4125110000000  0.4490860000000 1.0
C      1  0.5370860000000  0.4211260000000  0.4746710000000 1.0
C      1  0.5503170000000  0.4767400000000  0.4340700000000 1.0
C      1  0.4304340000000  0.4410180000000  0.4970660000000 1.0
C      1  0.5548610000000  0.5318260000000  0.4207240000000 1.0
C      1  0.4928350000000  0.4570170000000  0.5089330000000 1.0
C      1  0.5143630000000  0.5123580000000  0.4416960000000 1.0
C      1  0.5356920000000  0.4620810000000  0.4686790000000 1.0
C      1  0.4070560000000  0.5103380000000  0.5005950000000 1.0
C      1  0.4900920000000  0.5872700000000  0.5234920000000 1.0
C      1  0.5933920000000  0.4741200000000  0.4556090000000 1.0
C      1  0.4456870000000  0.5075880000000  0.5595740000000 1.0
C      1  0.4549000000000  0.4951910000000  0.4313440000000 1.0
C      1  0.5296280000000  0.4446640000000  0.4435490000000 1.0
C      1  0.4756350000000  0.4062040000000  0.5308680000000 1.0
C      1  0.5068160000000  0.5692020000000  0.6067920000000 1.0
C      1  0.4756820000000  0.5439620000000  0.4978430000000 1.0
C      1  0.4192780000000  0.5203360000000  0.5472980000000 1.0
C      1  0.4936430000000  0.4230010000000  0.5456730000000 1.0
C      1  0.5527160000000  0.5565870000000  0.5365670000000 1.0
C      1  0.4216390000000  0.4682260000000  0.4487540000000 1.0
C      1  0.4873440000000  0.5612280000000  0.5854020000000 1.0
C      1  0.5226970000000  0.4663810000000  0.4187020000000 1.0
C      1  0.4770540000000  0.4319950000000  0.4821840000000 1.0
C      1  0.5679720000000  0.5699580000000  0.4839820000000 1.0
C      1  0.5313310000000  0.5433200000000  0.5560510000000 1.0
C      1  0.5320580000000  0.5796450000000  0.5952720000000 1.0
C      1  0.4591810000000  0.4641330000000  0.5289300000000 1.0
C      1  0.5718180000000  0.4338370000000  0.5129380000000 1.0
C      1  0.4559430000000  0.5691160000000  0.4858620000000 1.0
C      1  0.4664720000000  0.5063780000000  0.4605150000000 1.0
C      1  0.5224940000000  0.4605310000000  0.5558130000000 1.0
C      1  0.4863830000000  0.4048720000000  0.4546290000000 1.0
C      1  0.4744980000000  0.5419020000000  0.5376840000000 1.0
C      1  0.5125670000000  0.5376210000000  0.4211100000000 1.0
C      1  0.5212760000000  0.5483690000000  0.4736250000000 1.0
C      1  0.4508660000000  0.5613730000000  0.5488820000000 1.0
C      1  0.4707790000000  0.5609080000000  0.4238780000000 1.0
C      1  0.4661820000000  0.5112590000000  0.5330970000000 1.0
C      1  0.5896100000000  0.5026140000000  0.4663710000000 1.0
C      1  0.4235170000000  0.5592150000000  0.4814480000000 1.0
C      1  0.5169880000000  0.5087260000000  0.5969240000000 1.0
C      1  0.4529420000000  0.4838580000000  0.4796540000000 1.0
C      1  0.5328950000000  0.5839210000000  0.4967640000000 1.0
C      1  0.4948780000000  0.5805970000000  0.4376480000000 1.0
C      1  0.4189930000000  0.4560710000000  0.4768420000000 1.0
C      1  0.5708420000000  0.4590970000000  0.4455780000000 1.0
C      1  0.4594580000000  0.4627770000000  0.4315080000000 1.0
C      1  0.5296260000000  0.5095390000000  0.4778220000000 1.0
C      1  0.5448330000000  0.5040550000000  0.4476440000000 1.0
C      1  0.5453360000000  0.5853210000000  0.4662210000000 1.0
C      1  0.5196120000000  0.5604100000000  0.4429260000000 1.0
C      1  0.5479730000000  0.5422000000000  0.4642780000000 1.0
C      1  0.4695650000000  0.4322220000000  0.4429770000000 1.0
C      1  0.4967920000000  0.4917280000000  0.4617760000000 1.0
C      1  0.5715770000000  0.4508790000000  0.5428920000000 1.0
C      1  0.5015140000000  0.5251530000000  0.4889950000000 1.0
C      1  0.4362110000000  0.3949540000000  0.4909550000000 1.0
C      1  0.4952460000000  0.4950000000000  0.5557720000000 1.0
C      1  0.4445170000000  0.4799120000000  0.5717610000000 1.0
C      1  0.4551460000000  0.5268070000000  0.5822600000000 1.0
C      1  0.4886660000000  0.4684400000000  0.4149400000000 1.0
C      1  0.4466640000000  0.4365060000000  0.5546210000000 1.0
C      1  0.5100580000000  0.4335040000000  0.4910170000000 1.0
C      1  0.5185430000000  0.4759050000000  0.5924510000000 1.0
C      1  0.4776600000000  0.5087860000000  0.4116250000000 1.0
C      1  0.5343670000000  0.4697290000000  0.5082700000000 1.0
C      1  0.5645840000000  0.4358060000000  0.4604970000000 1.0
C      1  0.5677660000000  0.4188620000000  0.4878190000000 1.0
C      1  0.4605230000000  0.4566100000000  0.4651310000000 1.0
C      1  0.5326490000000  0.5156170000000  0.4064970000000 1.0
C      1  0.4478000000000  0.5337800000000  0.4639520000000 1.0
C      1  0.4843270000000  0.5559770000000  0.4610250000000 1.0
C      1  0.4832450000000  0.5379210000000  0.4127540000000 1.0
C      1  0.4049740000000  0.5038590000000  0.5284820000000 1.0
C      1  0.4599970000000  0.4474140000000  0.5039230000000 1.0
C      1  0.4772770000000  0.4449860000000  0.5606420000000 1.0
C      1  0.4299160000000  0.4149540000000  0.5106930000000 1.0
C      1  0.4638310000000  0.5517040000000  0.5756190000000 1.0
C      1  0.4880850000000  0.5304830000000  0.4518070000000 1.0
C      1  0.4498650000000  0.5547420000000  0.4408810000000 1.0
C      1  0.4963390000000  0.5132720000000  0.5205130000000 1.0
C      1  0.5034300000000  0.4022450000000  0.4841450000000 1.0
C      1  0.5968330000000  0.5070880000000  0.5238420000000 1.0
C      1  0.5191110000000  0.4335380000000  0.5433200000000 1.0
C      1  0.5428250000000  0.4433650000000  0.5261120000000 1.0
C      1  0.5609620000000  0.5094710000000  0.4838290000000 1.0
C      1  0.5425120000000  0.5223250000000  0.5804510000000 1.0
C      1  0.4468780000000  0.5320210000000  0.4976140000000 1.0
C      1  0.4197020000000  0.4887750000000  0.4823230000000 1.0
C      1  0.5056390000000  0.5906360000000  0.5478790000000 1.0
C      1  0.4797710000000  0.5873970000000  0.4732130000000 1.0
C      1  0.4473740000000  0.4151350000000  0.5347540000000 1.0
C      1  0.5584380000000  0.5691200000000  0.5135330000000 1.0
C      1  0.4218090000000  0.5482040000000  0.5429130000000 1.0
C      1  0.5646330000000  0.4805800000000  0.5579670000000 1.0
C      1  0.5099490000000  0.4725870000000  0.4840130000000 1.0
C      1  0.4834770000000  0.3940490000000  0.5064920000000 1.0
C      1  0.4951830000000  0.5561610000000  0.5191780000000 1.0
C      1  0.5196580000000  0.5144840000000  0.5450950000000 1.0
C      1  0.4663190000000  0.4721120000000  0.5878230000000 1.0
C      1  0.5735020000000  0.5207050000000  0.4443000000000 1.0
C      1  0.5842530000000  0.4807400000000  0.5307500000000 1.0
C      1  0.5220310000000  0.5543440000000  0.5065980000000 1.0
C      1  0.5688290000000  0.5316980000000  0.5633710000000 1.0
C      1  0.4946800000000  0.4623190000000  0.5844750000000 1.0
C      1  0.4600540000000  0.5751700000000  0.5193280000000 1.0
C      1  0.5605980000000  0.4776920000000  0.4792690000000 1.0
C      1  0.5250850000000  0.4997240000000  0.5086920000000 1.0
C      1  0.4874000000000  0.4703190000000  0.5400150000000 1.0
C      1  0.4388040000000  0.4828750000000  0.5269970000000 1.0
C      1  0.5382550000000  0.5289610000000  0.5116170000000 1.0
C      1  0.4315070000000  0.5567680000000  0.5144120000000 1.0
C      1  0.5335290000000  0.4851820000000  0.5497760000000 1.0
C      1  0.4954920000000  0.4643540000000  0.4477220000000 1.0
C      1  0.4477320000000  0.5035360000000  0.5065500000000 1.0
C      1  0.4295840000000  0.4596190000000  0.5580410000000 1.0
C      1  0.5688490000000  0.5305620000000  0.5093010000000 1.0
C      1  0.5124110000000  0.5935410000000  0.4639350000000 1.0
C      1  0.4910710000000  0.5029250000000  0.5819760000000 1.0
C      1  0.4164350000000  0.5270350000000  0.4723150000000 1.0
C      1  0.5023510000000  0.5964100000000  0.4965930000000 1.0
C      1  0.5000770000000  0.4344050000000  0.4320730000000 1.0
C      1  0.5484690000000  0.4892840000000  0.5858880000000 1.0
C      1  0.5153950000000  0.5678360000000  0.5678630000000 1.0
C      1  0.4105580000000  0.4737960000000  0.5366740000000 1.0
C      1  0.4278060000000  0.5017800000000  0.4513820000000 1.0
C      1  0.5809530000000  0.5413410000000  0.4707870000000 1.0
C      1  0.5466820000000  0.5578250000000  0.4260120000000 1.0
C      1  0.4643600000000  0.4002910000000  0.4795520000000 1.0
END
