TITL C-2778436-5916-1423 -0.112806300565469 125000 -166.571664313919 0 0 31 (C1) n - 1
REM
REM in /home/nfs/bkarasulu/CARBON/AIRSS/Generating-Clusters/REBO/Only-C1/SD-CG/HFTN-CG
REM
REM
REM
REM
REM
REM ./C.cell (11c1c37f851c82e70ff6c80c92926a4b)
REM
REM compiler GCC version 9.2.1 20190827 (Red Hat 9.2.1-1)
REM options -cpp -mtune=generic -march=x86-64 -g -O0 -fpre-include=/usr/include/finclude/math-vector-fortran.h
REM seed 266545041 -1523698910 378592456 154521424 182077058 1757874758 -1770980367 -1289979880 -426497483 -1430805202 1457335386 1178260626 -1031126452 -1309963099 807664226 599153847 265094365 -373217139 -1421109922 1212216832 233506626 1079717377 -1501764985 1812169340 -398635944 -470588942 -1418898037 -1938889387 -1064000828 1469029687 -77766145 1267300469 1995143839
REM
CELL 1.54180   50.00000   50.00000   50.00000   90.00000   90.00000   90.00000
LATT -1
SFAC C  
C      1  0.5077940000000  0.5032250000000  0.5432390000000 1.0
C      1  0.4538270000000  0.5352100000000  0.4786160000000 1.0
C      1  0.5491510000000  0.5540780000000  0.5194030000000 1.0
C      1  0.4373040000000  0.5118780000000  0.4778460000000 1.0
C      1  0.5459900000000  0.4647070000000  0.4809270000000 1.0
C      1  0.5097450000000  0.5263090000000  0.4926670000000 1.0
C      1  0.5597530000000  0.4473140000000  0.4651310000000 1.0
C      1  0.4545810000000  0.5179940000000  0.5243300000000 1.0
C      1  0.5579700000000  0.5118330000000  0.4878350000000 1.0
C      1  0.5515160000000  0.4854790000000  0.5253510000000 1.0
C      1  0.4900110000000  0.5457520000000  0.5071310000000 1.0
C      1  0.4776980000000  0.4463370000000  0.5231020000000 1.0
C      1  0.4778310000000  0.5147510000000  0.5465500000000 1.0
C      1  0.4632500000000  0.5397370000000  0.5053670000000 1.0
C      1  0.4702440000000  0.4717480000000  0.4635730000000 1.0
C      1  0.5467920000000  0.5366250000000  0.5410490000000 1.0
C      1  0.5018520000000  0.4441510000000  0.5014600000000 1.0
C      1  0.5002150000000  0.5262750000000  0.4625670000000 1.0
C      1  0.4390500000000  0.4936400000000  0.5062930000000 1.0
C      1  0.5380520000000  0.5289790000000  0.5028360000000 1.0
C      1  0.5163960000000  0.4651430000000  0.4817990000000 1.0
C      1  0.5054020000000  0.5017830000000  0.4493000000000 1.0
C      1  0.5343000000000  0.5093340000000  0.5338340000000 1.0
C      1  0.5584070000000  0.4846980000000  0.4973700000000 1.0
C      1  0.5022030000000  0.4956300000000  0.4961300000000 1.0
C      1  0.4478080000000  0.4819190000000  0.4759000000000 1.0
C      1  0.4977490000000  0.4769950000000  0.4606140000000 1.0
C      1  0.4576530000000  0.4843850000000  0.5319110000000 1.0
C      1  0.4897140000000  0.4737790000000  0.5101950000000 1.0
C      1  0.4832400000000  0.4818410000000  0.5488030000000 1.0
C      1  0.4745020000000  0.5384690000000  0.4588710000000 1.0
END
