TITL C-2778425-5191-539 0.000944164887651703 125000 -158.959415622158 0 0 27 (C1) n - 1
REM
REM in /home/nfs/bkarasulu/CARBON/AIRSS/Generating-Clusters/REBO/Only-C1/SD-CG/HFTN-CG
REM
REM
REM
REM
REM
REM ./C.cell (11c1c37f851c82e70ff6c80c92926a4b)
REM
REM compiler GCC version 9.2.1 20190827 (Red Hat 9.2.1-1)
REM options -cpp -mtune=generic -march=x86-64 -g -O0 -fpre-include=/usr/include/finclude/math-vector-fortran.h
REM seed -690503657 1773683613 -801490238 -1124394337 1504770929 218971866 1260306193 343917336 1410018443 485371224 757244975 1641139232 -647124359 -2049527811 -305745760 -1215969202 246839936 -1142142868 -1933130359 878083560 -890641581 -1108220107 -48117687 451711984 -1471937645 -905455376 -1424410972 -417614611 -308185055 -665360852 -278625927 1306670140 1926593718
REM
CELL 1.54180   50.00000   50.00000   50.00000   90.00000   90.00000   90.00000
LATT -1
SFAC C  
C      1  0.4955240000000  0.5416020000000  0.4469650000000 1.0
C      1  0.4898960000000  0.4813600000000  0.4537900000000 1.0
C      1  0.4408360000000  0.4661450000000  0.5064000000000 1.0
C      1  0.5225160000000  0.5369790000000  0.4463900000000 1.0
C      1  0.5439190000000  0.4728040000000  0.5162680000000 1.0
C      1  0.5313740000000  0.4642640000000  0.4794340000000 1.0
C      1  0.4826650000000  0.4835710000000  0.5379820000000 1.0
C      1  0.5371840000000  0.5252370000000  0.4675610000000 1.0
C      1  0.4860030000000  0.5426460000000  0.5204780000000 1.0
C      1  0.5591530000000  0.4804760000000  0.4907260000000 1.0
C      1  0.5320810000000  0.5364030000000  0.4928560000000 1.0
C      1  0.4785090000000  0.5593110000000  0.5406560000000 1.0
C      1  0.5422140000000  0.4962140000000  0.4663500000000 1.0
C      1  0.5118890000000  0.5430540000000  0.5094510000000 1.0
C      1  0.5158440000000  0.4628650000000  0.5077050000000 1.0
C      1  0.4752040000000  0.5339490000000  0.4633200000000 1.0
C      1  0.4363200000000  0.4864750000000  0.5248640000000 1.0
C      1  0.4674170000000  0.4665990000000  0.4952060000000 1.0
C      1  0.5283430000000  0.4850400000000  0.5619930000000 1.0
C      1  0.5165700000000  0.4784220000000  0.4544380000000 1.0
C      1  0.4682420000000  0.5216220000000  0.5112680000000 1.0
C      1  0.5013640000000  0.4866760000000  0.5587020000000 1.0
C      1  0.4684750000000  0.5146300000000  0.4828980000000 1.0
C      1  0.5475380000000  0.4789730000000  0.5434880000000 1.0
C      1  0.4891770000000  0.4663930000000  0.5151550000000 1.0
C      1  0.4602210000000  0.5013780000000  0.5309740000000 1.0
C      1  0.4715250000000  0.4869110000000  0.4746820000000 1.0
END
