TITL C-2778423-5760-1270 -0.0025634646782275 125000 -724.896574239828 0 0 124 (C1) n - 1
REM
REM in /home/nfs/bkarasulu/CARBON/AIRSS/Generating-Clusters/REBO/Only-C1/SD-CG/HFTN-CG
REM
REM
REM
REM
REM
REM ./C.cell (11c1c37f851c82e70ff6c80c92926a4b)
REM
REM compiler GCC version 9.2.1 20190827 (Red Hat 9.2.1-1)
REM options -cpp -mtune=generic -march=x86-64 -g -O0 -fpre-include=/usr/include/finclude/math-vector-fortran.h
REM seed 387653790 1675052770 243839710 -1859632228 737638660 415133491 769949679 289137830 -239637554 -166101355 1756895357 1685632335 -475091990 2078021060 -1363817522 -621962965 -907901911 -1174973153 856216291 -1826180976 -1816574954 -1796842146 -1695530002 -410375681 -1021263846 -134225857 1490934634 2015702021 -914308964 1674422377 -1368274684 550224617 593770090
REM
CELL 1.54180   50.00000   50.00000   50.00000   90.00000   90.00000   90.00000
LATT -1
SFAC C  
C      1  0.5058140000000  0.4173280000000  0.5433790000000 1.0
C      1  0.5005930000000  0.5872850000000  0.4832260000000 1.0
C      1  0.5148220000000  0.5540980000000  0.4187140000000 1.0
C      1  0.4698420000000  0.5270130000000  0.4067630000000 1.0
C      1  0.5297150000000  0.5534610000000  0.5060080000000 1.0
C      1  0.4503720000000  0.4144360000000  0.4690100000000 1.0
C      1  0.5246830000000  0.4783760000000  0.4354730000000 1.0
C      1  0.5136830000000  0.5436480000000  0.6001200000000 1.0
C      1  0.5271260000000  0.5736860000000  0.5260440000000 1.0
C      1  0.4290980000000  0.4652280000000  0.5061120000000 1.0
C      1  0.5068700000000  0.4684260000000  0.5054510000000 1.0
C      1  0.5587620000000  0.5205300000000  0.5772510000000 1.0
C      1  0.5105680000000  0.4381310000000  0.5098000000000 1.0
C      1  0.5613270000000  0.4576490000000  0.4669630000000 1.0
C      1  0.4738200000000  0.4717350000000  0.5715840000000 1.0
C      1  0.5617200000000  0.4832190000000  0.5024960000000 1.0
C      1  0.5439230000000  0.5157270000000  0.4706910000000 1.0
C      1  0.5923150000000  0.4805840000000  0.5134360000000 1.0
C      1  0.4322350000000  0.4578780000000  0.4669910000000 1.0
C      1  0.5336820000000  0.4497530000000  0.4496640000000 1.0
C      1  0.4332080000000  0.4350860000000  0.5120260000000 1.0
C      1  0.5768460000000  0.4838470000000  0.4615850000000 1.0
C      1  0.5488320000000  0.5347730000000  0.5121990000000 1.0
C      1  0.4919270000000  0.5223610000000  0.4555630000000 1.0
C      1  0.5658950000000  0.4286330000000  0.4796840000000 1.0
C      1  0.4989810000000  0.5177890000000  0.4226140000000 1.0
C      1  0.5644350000000  0.5100210000000  0.5393420000000 1.0
C      1  0.4572170000000  0.4271330000000  0.4410440000000 1.0
C      1  0.4339100000000  0.5658140000000  0.5253340000000 1.0
C      1  0.4502870000000  0.4207190000000  0.5309520000000 1.0
C      1  0.4888820000000  0.4629900000000  0.4022020000000 1.0
C      1  0.4622400000000  0.5096470000000  0.4565880000000 1.0
C      1  0.5303160000000  0.5245190000000  0.4147870000000 1.0
C      1  0.4796170000000  0.4758640000000  0.4878130000000 1.0
C      1  0.5828110000000  0.5520760000000  0.5006310000000 1.0
C      1  0.4712380000000  0.4127470000000  0.4884470000000 1.0
C      1  0.5538590000000  0.5464730000000  0.4199370000000 1.0
C      1  0.5233540000000  0.4855150000000  0.5748080000000 1.0
C      1  0.5497390000000  0.4717380000000  0.5745190000000 1.0
C      1  0.3928420000000  0.5072880000000  0.5185370000000 1.0
C      1  0.4768940000000  0.4168460000000  0.5389860000000 1.0
C      1  0.5939640000000  0.4939790000000  0.4817360000000 1.0
C      1  0.4473350000000  0.5228680000000  0.5092880000000 1.0
C      1  0.3952950000000  0.5343940000000  0.5168040000000 1.0
C      1  0.5631300000000  0.5710900000000  0.4930700000000 1.0
C      1  0.4626710000000  0.5849690000000  0.4307300000000 1.0
C      1  0.5356080000000  0.4676950000000  0.4870910000000 1.0
C      1  0.4241910000000  0.5275440000000  0.4409890000000 1.0
C      1  0.4611740000000  0.4817190000000  0.4462780000000 1.0
C      1  0.4423320000000  0.5167730000000  0.5840940000000 1.0
C      1  0.5553540000000  0.5133900000000  0.4964720000000 1.0
C      1  0.4207620000000  0.5279200000000  0.4683690000000 1.0
C      1  0.5477400000000  0.4456540000000  0.5613280000000 1.0
C      1  0.4715890000000  0.4871130000000  0.5186650000000 1.0
C      1  0.4957480000000  0.5518710000000  0.4445540000000 1.0
C      1  0.4553980000000  0.5766410000000  0.5092340000000 1.0
C      1  0.5434050000000  0.4993550000000  0.4264880000000 1.0
C      1  0.4311050000000  0.4327020000000  0.4811390000000 1.0
C      1  0.5145640000000  0.5575200000000  0.4778860000000 1.0
C      1  0.5180940000000  0.5317390000000  0.5375050000000 1.0
C      1  0.4851510000000  0.5117140000000  0.5043890000000 1.0
C      1  0.4906450000000  0.5493860000000  0.5353820000000 1.0
C      1  0.4719500000000  0.4402010000000  0.5037250000000 1.0
C      1  0.5545660000000  0.5539220000000  0.5708560000000 1.0
C      1  0.4837420000000  0.5004400000000  0.5456010000000 1.0
C      1  0.5593840000000  0.5038780000000  0.4498520000000 1.0
C      1  0.4129960000000  0.4849080000000  0.5185070000000 1.0
C      1  0.5182990000000  0.4828190000000  0.4660910000000 1.0
C      1  0.4936720000000  0.4987350000000  0.5776450000000 1.0
C      1  0.5145180000000  0.4514490000000  0.4213550000000 1.0
C      1  0.4963520000000  0.5291720000000  0.5865210000000 1.0
C      1  0.5554660000000  0.5610350000000  0.4398680000000 1.0
C      1  0.4823570000000  0.5777910000000  0.5208110000000 1.0
C      1  0.5732790000000  0.4921610000000  0.5647710000000 1.0
C      1  0.4812760000000  0.4960870000000  0.4033370000000 1.0
C      1  0.4914650000000  0.4462050000000  0.4762260000000 1.0
C      1  0.5279160000000  0.5156790000000  0.5658790000000 1.0
C      1  0.4506400000000  0.5675220000000  0.4765800000000 1.0
C      1  0.4741980000000  0.5408260000000  0.5082400000000 1.0
C      1  0.4402240000000  0.4561800000000  0.4354470000000 1.0
C      1  0.4765080000000  0.4531080000000  0.4512540000000 1.0
C      1  0.4511800000000  0.5357930000000  0.5663950000000 1.0
C      1  0.5343680000000  0.5898520000000  0.4903820000000 1.0
C      1  0.4591080000000  0.4740160000000  0.4139570000000 1.0
C      1  0.4545310000000  0.5342770000000  0.4342790000000 1.0
C      1  0.5852090000000  0.4694610000000  0.5423650000000 1.0
C      1  0.5010870000000  0.4083700000000  0.4962440000000 1.0
C      1  0.5441550000000  0.5675410000000  0.4664820000000 1.0
C      1  0.4379860000000  0.5552820000000  0.5512220000000 1.0
C      1  0.5370860000000  0.4974370000000  0.5301930000000 1.0
C      1  0.5400540000000  0.5761050000000  0.5499300000000 1.0
C      1  0.5086340000000  0.4819870000000  0.5326290000000 1.0
C      1  0.4313470000000  0.5105980000000  0.5286950000000 1.0
C      1  0.5996860000000  0.5258130000000  0.4873620000000 1.0
C      1  0.6074630000000  0.5092430000000  0.5153020000000 1.0
C      1  0.5410740000000  0.4198770000000  0.4931450000000 1.0
C      1  0.4846720000000  0.4369880000000  0.4235080000000 1.0
C      1  0.5167700000000  0.4012640000000  0.4676830000000 1.0
C      1  0.5510430000000  0.5385320000000  0.5430150000000 1.0
C      1  0.4575740000000  0.5636760000000  0.4455690000000 1.0
C      1  0.4423320000000  0.5104600000000  0.4817940000000 1.0
C      1  0.4641160000000  0.4575380000000  0.5238360000000 1.0
C      1  0.4136050000000  0.5542180000000  0.5086080000000 1.0
C      1  0.4252860000000  0.4657540000000  0.5568860000000 1.0
C      1  0.5383290000000  0.5546920000000  0.5981870000000 1.0
C      1  0.5451040000000  0.4648840000000  0.5256390000000 1.0
C      1  0.4798810000000  0.5307190000000  0.5583190000000 1.0
C      1  0.5188320000000  0.4335030000000  0.4709850000000 1.0
C      1  0.5398080000000  0.4352760000000  0.5235220000000 1.0
C      1  0.4224660000000  0.5533160000000  0.4815240000000 1.0
C      1  0.5864080000000  0.5295600000000  0.5244470000000 1.0
C      1  0.5032460000000  0.4644550000000  0.5598860000000 1.0
C      1  0.5191240000000  0.4381020000000  0.5575570000000 1.0
C      1  0.5120960000000  0.5120350000000  0.4749900000000 1.0
C      1  0.5093840000000  0.5965710000000  0.5133590000000 1.0
C      1  0.4812920000000  0.5594130000000  0.4844070000000 1.0
C      1  0.4234650000000  0.4978070000000  0.5546900000000 1.0
C      1  0.5726710000000  0.4445000000000  0.5461460000000 1.0
C      1  0.5155540000000  0.5132320000000  0.5089480000000 1.0
C      1  0.4448280000000  0.4846210000000  0.5778560000000 1.0
C      1  0.5255730000000  0.4039900000000  0.5195650000000 1.0
C      1  0.4480150000000  0.4796810000000  0.4839570000000 1.0
C      1  0.4537530000000  0.4565450000000  0.5508260000000 1.0
C      1  0.4834440000000  0.5547860000000  0.4148850000000 1.0
END
