TITL C-2778431-5191-1345 -0.000105425531915082 125000 -1099.75811345079 0 0 188 (C1) n - 1
REM
REM in /home/nfs/bkarasulu/CARBON/AIRSS/Generating-Clusters/REBO/Only-C1/SD-CG/HFTN-CG
REM
REM
REM
REM
REM
REM ./C.cell (11c1c37f851c82e70ff6c80c92926a4b)
REM
REM compiler GCC version 9.2.1 20190827 (Red Hat 9.2.1-1)
REM options -cpp -mtune=generic -march=x86-64 -g -O0 -fpre-include=/usr/include/finclude/math-vector-fortran.h
REM seed 1739750302 -1992418099 36544818 -1202798456 1793178986 -1270139674 -1773273371 1030890591 -1191487522 -1621647337 1058168873 173172779 -815903606 -1515288230 -2014867756 -890407327 1696156314 1228205668 1194029481 -1378540192 -1570553983 1109196498 -2100478264 1908980616 -825648334 1509237096 1377739871 -2103952691 351051271 1751653079 1461825424 1754091143 195657364
REM
CELL 1.54180   50.00000   50.00000   50.00000   90.00000   90.00000   90.00000
LATT -1
SFAC C  
C      1  0.4900040000000  0.5113340000000  0.5654750000000 1.0
C      1  0.5931490000000  0.4924730000000  0.4599470000000 1.0
C      1  0.5769420000000  0.5636390000000  0.4382120000000 1.0
C      1  0.5669050000000  0.5564600000000  0.5099400000000 1.0
C      1  0.5770710000000  0.4071480000000  0.4949560000000 1.0
C      1  0.4836120000000  0.4789950000000  0.5203440000000 1.0
C      1  0.6008260000000  0.5573840000000  0.4892430000000 1.0
C      1  0.5286180000000  0.4042470000000  0.4336370000000 1.0
C      1  0.4583330000000  0.5164540000000  0.4086870000000 1.0
C      1  0.5339940000000  0.5552120000000  0.5182040000000 1.0
C      1  0.4676440000000  0.5930820000000  0.5357000000000 1.0
C      1  0.5584150000000  0.4916590000000  0.4095580000000 1.0
C      1  0.5891360000000  0.4668790000000  0.4482300000000 1.0
C      1  0.4246160000000  0.5400820000000  0.4712010000000 1.0
C      1  0.4824490000000  0.4218020000000  0.4210530000000 1.0
C      1  0.5490490000000  0.4782130000000  0.4817890000000 1.0
C      1  0.4051030000000  0.4491760000000  0.5202270000000 1.0
C      1  0.4746130000000  0.5351630000000  0.6059250000000 1.0
C      1  0.4855330000000  0.4514420000000  0.5017560000000 1.0
C      1  0.5147130000000  0.4256840000000  0.4110060000000 1.0
C      1  0.5648160000000  0.5122080000000  0.4326050000000 1.0
C      1  0.4665600000000  0.4766630000000  0.4772930000000 1.0
C      1  0.5402860000000  0.4170120000000  0.5678090000000 1.0
C      1  0.4448590000000  0.5683460000000  0.5411990000000 1.0
C      1  0.5131370000000  0.4087440000000  0.5522980000000 1.0
C      1  0.4761680000000  0.5044660000000  0.6022450000000 1.0
C      1  0.4732500000000  0.4050500000000  0.4561750000000 1.0
C      1  0.5863330000000  0.4691830000000  0.5731970000000 1.0
C      1  0.5626740000000  0.4613360000000  0.4352440000000 1.0
C      1  0.6090660000000  0.5497460000000  0.5159510000000 1.0
C      1  0.4975100000000  0.4636950000000  0.4454170000000 1.0
C      1  0.5114280000000  0.5358950000000  0.5561750000000 1.0
C      1  0.4263640000000  0.5101320000000  0.4763170000000 1.0
C      1  0.5531730000000  0.5429880000000  0.4330370000000 1.0
C      1  0.4086270000000  0.5018600000000  0.5419280000000 1.0
C      1  0.4756860000000  0.6078540000000  0.4655420000000 1.0
C      1  0.5532080000000  0.4926930000000  0.6061420000000 1.0
C      1  0.4077620000000  0.4630870000000  0.5679930000000 1.0
C      1  0.4870410000000  0.5779690000000  0.4889730000000 1.0
C      1  0.5334080000000  0.4786160000000  0.5838100000000 1.0
C      1  0.4419570000000  0.4315990000000  0.4770190000000 1.0
C      1  0.4825760000000  0.4267390000000  0.5915370000000 1.0
C      1  0.4688050000000  0.5628930000000  0.5097080000000 1.0
C      1  0.4885020000000  0.5721480000000  0.4298490000000 1.0
C      1  0.4307650000000  0.5879640000000  0.4859760000000 1.0
C      1  0.4592180000000  0.5128120000000  0.5507250000000 1.0
C      1  0.4511330000000  0.4940240000000  0.5829260000000 1.0
C      1  0.3878830000000  0.5277290000000  0.4987510000000 1.0
C      1  0.4567250000000  0.4952920000000  0.5241610000000 1.0
C      1  0.4872450000000  0.5411220000000  0.4742680000000 1.0
C      1  0.5098960000000  0.4983370000000  0.4193660000000 1.0
C      1  0.4946490000000  0.5044520000000  0.3904270000000 1.0
C      1  0.4887370000000  0.5320870000000  0.3879910000000 1.0
C      1  0.6071150000000  0.5044100000000  0.5301690000000 1.0
C      1  0.4581580000000  0.4714000000000  0.5578600000000 1.0
C      1  0.5344640000000  0.4774380000000  0.4119860000000 1.0
C      1  0.3906330000000  0.5001980000000  0.4907950000000 1.0
C      1  0.4872730000000  0.5203360000000  0.4261790000000 1.0
C      1  0.5501960000000  0.4341010000000  0.4490220000000 1.0
C      1  0.5833290000000  0.4265380000000  0.5202860000000 1.0
C      1  0.5459850000000  0.4061120000000  0.4820150000000 1.0
C      1  0.5212420000000  0.5617260000000  0.5985940000000 1.0
C      1  0.5465960000000  0.3943890000000  0.4521750000000 1.0
C      1  0.5545480000000  0.4444950000000  0.5208230000000 1.0
C      1  0.4032450000000  0.4827850000000  0.5148020000000 1.0
C      1  0.5498380000000  0.5851720000000  0.5553130000000 1.0
C      1  0.5773190000000  0.5777720000000  0.4856360000000 1.0
C      1  0.4991210000000  0.5997540000000  0.4457400000000 1.0
C      1  0.5202970000000  0.5148950000000  0.4977960000000 1.0
C      1  0.4590260000000  0.4654170000000  0.4099170000000 1.0
C      1  0.3903800000000  0.5270940000000  0.5290640000000 1.0
C      1  0.5855320000000  0.5520130000000  0.5380960000000 1.0
C      1  0.3954800000000  0.4928220000000  0.3943720000000 1.0
C      1  0.4322160000000  0.5803270000000  0.4583670000000 1.0
C      1  0.4911360000000  0.3900490000000  0.5388830000000 1.0
C      1  0.5031150000000  0.5622590000000  0.5632090000000 1.0
C      1  0.5390950000000  0.5397170000000  0.5945290000000 1.0
C      1  0.6072740000000  0.4439620000000  0.5210930000000 1.0
C      1  0.5606130000000  0.5256390000000  0.5215450000000 1.0
C      1  0.4144730000000  0.5762540000000  0.5314710000000 1.0
C      1  0.4622180000000  0.4046300000000  0.5476900000000 1.0
C      1  0.5992210000000  0.5318910000000  0.4714590000000 1.0
C      1  0.4529140000000  0.5913790000000  0.5048330000000 1.0
C      1  0.4972940000000  0.5448590000000  0.4439230000000 1.0
C      1  0.5637720000000  0.4487630000000  0.4731800000000 1.0
C      1  0.5725950000000  0.5840450000000  0.4564940000000 1.0
C      1  0.5701850000000  0.5135850000000  0.4719170000000 1.0
C      1  0.5453780000000  0.4855460000000  0.5543510000000 1.0
C      1  0.5381410000000  0.4453810000000  0.4193130000000 1.0
C      1  0.4723290000000  0.5649010000000  0.5682800000000 1.0
C      1  0.4873490000000  0.4567460000000  0.5462990000000 1.0
C      1  0.4577000000000  0.4445590000000  0.5779850000000 1.0
C      1  0.6148310000000  0.4898220000000  0.4786840000000 1.0
C      1  0.4329610000000  0.5055470000000  0.4374270000000 1.0
C      1  0.4436430000000  0.5389900000000  0.5588460000000 1.0
C      1  0.4772040000000  0.5084480000000  0.4765970000000 1.0
C      1  0.4461320000000  0.4202560000000  0.5231790000000 1.0
C      1  0.4147740000000  0.5302920000000  0.5595770000000 1.0
C      1  0.4462820000000  0.4901760000000  0.4032970000000 1.0
C      1  0.5250670000000  0.6181780000000  0.4882760000000 1.0
C      1  0.5136110000000  0.5466780000000  0.4954340000000 1.0
C      1  0.5388460000000  0.5212430000000  0.4633270000000 1.0
C      1  0.5281100000000  0.5476400000000  0.4500190000000 1.0
C      1  0.4520270000000  0.5129330000000  0.4984750000000 1.0
C      1  0.4642550000000  0.4634140000000  0.4396950000000 1.0
C      1  0.5186140000000  0.4867930000000  0.4474090000000 1.0
C      1  0.4945270000000  0.3893760000000  0.4743240000000 1.0
C      1  0.5286460000000  0.4244220000000  0.5303710000000 1.0
C      1  0.4329280000000  0.4331680000000  0.4462260000000 1.0
C      1  0.4543430000000  0.4538910000000  0.4967300000000 1.0
C      1  0.4859290000000  0.4243790000000  0.5581730000000 1.0
C      1  0.5548330000000  0.5415750000000  0.5711460000000 1.0
C      1  0.4667790000000  0.4416190000000  0.3982260000000 1.0
C      1  0.5743370000000  0.4992620000000  0.5625740000000 1.0
C      1  0.5695280000000  0.4687670000000  0.5371810000000 1.0
C      1  0.4275310000000  0.4862910000000  0.5615470000000 1.0
C      1  0.4127560000000  0.4529240000000  0.4541930000000 1.0
C      1  0.5879130000000  0.5341130000000  0.4426840000000 1.0
C      1  0.5791150000000  0.4926660000000  0.5946990000000 1.0
C      1  0.4051150000000  0.4773010000000  0.4423540000000 1.0
C      1  0.4868570000000  0.5554050000000  0.4021260000000 1.0
C      1  0.4965190000000  0.5933590000000  0.5540660000000 1.0
C      1  0.4745970000000  0.4222650000000  0.5099600000000 1.0
C      1  0.5256070000000  0.6001160000000  0.4633720000000 1.0
C      1  0.5032710000000  0.4183290000000  0.4482930000000 1.0
C      1  0.5988920000000  0.4758170000000  0.5255400000000 1.0
C      1  0.4193200000000  0.5442480000000  0.5224090000000 1.0
C      1  0.4957330000000  0.4566970000000  0.5794730000000 1.0
C      1  0.4360740000000  0.4739560000000  0.5140200000000 1.0
C      1  0.4116300000000  0.4420170000000  0.5502090000000 1.0
C      1  0.5677260000000  0.4451290000000  0.5615840000000 1.0
C      1  0.4148490000000  0.4897960000000  0.4136990000000 1.0
C      1  0.4716770000000  0.4710870000000  0.5953510000000 1.0
C      1  0.5445300000000  0.5848640000000  0.5268190000000 1.0
C      1  0.4918130000000  0.5245490000000  0.5345880000000 1.0
C      1  0.5607990000000  0.5958440000000  0.5074930000000 1.0
C      1  0.5154040000000  0.4299350000000  0.5870920000000 1.0
C      1  0.5391380000000  0.5344770000000  0.5448270000000 1.0
C      1  0.4393260000000  0.4283650000000  0.5553490000000 1.0
C      1  0.4403100000000  0.5367790000000  0.4261190000000 1.0
C      1  0.4643040000000  0.5134170000000  0.4475280000000 1.0
C      1  0.5237260000000  0.5848030000000  0.5733660000000 1.0
C      1  0.4941580000000  0.4734230000000  0.3926300000000 1.0
C      1  0.4934650000000  0.6139520000000  0.5282540000000 1.0
C      1  0.5217360000000  0.4827950000000  0.5357060000000 1.0
C      1  0.4091010000000  0.5753090000000  0.4994990000000 1.0
C      1  0.5840700000000  0.5183160000000  0.5430950000000 1.0
C      1  0.4023260000000  0.5500670000000  0.4867200000000 1.0
C      1  0.5500950000000  0.4860750000000  0.4486410000000 1.0
C      1  0.5529170000000  0.6016130000000  0.4504950000000 1.0
C      1  0.4840330000000  0.6103480000000  0.4963800000000 1.0
C      1  0.5160730000000  0.4534290000000  0.5269780000000 1.0
C      1  0.5185080000000  0.6238200000000  0.5113360000000 1.0
C      1  0.4573760000000  0.5473510000000  0.5874000000000 1.0
C      1  0.5502930000000  0.4050880000000  0.5159280000000 1.0
C      1  0.4262710000000  0.4779980000000  0.4824910000000 1.0
C      1  0.4249610000000  0.4279150000000  0.5041850000000 1.0
C      1  0.5640860000000  0.4151030000000  0.5459520000000 1.0
C      1  0.4429380000000  0.4808930000000  0.4547220000000 1.0
C      1  0.5694250000000  0.5648300000000  0.5615740000000 1.0
C      1  0.5409000000000  0.4489900000000  0.5800830000000 1.0
C      1  0.4979640000000  0.4482750000000  0.4740410000000 1.0
C      1  0.4361270000000  0.5610740000000  0.4391920000000 1.0
C      1  0.5939320000000  0.4494320000000  0.4727740000000 1.0
C      1  0.4749550000000  0.5511410000000  0.5372090000000 1.0
C      1  0.5103090000000  0.5040480000000  0.4707930000000 1.0
C      1  0.5047160000000  0.5027240000000  0.5193170000000 1.0
C      1  0.3983640000000  0.4968670000000  0.4615480000000 1.0
C      1  0.6100370000000  0.4643110000000  0.4954390000000 1.0
C      1  0.5227820000000  0.4281590000000  0.4748940000000 1.0
C      1  0.6215400000000  0.5157100000000  0.4865570000000 1.0
C      1  0.4547140000000  0.5514040000000  0.4743750000000 1.0
C      1  0.4492520000000  0.3884070000000  0.4492970000000 1.0
C      1  0.5508360000000  0.5075760000000  0.4988730000000 1.0
C      1  0.4500920000000  0.4225040000000  0.4286260000000 1.0
C      1  0.3960690000000  0.5543730000000  0.5470910000000 1.0
C      1  0.4716560000000  0.5744880000000  0.4587060000000 1.0
C      1  0.4440560000000  0.5421380000000  0.5058650000000 1.0
C      1  0.5148300000000  0.5701890000000  0.4708670000000 1.0
C      1  0.5004600000000  0.4564580000000  0.4135160000000 1.0
C      1  0.4086470000000  0.4516900000000  0.4862960000000 1.0
C      1  0.6209020000000  0.5230660000000  0.5140880000000 1.0
C      1  0.4886400000000  0.3987640000000  0.5117520000000 1.0
C      1  0.4971520000000  0.5523600000000  0.6113830000000 1.0
C      1  0.5320040000000  0.4527060000000  0.4967110000000 1.0
C      1  0.5057340000000  0.4974680000000  0.5897190000000 1.0
C      1  0.5314170000000  0.5133590000000  0.6030590000000 1.0
C      1  0.4703820000000  0.4379440000000  0.4593800000000 1.0
END
