TITL C-2778437-8639-392 0.00289315672187352 125000 -1060.55879610118 0 0 180 (C1) n - 1
REM
REM in /home/nfs/bkarasulu/CARBON/AIRSS/Generating-Clusters/REBO/Only-C1/SD-CG/HFTN-CG
REM
REM
REM
REM
REM
REM ./C.cell (11c1c37f851c82e70ff6c80c92926a4b)
REM
REM compiler GCC version 9.2.1 20190827 (Red Hat 9.2.1-1)
REM options -cpp -mtune=generic -march=x86-64 -g -O0 -fpre-include=/usr/include/finclude/math-vector-fortran.h
REM seed 517015201 -244792196 -1165065387 -13004047 1611558874 9106217 -1215305835 743192353 2022609862 568535472 972733171 1899505519 1911602585 1515131655 -1083350369 -1908538275 2059854704 434160386 757556347 -426132084 -1334244026 -55041056 1698454376 -2120881335 1741063367 -292296803 1719963277 -481990723 -2071327847 -470648837 -1707146067 1526358796 -329188972
REM
CELL 1.54180   50.00000   50.00000   50.00000   90.00000   90.00000   90.00000
LATT -1
SFAC C  
C      1  0.5539610000000  0.4080250000000  0.4896840000000 1.0
C      1  0.5858600000000  0.4830670000000  0.5549340000000 1.0
C      1  0.5897540000000  0.5614970000000  0.5319490000000 1.0
C      1  0.5425350000000  0.5089760000000  0.6014420000000 1.0
C      1  0.5387620000000  0.4709290000000  0.5205850000000 1.0
C      1  0.5871160000000  0.4361390000000  0.5196030000000 1.0
C      1  0.4629460000000  0.4910870000000  0.4054830000000 1.0
C      1  0.4915280000000  0.3818660000000  0.4808100000000 1.0
C      1  0.5065850000000  0.5629570000000  0.4222480000000 1.0
C      1  0.4515500000000  0.5582880000000  0.4935560000000 1.0
C      1  0.4623860000000  0.5038980000000  0.5125150000000 1.0
C      1  0.4698990000000  0.5342860000000  0.5600510000000 1.0
C      1  0.5064090000000  0.4823220000000  0.6016670000000 1.0
C      1  0.5722300000000  0.5321930000000  0.4671020000000 1.0
C      1  0.4763280000000  0.4784420000000  0.5623060000000 1.0
C      1  0.5108960000000  0.5932170000000  0.4619230000000 1.0
C      1  0.4640000000000  0.5307070000000  0.5993110000000 1.0
C      1  0.4720230000000  0.5942420000000  0.5506500000000 1.0
C      1  0.4999650000000  0.3867100000000  0.5082880000000 1.0
C      1  0.4397510000000  0.5275520000000  0.5191140000000 1.0
C      1  0.4837870000000  0.6134320000000  0.5756530000000 1.0
C      1  0.5449000000000  0.4737660000000  0.3802910000000 1.0
C      1  0.4398380000000  0.4202990000000  0.4686250000000 1.0
C      1  0.4457350000000  0.4925630000000  0.5374240000000 1.0
C      1  0.4229170000000  0.4745070000000  0.4308220000000 1.0
C      1  0.6008990000000  0.5359000000000  0.5116860000000 1.0
C      1  0.4669860000000  0.5667680000000  0.5706880000000 1.0
C      1  0.4755270000000  0.4507980000000  0.4827610000000 1.0
C      1  0.5038570000000  0.5427300000000  0.4017910000000 1.0
C      1  0.5576100000000  0.5773300000000  0.4530140000000 1.0
C      1  0.4475070000000  0.4088910000000  0.5121900000000 1.0
C      1  0.5785650000000  0.4220160000000  0.4895750000000 1.0
C      1  0.4938490000000  0.5107900000000  0.5132840000000 1.0
C      1  0.4608180000000  0.4556760000000  0.5788570000000 1.0
C      1  0.5913500000000  0.5574060000000  0.4913180000000 1.0
C      1  0.5020600000000  0.4233520000000  0.5481100000000 1.0
C      1  0.5464930000000  0.5396860000000  0.4143970000000 1.0
C      1  0.5494620000000  0.6120840000000  0.5233630000000 1.0
C      1  0.5011280000000  0.4203710000000  0.4813340000000 1.0
C      1  0.4694940000000  0.4221640000000  0.5550920000000 1.0
C      1  0.4986180000000  0.5459450000000  0.5603680000000 1.0
C      1  0.4072950000000  0.4629240000000  0.4547690000000 1.0
C      1  0.4211990000000  0.4099780000000  0.5024040000000 1.0
C      1  0.4420760000000  0.5509860000000  0.5828840000000 1.0
C      1  0.4046940000000  0.4310630000000  0.5076640000000 1.0
C      1  0.4612290000000  0.5228310000000  0.4292510000000 1.0
C      1  0.5447220000000  0.5275330000000  0.4640190000000 1.0
C      1  0.5145750000000  0.5083140000000  0.6119630000000 1.0
C      1  0.4911350000000  0.5783130000000  0.4399490000000 1.0
C      1  0.4422290000000  0.5156450000000  0.5568630000000 1.0
C      1  0.6032510000000  0.4918030000000  0.4607000000000 1.0
C      1  0.5316530000000  0.4890880000000  0.4214000000000 1.0
C      1  0.4837840000000  0.5179900000000  0.4054300000000 1.0
C      1  0.5102610000000  0.4512960000000  0.5962480000000 1.0
C      1  0.4435210000000  0.5597420000000  0.4333180000000 1.0
C      1  0.4938110000000  0.6135630000000  0.4765740000000 1.0
C      1  0.4357600000000  0.4600930000000  0.5392080000000 1.0
C      1  0.5356830000000  0.5805060000000  0.5611450000000 1.0
C      1  0.4207570000000  0.5532110000000  0.4553750000000 1.0
C      1  0.4261140000000  0.4871390000000  0.5114690000000 1.0
C      1  0.5808970000000  0.4357500000000  0.4654720000000 1.0
C      1  0.5652890000000  0.4592600000000  0.4937300000000 1.0
C      1  0.4243950000000  0.5725620000000  0.4820780000000 1.0
C      1  0.5449670000000  0.4639470000000  0.4068810000000 1.0
C      1  0.4225820000000  0.4073130000000  0.4458530000000 1.0
C      1  0.5800560000000  0.5113450000000  0.5641060000000 1.0
C      1  0.5481230000000  0.5331400000000  0.5486410000000 1.0
C      1  0.5481880000000  0.4397830000000  0.5132980000000 1.0
C      1  0.5686080000000  0.5586910000000  0.5585170000000 1.0
C      1  0.5974120000000  0.4571330000000  0.4948460000000 1.0
C      1  0.4057350000000  0.5270230000000  0.5190530000000 1.0
C      1  0.5035090000000  0.4484840000000  0.4630910000000 1.0
C      1  0.6107490000000  0.4827310000000  0.5098220000000 1.0
C      1  0.4967720000000  0.4192770000000  0.5153590000000 1.0
C      1  0.4214000000000  0.5526500000000  0.5642360000000 1.0
C      1  0.5353680000000  0.5099380000000  0.5128850000000 1.0
C      1  0.4670640000000  0.4628190000000  0.4550380000000 1.0
C      1  0.4316270000000  0.4991180000000  0.4160660000000 1.0
C      1  0.4491130000000  0.5003620000000  0.5992080000000 1.0
C      1  0.4691620000000  0.4305090000000  0.5029820000000 1.0
C      1  0.4573210000000  0.5317610000000  0.4821670000000 1.0
C      1  0.4060110000000  0.5578020000000  0.5065780000000 1.0
C      1  0.5107770000000  0.5019010000000  0.3993650000000 1.0
C      1  0.4337390000000  0.4780550000000  0.5912330000000 1.0
C      1  0.6244450000000  0.4931430000000  0.4821720000000 1.0
C      1  0.5625670000000  0.4953200000000  0.5238710000000 1.0
C      1  0.5238340000000  0.5542640000000  0.5478200000000 1.0
C      1  0.5639580000000  0.5893600000000  0.5444040000000 1.0
C      1  0.4294870000000  0.4461190000000  0.4715340000000 1.0
C      1  0.4226300000000  0.5005700000000  0.4610540000000 1.0
C      1  0.5567870000000  0.4423850000000  0.4511520000000 1.0
C      1  0.5362050000000  0.5064990000000  0.3772240000000 1.0
C      1  0.4714450000000  0.6060330000000  0.4907220000000 1.0
C      1  0.5442300000000  0.5544320000000  0.5820920000000 1.0
C      1  0.5139700000000  0.4984580000000  0.5353250000000 1.0
C      1  0.3953110000000  0.5149320000000  0.4718540000000 1.0
C      1  0.5661720000000  0.5052170000000  0.3928000000000 1.0
C      1  0.5867740000000  0.5283270000000  0.5405880000000 1.0
C      1  0.4084360000000  0.4843850000000  0.5656020000000 1.0
C      1  0.4433830000000  0.4227540000000  0.4290590000000 1.0
C      1  0.5268460000000  0.5641710000000  0.4887090000000 1.0
C      1  0.4093600000000  0.4526240000000  0.5221900000000 1.0
C      1  0.4628070000000  0.4916680000000  0.4395520000000 1.0
C      1  0.4518690000000  0.5566040000000  0.5235130000000 1.0
C      1  0.4523000000000  0.4015130000000  0.5383770000000 1.0
C      1  0.5034160000000  0.5973990000000  0.5262740000000 1.0
C      1  0.4200570000000  0.5102830000000  0.5719670000000 1.0
C      1  0.3900070000000  0.5031170000000  0.5166540000000 1.0
C      1  0.4416370000000  0.5263260000000  0.4548640000000 1.0
C      1  0.5433040000000  0.5027530000000  0.5513210000000 1.0
C      1  0.5219620000000  0.3919710000000  0.5295280000000 1.0
C      1  0.5132250000000  0.3876120000000  0.4601340000000 1.0
C      1  0.4741840000000  0.5056500000000  0.5779590000000 1.0
C      1  0.4803270000000  0.5896560000000  0.5893680000000 1.0
C      1  0.3858040000000  0.4712300000000  0.4728800000000 1.0
C      1  0.5536030000000  0.6024690000000  0.4942960000000 1.0
C      1  0.4466860000000  0.4532930000000  0.4295430000000 1.0
C      1  0.5380400000000  0.5644610000000  0.4325610000000 1.0
C      1  0.4853400000000  0.5233040000000  0.4840720000000 1.0
C      1  0.5540340000000  0.4839360000000  0.4776380000000 1.0
C      1  0.4317020000000  0.5324220000000  0.4168350000000 1.0
C      1  0.4927440000000  0.4161590000000  0.4264470000000 1.0
C      1  0.5874650000000  0.4768570000000  0.4349910000000 1.0
C      1  0.5036360000000  0.5685140000000  0.5132520000000 1.0
C      1  0.5189540000000  0.5580000000000  0.4599580000000 1.0
C      1  0.4019700000000  0.4810420000000  0.5353670000000 1.0
C      1  0.4769910000000  0.4678310000000  0.5345040000000 1.0
C      1  0.5765190000000  0.5851490000000  0.5130650000000 1.0
C      1  0.5347320000000  0.4574770000000  0.4680270000000 1.0
C      1  0.4917370000000  0.4772680000000  0.5097160000000 1.0
C      1  0.5267090000000  0.6033640000000  0.5405630000000 1.0
C      1  0.4771810000000  0.5683040000000  0.5322410000000 1.0
C      1  0.4766230000000  0.4620080000000  0.4166350000000 1.0
C      1  0.5803810000000  0.5045630000000  0.4772130000000 1.0
C      1  0.4636520000000  0.4803880000000  0.4907160000000 1.0
C      1  0.5615030000000  0.5369050000000  0.5182710000000 1.0
C      1  0.4915350000000  0.4851920000000  0.4514430000000 1.0
C      1  0.5637390000000  0.4554710000000  0.4265260000000 1.0
C      1  0.3992770000000  0.5426380000000  0.4767590000000 1.0
C      1  0.5235740000000  0.4683180000000  0.5483520000000 1.0
C      1  0.4966050000000  0.4451020000000  0.4312940000000 1.0
C      1  0.5193680000000  0.4714740000000  0.4950210000000 1.0
C      1  0.4751310000000  0.6058390000000  0.5187550000000 1.0
C      1  0.5650910000000  0.4956640000000  0.4199580000000 1.0
C      1  0.3837530000000  0.4953650000000  0.4894590000000 1.0
C      1  0.5423050000000  0.4446830000000  0.5609310000000 1.0
C      1  0.4674280000000  0.4101670000000  0.4383970000000 1.0
C      1  0.5106710000000  0.5061520000000  0.4389760000000 1.0
C      1  0.4899690000000  0.4383210000000  0.5766580000000 1.0
C      1  0.4602840000000  0.4420380000000  0.5314240000000 1.0
C      1  0.5790790000000  0.5608120000000  0.4623580000000 1.0
C      1  0.5301210000000  0.5354470000000  0.3912250000000 1.0
C      1  0.5334200000000  0.5067750000000  0.4830670000000 1.0
C      1  0.5052580000000  0.4815020000000  0.5708710000000 1.0
C      1  0.6009580000000  0.4589700000000  0.4610130000000 1.0
C      1  0.5280720000000  0.5469340000000  0.5171270000000 1.0
C      1  0.5317050000000  0.4076850000000  0.4726110000000 1.0
C      1  0.5101520000000  0.3941660000000  0.4322760000000 1.0
C      1  0.5327410000000  0.4145820000000  0.5529520000000 1.0
C      1  0.5429280000000  0.5952570000000  0.4695340000000 1.0
C      1  0.4712580000000  0.4072200000000  0.4705290000000 1.0
C      1  0.4304030000000  0.5134470000000  0.4907860000000 1.0
C      1  0.4976580000000  0.5309140000000  0.6049990000000 1.0
C      1  0.5442230000000  0.4889330000000  0.5794410000000 1.0
C      1  0.5580540000000  0.5626420000000  0.4962340000000 1.0
C      1  0.4636980000000  0.5764050000000  0.4457490000000 1.0
C      1  0.4301500000000  0.4543400000000  0.5695870000000 1.0
C      1  0.4215390000000  0.5581160000000  0.5370230000000 1.0
C      1  0.4347470000000  0.4754970000000  0.4807110000000 1.0
C      1  0.5878920000000  0.5052720000000  0.5080230000000 1.0
C      1  0.5945550000000  0.4664370000000  0.5336040000000 1.0
C      1  0.5364010000000  0.5249630000000  0.4380740000000 1.0
C      1  0.5443870000000  0.4053650000000  0.5163240000000 1.0
C      1  0.5042080000000  0.4967390000000  0.4773010000000 1.0
C      1  0.5120180000000  0.5472120000000  0.5866370000000 1.0
C      1  0.5623540000000  0.5256410000000  0.5849380000000 1.0
C      1  0.5369070000000  0.4618770000000  0.5853220000000 1.0
C      1  0.4551110000000  0.5852970000000  0.4754870000000 1.0
C      1  0.5031930000000  0.5321520000000  0.4588620000000 1.0
C      1  0.5626400000000  0.4282490000000  0.5419050000000 1.0
END
