TITL C-2778432-5617-168 -0.000237139067001754 125000 -1041.77237252421 0 0 178 (C1) n - 1
REM
REM in /home/nfs/bkarasulu/CARBON/AIRSS/Generating-Clusters/REBO/Only-C1/SD-CG/HFTN-CG
REM
REM
REM
REM
REM
REM ./C.cell (11c1c37f851c82e70ff6c80c92926a4b)
REM
REM compiler GCC version 9.2.1 20190827 (Red Hat 9.2.1-1)
REM options -cpp -mtune=generic -march=x86-64 -g -O0 -fpre-include=/usr/include/finclude/math-vector-fortran.h
REM seed 1406142687 866400277 1042538879 -315746195 -2033078669 631873857 1836800613 -1995927371 -967074959 -1096000158 -900989433 -993510316 -1930439237 -107180964 -470842931 253930010 1792662472 1534107764 1763501380 -2086334716 371239658 1432619045 -896311850 -1015337138 -88507982 -332052632 -1370881781 1491999489 1465297450 -297237831 -652926192 -305007331 -1979805663
REM
CELL 1.54180   50.00000   50.00000   50.00000   90.00000   90.00000   90.00000
LATT -1
SFAC C  
C      1  0.4573870000000  0.5101750000000  0.5331180000000 1.0
C      1  0.5551620000000  0.5761110000000  0.4479490000000 1.0
C      1  0.5441290000000  0.5041380000000  0.4290390000000 1.0
C      1  0.4280480000000  0.4841720000000  0.4693510000000 1.0
C      1  0.4810240000000  0.5976920000000  0.5643140000000 1.0
C      1  0.4186740000000  0.5384490000000  0.4239150000000 1.0
C      1  0.4341370000000  0.4788570000000  0.5244630000000 1.0
C      1  0.3962260000000  0.4866310000000  0.5145130000000 1.0
C      1  0.5498380000000  0.5307180000000  0.4624690000000 1.0
C      1  0.5557700000000  0.5071110000000  0.4820830000000 1.0
C      1  0.4612670000000  0.6140450000000  0.4649730000000 1.0
C      1  0.4753590000000  0.3984010000000  0.4774690000000 1.0
C      1  0.5765720000000  0.4756410000000  0.5172920000000 1.0
C      1  0.5024380000000  0.4427960000000  0.4908100000000 1.0
C      1  0.4848110000000  0.4531700000000  0.4328110000000 1.0
C      1  0.4308990000000  0.5151890000000  0.5626270000000 1.0
C      1  0.4671980000000  0.6093860000000  0.5376200000000 1.0
C      1  0.4795340000000  0.5447750000000  0.5774780000000 1.0
C      1  0.4842510000000  0.4779650000000  0.5238990000000 1.0
C      1  0.4890130000000  0.6079330000000  0.4668190000000 1.0
C      1  0.4402010000000  0.4416800000000  0.4816200000000 1.0
C      1  0.5043450000000  0.5648170000000  0.4136330000000 1.0
C      1  0.5020420000000  0.5082960000000  0.4255780000000 1.0
C      1  0.4308830000000  0.4810920000000  0.5639710000000 1.0
C      1  0.5316250000000  0.5490890000000  0.5303050000000 1.0
C      1  0.5074730000000  0.4554250000000  0.5468320000000 1.0
C      1  0.4221690000000  0.4089480000000  0.5311410000000 1.0
C      1  0.4554830000000  0.4380850000000  0.5701060000000 1.0
C      1  0.5766470000000  0.4394760000000  0.5465090000000 1.0
C      1  0.4485170000000  0.5457070000000  0.5174950000000 1.0
C      1  0.4671330000000  0.5716740000000  0.5494590000000 1.0
C      1  0.4221240000000  0.5677050000000  0.5221190000000 1.0
C      1  0.4706850000000  0.5492730000000  0.4451830000000 1.0
C      1  0.4902590000000  0.4730130000000  0.4068910000000 1.0
C      1  0.5699520000000  0.5878330000000  0.5288160000000 1.0
C      1  0.5511380000000  0.4598240000000  0.4088150000000 1.0
C      1  0.5253880000000  0.5839660000000  0.4911070000000 1.0
C      1  0.4602560000000  0.4126620000000  0.4507270000000 1.0
C      1  0.5542820000000  0.5499100000000  0.5058570000000 1.0
C      1  0.4643780000000  0.5116140000000  0.5960430000000 1.0
C      1  0.5549690000000  0.5840770000000  0.4764360000000 1.0
C      1  0.5061450000000  0.4319560000000  0.4379850000000 1.0
C      1  0.5266500000000  0.5021690000000  0.4956230000000 1.0
C      1  0.4659830000000  0.5390310000000  0.5463470000000 1.0
C      1  0.4861150000000  0.5432400000000  0.5010840000000 1.0
C      1  0.5724800000000  0.4971170000000  0.4403150000000 1.0
C      1  0.4352040000000  0.5639150000000  0.5506150000000 1.0
C      1  0.5352870000000  0.4292650000000  0.5581660000000 1.0
C      1  0.4241620000000  0.5685150000000  0.4719530000000 1.0
C      1  0.4569680000000  0.4871650000000  0.3950460000000 1.0
C      1  0.3962980000000  0.4695920000000  0.4925190000000 1.0
C      1  0.4958460000000  0.5695730000000  0.5769850000000 1.0
C      1  0.5247960000000  0.4049820000000  0.4722760000000 1.0
C      1  0.4308010000000  0.5443070000000  0.5712180000000 1.0
C      1  0.4232170000000  0.4882490000000  0.4362600000000 1.0
C      1  0.4119530000000  0.4477500000000  0.4712240000000 1.0
C      1  0.4487060000000  0.4177250000000  0.5467470000000 1.0
C      1  0.5115020000000  0.4815130000000  0.4745490000000 1.0
C      1  0.5680250000000  0.4515450000000  0.4440410000000 1.0
C      1  0.5619930000000  0.4590200000000  0.5575420000000 1.0
C      1  0.5433130000000  0.5099050000000  0.5633650000000 1.0
C      1  0.4725090000000  0.4699250000000  0.5999900000000 1.0
C      1  0.4917040000000  0.5627800000000  0.5270270000000 1.0
C      1  0.5229380000000  0.4229650000000  0.5085070000000 1.0
C      1  0.6019670000000  0.5320320000000  0.4769050000000 1.0
C      1  0.5316050000000  0.5519950000000  0.4804410000000 1.0
C      1  0.4797450000000  0.5913480000000  0.5125340000000 1.0
C      1  0.4682740000000  0.4580560000000  0.5046840000000 1.0
C      1  0.4935860000000  0.4065030000000  0.5620890000000 1.0
C      1  0.5238380000000  0.5252250000000  0.3892880000000 1.0
C      1  0.4503270000000  0.4628130000000  0.5827150000000 1.0
C      1  0.5810410000000  0.4475550000000  0.4980980000000 1.0
C      1  0.5602460000000  0.5618510000000  0.5737060000000 1.0
C      1  0.5294550000000  0.4963680000000  0.5283860000000 1.0
C      1  0.5799120000000  0.5742100000000  0.5511290000000 1.0
C      1  0.5130580000000  0.5302340000000  0.4939030000000 1.0
C      1  0.5398750000000  0.4390140000000  0.5310310000000 1.0
C      1  0.4438480000000  0.5907000000000  0.4588870000000 1.0
C      1  0.4653400000000  0.5192500000000  0.4021190000000 1.0
C      1  0.5328620000000  0.4741900000000  0.5480270000000 1.0
C      1  0.4349670000000  0.3935310000000  0.5056290000000 1.0
C      1  0.4625540000000  0.5048080000000  0.5663650000000 1.0
C      1  0.5770130000000  0.5253030000000  0.4213930000000 1.0
C      1  0.5385990000000  0.4653250000000  0.4808890000000 1.0
C      1  0.4942990000000  0.5337400000000  0.4039820000000 1.0
C      1  0.5215040000000  0.4669620000000  0.3935660000000 1.0
C      1  0.5002560000000  0.4528750000000  0.5997480000000 1.0
C      1  0.4853940000000  0.4325550000000  0.5710290000000 1.0
C      1  0.5124910000000  0.5192230000000  0.5684840000000 1.0
C      1  0.5265280000000  0.4742200000000  0.5996190000000 1.0
C      1  0.6006850000000  0.5531600000000  0.5464310000000 1.0
C      1  0.4491960000000  0.5250760000000  0.4682040000000 1.0
C      1  0.5212930000000  0.4036900000000  0.5546970000000 1.0
C      1  0.5035770000000  0.4793640000000  0.4438230000000 1.0
C      1  0.4993270000000  0.4295800000000  0.5300230000000 1.0
C      1  0.5261050000000  0.4205000000000  0.4218990000000 1.0
C      1  0.5131590000000  0.4630280000000  0.5135760000000 1.0
C      1  0.5285190000000  0.3899600000000  0.5299570000000 1.0
C      1  0.5444580000000  0.5979850000000  0.5317020000000 1.0
C      1  0.3959530000000  0.4761520000000  0.4605310000000 1.0
C      1  0.5296740000000  0.5699700000000  0.5823180000000 1.0
C      1  0.4695360000000  0.5797580000000  0.4462060000000 1.0
C      1  0.4501550000000  0.5484140000000  0.5906740000000 1.0
C      1  0.4726820000000  0.3954340000000  0.5459060000000 1.0
C      1  0.4565540000000  0.4381100000000  0.4385740000000 1.0
C      1  0.5792180000000  0.4721730000000  0.4188100000000 1.0
C      1  0.5822680000000  0.5370500000000  0.5652200000000 1.0
C      1  0.5664380000000  0.4789220000000  0.4662360000000 1.0
C      1  0.6082440000000  0.5417130000000  0.5217240000000 1.0
C      1  0.4459570000000  0.5918570000000  0.5176070000000 1.0
C      1  0.5130090000000  0.5989560000000  0.5759050000000 1.0
C      1  0.5465190000000  0.5339510000000  0.5832520000000 1.0
C      1  0.5472060000000  0.4644000000000  0.5122940000000 1.0
C      1  0.4915390000000  0.5241660000000  0.6021600000000 1.0
C      1  0.4354330000000  0.5098890000000  0.4167980000000 1.0
C      1  0.5676190000000  0.5484820000000  0.4435980000000 1.0
C      1  0.4603850000000  0.3824400000000  0.5000730000000 1.0
C      1  0.5325970000000  0.5522700000000  0.4253520000000 1.0
C      1  0.5171060000000  0.5407960000000  0.5945010000000 1.0
C      1  0.4100640000000  0.5501090000000  0.4970820000000 1.0
C      1  0.5765710000000  0.4268950000000  0.5217100000000 1.0
C      1  0.4070400000000  0.5161730000000  0.4471580000000 1.0
C      1  0.5129610000000  0.5581150000000  0.4526550000000 1.0
C      1  0.4231770000000  0.5102530000000  0.5320550000000 1.0
C      1  0.4410950000000  0.4260610000000  0.5084080000000 1.0
C      1  0.4793390000000  0.5132860000000  0.5071240000000 1.0
C      1  0.4990080000000  0.6000170000000  0.4916840000000 1.0
C      1  0.4487510000000  0.5703600000000  0.4929080000000 1.0
C      1  0.5271820000000  0.4456970000000  0.5802460000000 1.0
C      1  0.5002550000000  0.5888240000000  0.4450900000000 1.0
C      1  0.4579230000000  0.4717590000000  0.5445050000000 1.0
C      1  0.4872450000000  0.5046210000000  0.4774260000000 1.0
C      1  0.6052400000000  0.5057100000000  0.4899360000000 1.0
C      1  0.5220050000000  0.5785240000000  0.5224500000000 1.0
C      1  0.4927940000000  0.4953320000000  0.5733540000000 1.0
C      1  0.4030540000000  0.5188770000000  0.5093220000000 1.0
C      1  0.4413630000000  0.5210040000000  0.4981490000000 1.0
C      1  0.5286570000000  0.5851200000000  0.4283100000000 1.0
C      1  0.5996260000000  0.5540840000000  0.4965800000000 1.0
C      1  0.5054110000000  0.5358050000000  0.5430890000000 1.0
C      1  0.5917180000000  0.4780600000000  0.4872270000000 1.0
C      1  0.4724900000000  0.4307710000000  0.4839950000000 1.0
C      1  0.4527140000000  0.5382620000000  0.4256060000000 1.0
C      1  0.4634020000000  0.4971160000000  0.4562100000000 1.0
C      1  0.4575930000000  0.4700560000000  0.4759750000000 1.0
C      1  0.4788680000000  0.3803410000000  0.5226430000000 1.0
C      1  0.5829930000000  0.5092310000000  0.5594930000000 1.0
C      1  0.5065910000000  0.3811690000000  0.5130540000000 1.0
C      1  0.4948020000000  0.5299190000000  0.4583620000000 1.0
C      1  0.4344610000000  0.4943750000000  0.4974970000000 1.0
C      1  0.5530440000000  0.4062830000000  0.5130960000000 1.0
C      1  0.5608990000000  0.4402480000000  0.4746850000000 1.0
C      1  0.5507780000000  0.4317940000000  0.4222670000000 1.0
C      1  0.5900670000000  0.4984660000000  0.4050240000000 1.0
C      1  0.6070530000000  0.5126790000000  0.5183560000000 1.0
C      1  0.4270670000000  0.4549050000000  0.4423680000000 1.0
C      1  0.5465460000000  0.4815780000000  0.5768070000000 1.0
C      1  0.5896020000000  0.4967880000000  0.5348780000000 1.0
C      1  0.5752840000000  0.5739440000000  0.5004190000000 1.0
C      1  0.5053250000000  0.3885640000000  0.4848980000000 1.0
C      1  0.4053840000000  0.4759110000000  0.5420530000000 1.0
C      1  0.5110510000000  0.4287250000000  0.4644190000000 1.0
C      1  0.5290440000000  0.4790750000000  0.4238760000000 1.0
C      1  0.4995380000000  0.5063940000000  0.5307660000000 1.0
C      1  0.5495310000000  0.5210060000000  0.5330800000000 1.0
C      1  0.4697750000000  0.4306240000000  0.5237280000000 1.0
C      1  0.3983780000000  0.5249590000000  0.4771210000000 1.0
C      1  0.4675640000000  0.4887890000000  0.4278430000000 1.0
C      1  0.4843070000000  0.4665340000000  0.5620920000000 1.0
C      1  0.5684950000000  0.5208520000000  0.5071100000000 1.0
C      1  0.5503310000000  0.4115880000000  0.4818090000000 1.0
C      1  0.5086410000000  0.4978580000000  0.3938640000000 1.0
C      1  0.5454120000000  0.5306160000000  0.4106820000000 1.0
C      1  0.4980540000000  0.4920020000000  0.6054790000000 1.0
C      1  0.4679210000000  0.5506710000000  0.4792470000000 1.0
C      1  0.4485690000000  0.4634140000000  0.4178330000000 1.0
C      1  0.5239610000000  0.5202270000000  0.4475460000000 1.0
C      1  0.4267100000000  0.5427170000000  0.4556140000000 1.0
END
