TITL C-2778430-5657-277 0.00254971125866103 125000 -1027.08653060272 0 0 177 (C1) n - 1
REM
REM in /home/nfs/bkarasulu/CARBON/AIRSS/Generating-Clusters/REBO/Only-C1/SD-CG/HFTN-CG
REM
REM
REM
REM
REM
REM ./C.cell (11c1c37f851c82e70ff6c80c92926a4b)
REM
REM compiler GCC version 9.2.1 20190827 (Red Hat 9.2.1-1)
REM options -cpp -mtune=generic -march=x86-64 -g -O0 -fpre-include=/usr/include/finclude/math-vector-fortran.h
REM seed 1403317015 -19970698 1694057377 1744749329 394381491 595610612 680542810 1487389432 -111462944 779467378 -982709288 -494709741 -800501767 -1213397392 -1354029827 -2023516768 1668887691 236768137 -2082258690 -424706628 -338245687 -2092544405 -909628669 -684531796 -13040130 330377446 -17880840 944617918 1300087663 2031564711 1540472485 -474007386 927779346
REM
CELL 1.54180   50.00000   50.00000   50.00000   90.00000   90.00000   90.00000
LATT -1
SFAC C  
C      1  0.5623350000000  0.4447730000000  0.4631960000000 1.0
C      1  0.5439760000000  0.5140900000000  0.5955770000000 1.0
C      1  0.5193530000000  0.4814940000000  0.5548680000000 1.0
C      1  0.5687560000000  0.4685940000000  0.4254720000000 1.0
C      1  0.5100990000000  0.4651390000000  0.6070480000000 1.0
C      1  0.4425010000000  0.5257870000000  0.4518570000000 1.0
C      1  0.4077270000000  0.4898060000000  0.4724030000000 1.0
C      1  0.4946220000000  0.5168010000000  0.4558790000000 1.0
C      1  0.5294660000000  0.3823260000000  0.5184710000000 1.0
C      1  0.5147120000000  0.4656190000000  0.4420010000000 1.0
C      1  0.5311890000000  0.5554400000000  0.4076650000000 1.0
C      1  0.3926080000000  0.5392580000000  0.5212960000000 1.0
C      1  0.3982650000000  0.4885770000000  0.5023140000000 1.0
C      1  0.5605990000000  0.4800610000000  0.3960160000000 1.0
C      1  0.4183600000000  0.5087800000000  0.5200380000000 1.0
C      1  0.5248410000000  0.3957020000000  0.4810380000000 1.0
C      1  0.4894270000000  0.4752860000000  0.5491150000000 1.0
C      1  0.4829340000000  0.5500200000000  0.5361090000000 1.0
C      1  0.4340030000000  0.4420310000000  0.5566790000000 1.0
C      1  0.4425950000000  0.5519680000000  0.5516700000000 1.0
C      1  0.5910300000000  0.5548890000000  0.4609370000000 1.0
C      1  0.4070500000000  0.4845870000000  0.5411100000000 1.0
C      1  0.5340750000000  0.4765840000000  0.4650910000000 1.0
C      1  0.4742880000000  0.5844590000000  0.4669810000000 1.0
C      1  0.5043490000000  0.4912110000000  0.4761740000000 1.0
C      1  0.4624700000000  0.5189440000000  0.5911480000000 1.0
C      1  0.5785280000000  0.4500440000000  0.5027020000000 1.0
C      1  0.4118200000000  0.5579850000000  0.5384240000000 1.0
C      1  0.5041130000000  0.4571150000000  0.5235760000000 1.0
C      1  0.3911500000000  0.5200550000000  0.4932210000000 1.0
C      1  0.5371790000000  0.5809580000000  0.5466200000000 1.0
C      1  0.6005640000000  0.5301700000000  0.5295650000000 1.0
C      1  0.5427340000000  0.4531590000000  0.4855190000000 1.0
C      1  0.5084380000000  0.4203460000000  0.4654050000000 1.0
C      1  0.5264880000000  0.5589890000000  0.5705610000000 1.0
C      1  0.5624240000000  0.5602480000000  0.5531230000000 1.0
C      1  0.4857230000000  0.5545910000000  0.4652540000000 1.0
C      1  0.4434150000000  0.5442900000000  0.5808710000000 1.0
C      1  0.4065030000000  0.4633680000000  0.4566670000000 1.0
C      1  0.5720240000000  0.4917080000000  0.4736800000000 1.0
C      1  0.4225520000000  0.5392730000000  0.5054680000000 1.0
C      1  0.5291060000000  0.4912990000000  0.3932520000000 1.0
C      1  0.4810440000000  0.5404400000000  0.4085420000000 1.0
C      1  0.4084360000000  0.4613260000000  0.5163860000000 1.0
C      1  0.5633310000000  0.4642110000000  0.6006340000000 1.0
C      1  0.4156190000000  0.4961850000000  0.5720180000000 1.0
C      1  0.4905500000000  0.4655130000000  0.3956340000000 1.0
C      1  0.4864120000000  0.4918280000000  0.3870710000000 1.0
C      1  0.5447280000000  0.5070500000000  0.4669150000000 1.0
C      1  0.5855040000000  0.5000510000000  0.5574570000000 1.0
C      1  0.5022650000000  0.5294350000000  0.5564250000000 1.0
C      1  0.5534040000000  0.5391990000000  0.5768880000000 1.0
C      1  0.4860050000000  0.4119090000000  0.4201780000000 1.0
C      1  0.4229980000000  0.5185180000000  0.5846750000000 1.0
C      1  0.4642500000000  0.4301100000000  0.4319980000000 1.0
C      1  0.5515050000000  0.5197400000000  0.4416210000000 1.0
C      1  0.4738200000000  0.5496410000000  0.5955250000000 1.0
C      1  0.4832000000000  0.6111180000000  0.5120200000000 1.0
C      1  0.4351890000000  0.5741660000000  0.5197280000000 1.0
C      1  0.4912530000000  0.5737590000000  0.5820620000000 1.0
C      1  0.4940950000000  0.4482860000000  0.4919440000000 1.0
C      1  0.4704280000000  0.5648240000000  0.4297380000000 1.0
C      1  0.5558320000000  0.4817200000000  0.5388720000000 1.0
C      1  0.4297860000000  0.4461970000000  0.4961510000000 1.0
C      1  0.5191800000000  0.5237680000000  0.6385820000000 1.0
C      1  0.4959580000000  0.5212180000000  0.5247620000000 1.0
C      1  0.4654200000000  0.3969000000000  0.5320110000000 1.0
C      1  0.5228480000000  0.5290870000000  0.6130480000000 1.0
C      1  0.5533380000000  0.4721510000000  0.5085630000000 1.0
C      1  0.4938050000000  0.4000660000000  0.5163650000000 1.0
C      1  0.3978350000000  0.5112180000000  0.4479970000000 1.0
C      1  0.5100290000000  0.4887570000000  0.4214150000000 1.0
C      1  0.4995880000000  0.5701500000000  0.5523750000000 1.0
C      1  0.4399480000000  0.4805060000000  0.4144110000000 1.0
C      1  0.5660230000000  0.5676260000000  0.4483140000000 1.0
C      1  0.4388000000000  0.4964780000000  0.4759940000000 1.0
C      1  0.5496500000000  0.4019550000000  0.4901910000000 1.0
C      1  0.5110570000000  0.5968950000000  0.5361680000000 1.0
C      1  0.4258100000000  0.5683700000000  0.4880900000000 1.0
C      1  0.5572410000000  0.5476140000000  0.4224050000000 1.0
C      1  0.5266760000000  0.5178560000000  0.4205830000000 1.0
C      1  0.5803370000000  0.5328500000000  0.5567670000000 1.0
C      1  0.4683610000000  0.5137460000000  0.4057990000000 1.0
C      1  0.4709060000000  0.4370410000000  0.5883120000000 1.0
C      1  0.5566430000000  0.4285360000000  0.5650730000000 1.0
C      1  0.4264950000000  0.4386380000000  0.4658960000000 1.0
C      1  0.4515560000000  0.5255290000000  0.5340480000000 1.0
C      1  0.4939050000000  0.4946360000000  0.5145860000000 1.0
C      1  0.4788450000000  0.4656250000000  0.5957020000000 1.0
C      1  0.5232290000000  0.6071620000000  0.4732240000000 1.0
C      1  0.4690220000000  0.5354370000000  0.4462770000000 1.0
C      1  0.4654340000000  0.4455810000000  0.5192900000000 1.0
C      1  0.5642250000000  0.4192970000000  0.5064190000000 1.0
C      1  0.5724280000000  0.4527410000000  0.5779800000000 1.0
C      1  0.5346290000000  0.4575530000000  0.5405860000000 1.0
C      1  0.5029450000000  0.4232100000000  0.5637080000000 1.0
C      1  0.5524300000000  0.5010450000000  0.5659720000000 1.0
C      1  0.4251180000000  0.4669670000000  0.5637750000000 1.0
C      1  0.5800560000000  0.5223070000000  0.4241170000000 1.0
C      1  0.4832700000000  0.5829950000000  0.4975540000000 1.0
C      1  0.5237810000000  0.4139440000000  0.5181650000000 1.0
C      1  0.5159990000000  0.6109830000000  0.5055340000000 1.0
C      1  0.4528960000000  0.4258060000000  0.5703820000000 1.0
C      1  0.5208230000000  0.5863220000000  0.4463970000000 1.0
C      1  0.4949510000000  0.5855230000000  0.4266770000000 1.0
C      1  0.4683390000000  0.4748410000000  0.5258540000000 1.0
C      1  0.5969390000000  0.4538240000000  0.4824110000000 1.0
C      1  0.4659020000000  0.4590220000000  0.4150170000000 1.0
C      1  0.4451390000000  0.4922600000000  0.5332390000000 1.0
C      1  0.5070810000000  0.5485800000000  0.4796750000000 1.0
C      1  0.5920380000000  0.5564700000000  0.4884000000000 1.0
C      1  0.5312240000000  0.5260620000000  0.4857080000000 1.0
C      1  0.5740870000000  0.4681710000000  0.4529270000000 1.0
C      1  0.4604120000000  0.5415370000000  0.4932270000000 1.0
C      1  0.4936060000000  0.5137570000000  0.5810560000000 1.0
C      1  0.5041390000000  0.4351680000000  0.5955550000000 1.0
C      1  0.4779780000000  0.4890550000000  0.4259870000000 1.0
C      1  0.4903170000000  0.4628790000000  0.4635030000000 1.0
C      1  0.4164660000000  0.5348870000000  0.4317130000000 1.0
C      1  0.5963190000000  0.5283690000000  0.4522210000000 1.0
C      1  0.4908190000000  0.3991460000000  0.4845430000000 1.0
C      1  0.4278570000000  0.4977720000000  0.4392310000000 1.0
C      1  0.4610750000000  0.4076810000000  0.4826150000000 1.0
C      1  0.5835480000000  0.4946310000000  0.5239120000000 1.0
C      1  0.5044190000000  0.5598820000000  0.4094380000000 1.0
C      1  0.5357370000000  0.5180650000000  0.5168310000000 1.0
C      1  0.4607810000000  0.4475460000000  0.4855610000000 1.0
C      1  0.5489080000000  0.4294240000000  0.4430780000000 1.0
C      1  0.4337600000000  0.4585430000000  0.4385710000000 1.0
C      1  0.5211170000000  0.4807880000000  0.5047160000000 1.0
C      1  0.5220880000000  0.4333540000000  0.4938740000000 1.0
C      1  0.5873690000000  0.4671650000000  0.5585820000000 1.0
C      1  0.4355600000000  0.5925700000000  0.4721930000000 1.0
C      1  0.5295730000000  0.4271660000000  0.5439960000000 1.0
C      1  0.4661770000000  0.5622680000000  0.5123470000000 1.0
C      1  0.4677150000000  0.4952780000000  0.4574280000000 1.0
C      1  0.4165440000000  0.5323220000000  0.4736260000000 1.0
C      1  0.5215160000000  0.4342790000000  0.4422240000000 1.0
C      1  0.6035640000000  0.5140530000000  0.5041850000000 1.0
C      1  0.5403410000000  0.5875080000000  0.5032410000000 1.0
C      1  0.4902790000000  0.4280350000000  0.5347500000000 1.0
C      1  0.5142310000000  0.4897800000000  0.5847170000000 1.0
C      1  0.4220130000000  0.5597560000000  0.4545490000000 1.0
C      1  0.5394880000000  0.4821780000000  0.6052120000000 1.0
C      1  0.4621580000000  0.4557870000000  0.4544980000000 1.0
C      1  0.5560310000000  0.5669840000000  0.5218490000000 1.0
C      1  0.5515080000000  0.5879020000000  0.4717440000000 1.0
C      1  0.4531550000000  0.5055640000000  0.5619010000000 1.0
C      1  0.5310920000000  0.4199300000000  0.5827660000000 1.0
C      1  0.5285980000000  0.5109260000000  0.5451970000000 1.0
C      1  0.5869670000000  0.4533020000000  0.5344870000000 1.0
C      1  0.5076540000000  0.4218550000000  0.4068400000000 1.0
C      1  0.5152700000000  0.5363100000000  0.4425710000000 1.0
C      1  0.4738090000000  0.4933900000000  0.4909530000000 1.0
C      1  0.5690670000000  0.4284680000000  0.5348080000000 1.0
C      1  0.5324820000000  0.5597810000000  0.4509610000000 1.0
C      1  0.5145990000000  0.4491690000000  0.4015060000000 1.0
C      1  0.4477410000000  0.5800740000000  0.4461950000000 1.0
C      1  0.4491710000000  0.4186430000000  0.4599280000000 1.0
C      1  0.5463530000000  0.5552580000000  0.4806150000000 1.0
C      1  0.4562950000000  0.5824900000000  0.5451600000000 1.0
C      1  0.4277210000000  0.4354260000000  0.5274810000000 1.0
C      1  0.5641250000000  0.5099520000000  0.5017350000000 1.0
C      1  0.4531510000000  0.5146600000000  0.5014580000000 1.0
C      1  0.5131290000000  0.5714110000000  0.5011770000000 1.0
C      1  0.5397480000000  0.4579940000000  0.4118690000000 1.0
C      1  0.4771890000000  0.6010350000000  0.5409030000000 1.0
C      1  0.4594920000000  0.4010430000000  0.5580480000000 1.0
C      1  0.5179900000000  0.5457080000000  0.5178480000000 1.0
C      1  0.5553470000000  0.5119260000000  0.4028700000000 1.0
C      1  0.5079920000000  0.5494090000000  0.5975690000000 1.0
C      1  0.4369820000000  0.5149400000000  0.4123480000000 1.0
C      1  0.5668340000000  0.5438250000000  0.5031510000000 1.0
C      1  0.5969650000000  0.5109130000000  0.4757300000000 1.0
C      1  0.4947700000000  0.6051110000000  0.4545720000000 1.0
C      1  0.4759930000000  0.4857770000000  0.5739170000000 1.0
C      1  0.4506150000000  0.4158230000000  0.5113790000000 1.0
END
