TITL C-2778426-5645-1002 -0.00328305495331095 125000 -564.811845296329 0 0 96 (C1) n - 1
REM
REM in /home/nfs/bkarasulu/CARBON/AIRSS/Generating-Clusters/REBO/Only-C1/SD-CG/HFTN-CG
REM
REM
REM
REM
REM
REM ./C.cell (11c1c37f851c82e70ff6c80c92926a4b)
REM
REM compiler GCC version 9.2.1 20190827 (Red Hat 9.2.1-1)
REM options -cpp -mtune=generic -march=x86-64 -g -O0 -fpre-include=/usr/include/finclude/math-vector-fortran.h
REM seed -56749025 963759296 1166756880 -243215983 -1228704540 547146857 432338626 -734924612 -810170868 -1350488080 -312071951 408946100 -413499029 1193392373 1007630370 -2098960562 -745991778 -1751629311 1431367287 309390704 -1909026175 517433426 1898530232 1544810418 1410795899 574024907 1663197768 -148566079 -62515056 494125134 -1747215423 560426427 18457771
REM
CELL 1.54180   50.00000   50.00000   50.00000   90.00000   90.00000   90.00000
LATT -1
SFAC C  
C      1  0.5530110000000  0.4601240000000  0.5572810000000 1.0
C      1  0.4117050000000  0.4968130000000  0.5045620000000 1.0
C      1  0.4688820000000  0.5099110000000  0.4594330000000 1.0
C      1  0.5552260000000  0.5334900000000  0.5500990000000 1.0
C      1  0.4962580000000  0.4511490000000  0.5388480000000 1.0
C      1  0.4695570000000  0.5688550000000  0.4718400000000 1.0
C      1  0.5436800000000  0.4666370000000  0.5148540000000 1.0
C      1  0.5286220000000  0.5054500000000  0.5794390000000 1.0
C      1  0.5510660000000  0.5420190000000  0.4425680000000 1.0
C      1  0.4876880000000  0.4316700000000  0.5813690000000 1.0
C      1  0.5408770000000  0.4663580000000  0.3981260000000 1.0
C      1  0.5082370000000  0.4702430000000  0.4918620000000 1.0
C      1  0.4670210000000  0.4138430000000  0.5985570000000 1.0
C      1  0.4583540000000  0.4751880000000  0.5043800000000 1.0
C      1  0.5042230000000  0.5725860000000  0.5238010000000 1.0
C      1  0.4676680000000  0.4610020000000  0.5338640000000 1.0
C      1  0.4565940000000  0.5752970000000  0.4942030000000 1.0
C      1  0.4357030000000  0.4314600000000  0.4939720000000 1.0
C      1  0.4908650000000  0.5877710000000  0.5737510000000 1.0
C      1  0.5072890000000  0.4451080000000  0.4296900000000 1.0
C      1  0.5672070000000  0.5796550000000  0.4863400000000 1.0
C      1  0.4844850000000  0.4623880000000  0.4361800000000 1.0
C      1  0.5758110000000  0.5557190000000  0.4973580000000 1.0
C      1  0.5309830000000  0.4578100000000  0.5753100000000 1.0
C      1  0.4253800000000  0.5250130000000  0.5441290000000 1.0
C      1  0.4345440000000  0.4431190000000  0.4688400000000 1.0
C      1  0.4715110000000  0.5819250000000  0.5192560000000 1.0
C      1  0.5527670000000  0.5469680000000  0.5202520000000 1.0
C      1  0.5055720000000  0.4467810000000  0.5659940000000 1.0
C      1  0.5470540000000  0.5271730000000  0.5753450000000 1.0
C      1  0.5391010000000  0.4563290000000  0.4367630000000 1.0
C      1  0.5762130000000  0.5291490000000  0.4471620000000 1.0
C      1  0.4898990000000  0.4939480000000  0.4428620000000 1.0
C      1  0.5056510000000  0.4344980000000  0.5174210000000 1.0
C      1  0.5096050000000  0.4173640000000  0.4478200000000 1.0
C      1  0.5412540000000  0.4308220000000  0.4824320000000 1.0
C      1  0.5354310000000  0.4322060000000  0.4548140000000 1.0
C      1  0.4972810000000  0.5941400000000  0.5472460000000 1.0
C      1  0.4172780000000  0.4905170000000  0.4771950000000 1.0
C      1  0.5402880000000  0.5862410000000  0.4934420000000 1.0
C      1  0.4685780000000  0.5017450000000  0.4887350000000 1.0
C      1  0.5107350000000  0.5095490000000  0.3989480000000 1.0
C      1  0.4717580000000  0.5431310000000  0.4523870000000 1.0
C      1  0.4774540000000  0.4631710000000  0.4830080000000 1.0
C      1  0.4868500000000  0.5062120000000  0.4126830000000 1.0
C      1  0.4515480000000  0.5615580000000  0.5661930000000 1.0
C      1  0.5160260000000  0.4995480000000  0.4557270000000 1.0
C      1  0.5303580000000  0.4804510000000  0.5933330000000 1.0
C      1  0.4927930000000  0.5698310000000  0.4512590000000 1.0
C      1  0.5992930000000  0.4547960000000  0.5194300000000 1.0
C      1  0.4574990000000  0.5031430000000  0.4214420000000 1.0
C      1  0.5591530000000  0.4816120000000  0.4897110000000 1.0
C      1  0.5650600000000  0.4812710000000  0.5452760000000 1.0
C      1  0.4445730000000  0.5336670000000  0.5633370000000 1.0
C      1  0.4900360000000  0.6095440000000  0.5196660000000 1.0
C      1  0.4857290000000  0.4182640000000  0.5030630000000 1.0
C      1  0.5123240000000  0.4933570000000  0.5051630000000 1.0
C      1  0.5206970000000  0.6016750000000  0.4792670000000 1.0
C      1  0.5033450000000  0.6166910000000  0.4961320000000 1.0
C      1  0.4889300000000  0.5147980000000  0.5519770000000 1.0
C      1  0.4627140000000  0.4527950000000  0.4579180000000 1.0
C      1  0.4582990000000  0.4195200000000  0.5117950000000 1.0
C      1  0.4534260000000  0.4770320000000  0.4357330000000 1.0
C      1  0.5768020000000  0.4639360000000  0.5113500000000 1.0
C      1  0.4911630000000  0.5120510000000  0.5034880000000 1.0
C      1  0.4154370000000  0.5222030000000  0.5175750000000 1.0
C      1  0.5132480000000  0.5012180000000  0.5553690000000 1.0
C      1  0.4520920000000  0.5767670000000  0.5424460000000 1.0
C      1  0.5302850000000  0.5685040000000  0.5142260000000 1.0
C      1  0.5034500000000  0.4431990000000  0.4774840000000 1.0
C      1  0.5778330000000  0.4980100000000  0.4711940000000 1.0
C      1  0.4524420000000  0.4320470000000  0.5424920000000 1.0
C      1  0.5587070000000  0.5201750000000  0.4998770000000 1.0
C      1  0.4283670000000  0.4724500000000  0.4583570000000 1.0
C      1  0.5394300000000  0.5060940000000  0.4787650000000 1.0
C      1  0.4593420000000  0.4230410000000  0.5689370000000 1.0
C      1  0.4609670000000  0.4010400000000  0.6208310000000 1.0
C      1  0.5569210000000  0.5084870000000  0.5295530000000 1.0
C      1  0.4300720000000  0.5670990000000  0.4967630000000 1.0
C      1  0.5229310000000  0.4463860000000  0.4016140000000 1.0
C      1  0.4711500000000  0.5715430000000  0.5844460000000 1.0
C      1  0.5291450000000  0.4917170000000  0.5312310000000 1.0
C      1  0.5308160000000  0.4407970000000  0.5066200000000 1.0
C      1  0.4938330000000  0.4136040000000  0.4734630000000 1.0
C      1  0.4144810000000  0.5459580000000  0.5025920000000 1.0
C      1  0.4068610000000  0.4751460000000  0.5211270000000 1.0
C      1  0.5356560000000  0.4974470000000  0.4011490000000 1.0
C      1  0.4477040000000  0.5263880000000  0.4380470000000 1.0
C      1  0.5735770000000  0.4982290000000  0.4407510000000 1.0
C      1  0.5545910000000  0.4822210000000  0.4249990000000 1.0
C      1  0.4663300000000  0.5161120000000  0.5689010000000 1.0
C      1  0.5842050000000  0.5299050000000  0.4800590000000 1.0
C      1  0.4861670000000  0.5272680000000  0.5266130000000 1.0
C      1  0.5114630000000  0.5900200000000  0.4549420000000 1.0
C      1  0.5300190000000  0.5281510000000  0.4548350000000 1.0
C      1  0.4374960000000  0.4526870000000  0.5190580000000 1.0
END
