TITL C-2778433-5640-290 0.00391822843063153 125000 -879.596785346012 0 0 151 (C1) n - 1
REM
REM in /home/nfs/bkarasulu/CARBON/AIRSS/Generating-Clusters/REBO/Only-C1/SD-CG/HFTN-CG
REM
REM
REM
REM
REM
REM ./C.cell (11c1c37f851c82e70ff6c80c92926a4b)
REM
REM compiler GCC version 9.2.1 20190827 (Red Hat 9.2.1-1)
REM options -cpp -mtune=generic -march=x86-64 -g -O0 -fpre-include=/usr/include/finclude/math-vector-fortran.h
REM seed 1670125107 -1018598703 1322861648 -2109319661 838269970 -1727871195 -1077744775 555074135 423422264 1844658875 748315011 -24785381 -328677180 -987524618 1561906673 1814249551 -1477075621 15661285 -86329544 1145985931 -1259010852 1927033925 -1833894248 979729634 999072667 1634477236 -1455079151 -145132821 1200355044 -1838254142 2117535518 -621341604 -362704287
REM
CELL 1.54180   50.00000   50.00000   50.00000   90.00000   90.00000   90.00000
LATT -1
SFAC C  
C      1  0.4927080000000  0.5076630000000  0.5335760000000 1.0
C      1  0.5981690000000  0.4984760000000  0.5195850000000 1.0
C      1  0.4547960000000  0.5714000000000  0.5627990000000 1.0
C      1  0.5288120000000  0.5234810000000  0.4642750000000 1.0
C      1  0.4585970000000  0.5440580000000  0.4881080000000 1.0
C      1  0.4903920000000  0.5624770000000  0.5032710000000 1.0
C      1  0.5016840000000  0.5151790000000  0.5630100000000 1.0
C      1  0.5269480000000  0.6051750000000  0.4883550000000 1.0
C      1  0.4959740000000  0.5643240000000  0.5560610000000 1.0
C      1  0.5089520000000  0.5514570000000  0.5296210000000 1.0
C      1  0.4152150000000  0.4536780000000  0.4744030000000 1.0
C      1  0.5031950000000  0.4109080000000  0.4448440000000 1.0
C      1  0.5043680000000  0.6042040000000  0.5111880000000 1.0
C      1  0.4702910000000  0.4843010000000  0.5587980000000 1.0
C      1  0.5398400000000  0.4437080000000  0.5566390000000 1.0
C      1  0.5650070000000  0.4192360000000  0.5083940000000 1.0
C      1  0.5314460000000  0.5169130000000  0.5660700000000 1.0
C      1  0.5546400000000  0.5048510000000  0.4569330000000 1.0
C      1  0.4781920000000  0.3949880000000  0.5227820000000 1.0
C      1  0.4847980000000  0.5003740000000  0.5024890000000 1.0
C      1  0.5934990000000  0.4814380000000  0.4568420000000 1.0
C      1  0.5449800000000  0.4957190000000  0.5492620000000 1.0
C      1  0.5476390000000  0.5016870000000  0.4177630000000 1.0
C      1  0.5370820000000  0.4109240000000  0.5143630000000 1.0
C      1  0.4241160000000  0.4363910000000  0.4958550000000 1.0
C      1  0.4814460000000  0.4739210000000  0.4697680000000 1.0
C      1  0.5198110000000  0.5495000000000  0.4155480000000 1.0
C      1  0.4639660000000  0.5204850000000  0.4707470000000 1.0
C      1  0.4750760000000  0.5520740000000  0.5797650000000 1.0
C      1  0.4986760000000  0.5935620000000  0.5407550000000 1.0
C      1  0.4488260000000  0.4673290000000  0.4911740000000 1.0
C      1  0.4551500000000  0.5121060000000  0.5113600000000 1.0
C      1  0.5327710000000  0.4238630000000  0.4851850000000 1.0
C      1  0.5546390000000  0.4821110000000  0.5263760000000 1.0
C      1  0.5167810000000  0.4742980000000  0.5163880000000 1.0
C      1  0.4529300000000  0.5898230000000  0.5190790000000 1.0
C      1  0.4944400000000  0.6039600000000  0.4783400000000 1.0
C      1  0.4262130000000  0.5674380000000  0.4870890000000 1.0
C      1  0.4212680000000  0.5351960000000  0.4771610000000 1.0
C      1  0.4716780000000  0.5875870000000  0.4938580000000 1.0
C      1  0.5223960000000  0.4786930000000  0.4175540000000 1.0
C      1  0.4520980000000  0.5666930000000  0.4489860000000 1.0
C      1  0.5106340000000  0.3985380000000  0.5306800000000 1.0
C      1  0.4707390000000  0.5408620000000  0.5184510000000 1.0
C      1  0.4459520000000  0.4357980000000  0.5493790000000 1.0
C      1  0.4703340000000  0.4924370000000  0.4429510000000 1.0
C      1  0.5318040000000  0.5987790000000  0.5395230000000 1.0
C      1  0.4573600000000  0.5269290000000  0.5909110000000 1.0
C      1  0.5351540000000  0.4804480000000  0.5953310000000 1.0
C      1  0.5481240000000  0.5344340000000  0.4263260000000 1.0
C      1  0.4109000000000  0.5073190000000  0.4624280000000 1.0
C      1  0.4979580000000  0.5035200000000  0.4488470000000 1.0
C      1  0.4476450000000  0.5794900000000  0.4734040000000 1.0
C      1  0.4488220000000  0.4677480000000  0.5425380000000 1.0
C      1  0.5729220000000  0.4890030000000  0.4324120000000 1.0
C      1  0.5592850000000  0.5704280000000  0.5016500000000 1.0
C      1  0.4963270000000  0.5158360000000  0.6160370000000 1.0
C      1  0.5947590000000  0.5324200000000  0.5189960000000 1.0
C      1  0.4961130000000  0.5886570000000  0.4511520000000 1.0
C      1  0.4590930000000  0.5165130000000  0.5581970000000 1.0
C      1  0.5176680000000  0.5202350000000  0.4325160000000 1.0
C      1  0.4316340000000  0.4497220000000  0.4454840000000 1.0
C      1  0.5209940000000  0.5206460000000  0.6204140000000 1.0
C      1  0.4618340000000  0.4472810000000  0.4293550000000 1.0
C      1  0.5492410000000  0.5901160000000  0.4805970000000 1.0
C      1  0.5126670000000  0.4492330000000  0.4397940000000 1.0
C      1  0.4791280000000  0.3864560000000  0.4926110000000 1.0
C      1  0.5647250000000  0.4575790000000  0.4426940000000 1.0
C      1  0.4880820000000  0.5014960000000  0.5900840000000 1.0
C      1  0.4877440000000  0.4323810000000  0.4246050000000 1.0
C      1  0.4101270000000  0.4830120000000  0.4824190000000 1.0
C      1  0.5013380000000  0.5078340000000  0.4770420000000 1.0
C      1  0.4642480000000  0.4717000000000  0.4096300000000 1.0
C      1  0.4954600000000  0.3816180000000  0.4478280000000 1.0
C      1  0.4383460000000  0.5407770000000  0.4480250000000 1.0
C      1  0.5937980000000  0.5082620000000  0.5506030000000 1.0
C      1  0.5571940000000  0.5573690000000  0.5896420000000 1.0
C      1  0.5015290000000  0.4781650000000  0.5467590000000 1.0
C      1  0.5652100000000  0.4551130000000  0.5376220000000 1.0
C      1  0.5176590000000  0.5324370000000  0.5034850000000 1.0
C      1  0.5333470000000  0.4730820000000  0.4800070000000 1.0
C      1  0.5588120000000  0.5162930000000  0.4887340000000 1.0
C      1  0.4736450000000  0.5289860000000  0.4101950000000 1.0
C      1  0.4940990000000  0.4332660000000  0.5194550000000 1.0
C      1  0.5391520000000  0.4513300000000  0.5043520000000 1.0
C      1  0.5814820000000  0.4533960000000  0.4704500000000 1.0
C      1  0.4220300000000  0.4380890000000  0.5250350000000 1.0
C      1  0.4251640000000  0.5285820000000  0.5105000000000 1.0
C      1  0.3916830000000  0.4891250000000  0.5093520000000 1.0
C      1  0.4839050000000  0.4201300000000  0.4923600000000 1.0
C      1  0.5288600000000  0.4492480000000  0.4034680000000 1.0
C      1  0.5050000000000  0.4269300000000  0.4720300000000 1.0
C      1  0.5400600000000  0.5100780000000  0.6014310000000 1.0
C      1  0.4423680000000  0.4915250000000  0.4107040000000 1.0
C      1  0.5489190000000  0.4182070000000  0.4618460000000 1.0
C      1  0.4314290000000  0.4892880000000  0.5086030000000 1.0
C      1  0.4592580000000  0.4513210000000  0.4633170000000 1.0
C      1  0.5174130000000  0.5692640000000  0.4562630000000 1.0
C      1  0.4612360000000  0.4525960000000  0.5167170000000 1.0
C      1  0.4274830000000  0.5039930000000  0.5788550000000 1.0
C      1  0.5485880000000  0.4738890000000  0.5678760000000 1.0
C      1  0.4899880000000  0.5482050000000  0.4255030000000 1.0
C      1  0.4899310000000  0.4425440000000  0.5868290000000 1.0
C      1  0.5381550000000  0.4777700000000  0.4478430000000 1.0
C      1  0.5425670000000  0.5455740000000  0.4865070000000 1.0
C      1  0.4103200000000  0.5044220000000  0.5284230000000 1.0
C      1  0.5563860000000  0.5305720000000  0.5824850000000 1.0
C      1  0.4744780000000  0.5406120000000  0.5467400000000 1.0
C      1  0.4234950000000  0.5527700000000  0.5309100000000 1.0
C      1  0.5741590000000  0.5544660000000  0.5350600000000 1.0
C      1  0.4869220000000  0.4158900000000  0.5479770000000 1.0
C      1  0.4839270000000  0.3722930000000  0.4706250000000 1.0
C      1  0.5728220000000  0.4491130000000  0.4989320000000 1.0
C      1  0.4305240000000  0.5555650000000  0.5582910000000 1.0
C      1  0.4479790000000  0.4974100000000  0.4750280000000 1.0
C      1  0.4664680000000  0.5882180000000  0.5436090000000 1.0
C      1  0.5617830000000  0.5503570000000  0.4489000000000 1.0
C      1  0.5227840000000  0.4296240000000  0.5375100000000 1.0
C      1  0.4869520000000  0.4669170000000  0.5028910000000 1.0
C      1  0.5456090000000  0.5729290000000  0.4574960000000 1.0
C      1  0.4722890000000  0.4311870000000  0.5687440000000 1.0
C      1  0.5612410000000  0.5283130000000  0.5172810000000 1.0
C      1  0.5831720000000  0.5514130000000  0.4932780000000 1.0
C      1  0.5903660000000  0.4658050000000  0.5202330000000 1.0
C      1  0.4168620000000  0.4992220000000  0.4319570000000 1.0
C      1  0.4335320000000  0.4955700000000  0.5483210000000 1.0
C      1  0.5222180000000  0.4501460000000  0.5851540000000 1.0
C      1  0.5080140000000  0.4597370000000  0.4676540000000 1.0
C      1  0.5888450000000  0.4902290000000  0.4890730000000 1.0
C      1  0.5821600000000  0.5402360000000  0.4669000000000 1.0
C      1  0.5521110000000  0.5804180000000  0.5323040000000 1.0
C      1  0.4765520000000  0.5733910000000  0.4370310000000 1.0
C      1  0.4908470000000  0.4839280000000  0.4063040000000 1.0
C      1  0.4509540000000  0.4249800000000  0.4897040000000 1.0
C      1  0.4273110000000  0.5351770000000  0.5783230000000 1.0
C      1  0.4574850000000  0.4925830000000  0.5896580000000 1.0
C      1  0.5060700000000  0.4784910000000  0.5780580000000 1.0
C      1  0.4284910000000  0.5750580000000  0.5143540000000 1.0
C      1  0.4570060000000  0.4191020000000  0.5218390000000 1.0
C      1  0.5239780000000  0.5037470000000  0.5095600000000 1.0
C      1  0.5430000000000  0.4345860000000  0.4378360000000 1.0
C      1  0.5924250000000  0.5142560000000  0.4657310000000 1.0
C      1  0.5573560000000  0.4859340000000  0.4968450000000 1.0
C      1  0.5196040000000  0.4210630000000  0.4157420000000 1.0
C      1  0.4383280000000  0.4819190000000  0.4488340000000 1.0
C      1  0.4874030000000  0.5103220000000  0.3957680000000 1.0
C      1  0.5816830000000  0.5189720000000  0.5688830000000 1.0
C      1  0.5402280000000  0.5494860000000  0.5315890000000 1.0
C      1  0.5039040000000  0.5508380000000  0.4779150000000 1.0
C      1  0.4516520000000  0.5180820000000  0.4298250000000 1.0
C      1  0.4836700000000  0.5397050000000  0.4573490000000 1.0
END
