TITL C-2778435-5768-1240 0.00480421658309727 125000 -278.987473427173 0 0 51 (C1) n - 1
REM
REM in /home/nfs/bkarasulu/CARBON/AIRSS/Generating-Clusters/REBO/Only-C1/SD-CG/HFTN-CG
REM
REM
REM
REM
REM
REM ./C.cell (11c1c37f851c82e70ff6c80c92926a4b)
REM
REM compiler GCC version 9.2.1 20190827 (Red Hat 9.2.1-1)
REM options -cpp -mtune=generic -march=x86-64 -g -O0 -fpre-include=/usr/include/finclude/math-vector-fortran.h
REM seed 108268110 1876397735 1585018413 -1085699451 240550621 1211515858 764656141 18207047 676726592 631992975 -489514792 1311515990 551199499 2141245694 -2004434574 800360864 -1135065458 1798977894 -1123804338 -411404184 1827858079 1005259984 -1303830875 -687269127 -1558406233 -1216163330 -863626564 714895089 -2081813803 2029775912 -1068497676 1133115724 -453185454
REM
CELL 1.54180   50.00000   50.00000   50.00000   90.00000   90.00000   90.00000
LATT -1
SFAC C  
C      1  0.4501760000000  0.4826520000000  0.5087120000000 1.0
C      1  0.5181020000000  0.4602920000000  0.5366620000000 1.0
C      1  0.4570490000000  0.4982920000000  0.4614630000000 1.0
C      1  0.5250000000000  0.4887820000000  0.5061220000000 1.0
C      1  0.4612640000000  0.5296710000000  0.4518450000000 1.0
C      1  0.5627290000000  0.5245380000000  0.4943740000000 1.0
C      1  0.5167680000000  0.5347740000000  0.5312850000000 1.0
C      1  0.5078190000000  0.4926940000000  0.5575590000000 1.0
C      1  0.4577490000000  0.4846610000000  0.5418670000000 1.0
C      1  0.5068900000000  0.4426050000000  0.4855220000000 1.0
C      1  0.4446300000000  0.5282130000000  0.4976940000000 1.0
C      1  0.5428450000000  0.4665330000000  0.4607880000000 1.0
C      1  0.4733330000000  0.5322750000000  0.5577650000000 1.0
C      1  0.5198510000000  0.5157090000000  0.4462630000000 1.0
C      1  0.5400440000000  0.5375030000000  0.4727890000000 1.0
C      1  0.5244250000000  0.4542200000000  0.5051990000000 1.0
C      1  0.5537590000000  0.4760320000000  0.4915730000000 1.0
C      1  0.4925000000000  0.5463060000000  0.4927450000000 1.0
C      1  0.4719170000000  0.4445520000000  0.5228610000000 1.0
C      1  0.5385340000000  0.4802350000000  0.5516190000000 1.0
C      1  0.5626300000000  0.5014260000000  0.5086700000000 1.0
C      1  0.5126090000000  0.5187520000000  0.4949520000000 1.0
C      1  0.5197890000000  0.5683940000000  0.5261130000000 1.0
C      1  0.5133760000000  0.4895910000000  0.4680760000000 1.0
C      1  0.4904990000000  0.4692180000000  0.5186670000000 1.0
C      1  0.5442660000000  0.5044180000000  0.4651820000000 1.0
C      1  0.4870580000000  0.5593170000000  0.4616340000000 1.0
C      1  0.4894610000000  0.5044880000000  0.4399240000000 1.0
C      1  0.4930620000000  0.4482980000000  0.5563780000000 1.0
C      1  0.4802520000000  0.4750800000000  0.4514450000000 1.0
C      1  0.4401030000000  0.4542020000000  0.5009740000000 1.0
C      1  0.5679130000000  0.4861190000000  0.4555610000000 1.0
C      1  0.5308250000000  0.5465770000000  0.5031060000000 1.0
C      1  0.4387870000000  0.5293660000000  0.5252050000000 1.0
C      1  0.4796120000000  0.4400320000000  0.4936540000000 1.0
C      1  0.4944100000000  0.5490670000000  0.5498520000000 1.0
C      1  0.4843330000000  0.4762900000000  0.5574950000000 1.0
C      1  0.5096780000000  0.4587270000000  0.4586520000000 1.0
C      1  0.5175640000000  0.5480890000000  0.4512740000000 1.0
C      1  0.5155470000000  0.5059340000000  0.5320850000000 1.0
C      1  0.4898330000000  0.4784690000000  0.4900960000000 1.0
C      1  0.4887000000000  0.5206310000000  0.4706130000000 1.0
C      1  0.4535780000000  0.5160310000000  0.5456070000000 1.0
C      1  0.4628080000000  0.4620580000000  0.4768490000000 1.0
C      1  0.5575800000000  0.4954080000000  0.5364160000000 1.0
C      1  0.4608800000000  0.5475760000000  0.4804490000000 1.0
C      1  0.5669890000000  0.4530110000000  0.5025540000000 1.0
C      1  0.4447340000000  0.4536790000000  0.5346450000000 1.0
C      1  0.4891780000000  0.5383210000000  0.4348180000000 1.0
C      1  0.5000880000000  0.5793590000000  0.5457080000000 1.0
C      1  0.4484720000000  0.5015350000000  0.4886400000000 1.0
END
