TITL C-2778429-3646-1242 -0.00612630261529089 125000 -684.07433801979 0 0 117 (C1) n - 1
REM
REM in /home/nfs/bkarasulu/CARBON/AIRSS/Generating-Clusters/REBO/Only-C1/SD-CG/HFTN-CG
REM
REM
REM
REM
REM
REM ./C.cell (11c1c37f851c82e70ff6c80c92926a4b)
REM
REM compiler GCC version 9.2.1 20190827 (Red Hat 9.2.1-1)
REM options -cpp -mtune=generic -march=x86-64 -g -O0 -fpre-include=/usr/include/finclude/math-vector-fortran.h
REM seed -2026702668 796716874 -1876635101 160668322 326337004 425562392 1936865582 -1747068906 2033008464 -1448169959 -1501221643 -2143284557 -99627281 1862339093 414791054 -1867442307 208276707 -1953426750 1019285567 -525345305 762561749 74655950 -883668016 -2140085397 -1063417606 110066123 61985291 -2098987974 905588660 -1142801508 -1310825315 -346216801 234892237
REM
CELL 1.54180   50.00000   50.00000   50.00000   90.00000   90.00000   90.00000
LATT -1
SFAC C  
C      1  0.5664640000000  0.5378250000000  0.4914330000000 1.0
C      1  0.5141750000000  0.4355440000000  0.5284340000000 1.0
C      1  0.4680100000000  0.4013500000000  0.5280820000000 1.0
C      1  0.4994800000000  0.5262840000000  0.5509490000000 1.0
C      1  0.5203220000000  0.4707920000000  0.4867100000000 1.0
C      1  0.4722950000000  0.4911520000000  0.4911220000000 1.0
C      1  0.5764050000000  0.4516760000000  0.4711880000000 1.0
C      1  0.4993260000000  0.5300210000000  0.4694310000000 1.0
C      1  0.4466870000000  0.5604800000000  0.4398570000000 1.0
C      1  0.5371820000000  0.5317340000000  0.4820920000000 1.0
C      1  0.5605520000000  0.4422630000000  0.5502590000000 1.0
C      1  0.4920670000000  0.5579200000000  0.5545170000000 1.0
C      1  0.4887830000000  0.4183300000000  0.4551500000000 1.0
C      1  0.5227110000000  0.4473320000000  0.4403190000000 1.0
C      1  0.5419080000000  0.5662130000000  0.5514220000000 1.0
C      1  0.5167810000000  0.5756090000000  0.5418220000000 1.0
C      1  0.4606590000000  0.5588150000000  0.5530580000000 1.0
C      1  0.4725610000000  0.4660110000000  0.5221830000000 1.0
C      1  0.5316370000000  0.4815100000000  0.4067810000000 1.0
C      1  0.4714470000000  0.4388630000000  0.4549990000000 1.0
C      1  0.5210710000000  0.4929510000000  0.5056240000000 1.0
C      1  0.4271580000000  0.4904300000000  0.4605490000000 1.0
C      1  0.5132940000000  0.5199080000000  0.5245540000000 1.0
C      1  0.5340180000000  0.4827100000000  0.5420270000000 1.0
C      1  0.4350020000000  0.4935030000000  0.5303060000000 1.0
C      1  0.5077710000000  0.4729780000000  0.5948290000000 1.0
C      1  0.4501500000000  0.5456210000000  0.5816840000000 1.0
C      1  0.4238270000000  0.5471020000000  0.4613160000000 1.0
C      1  0.5687690000000  0.5432680000000  0.4605930000000 1.0
C      1  0.4495930000000  0.5268560000000  0.5466880000000 1.0
C      1  0.4739880000000  0.4161200000000  0.5520350000000 1.0
C      1  0.3991550000000  0.4773470000000  0.5238040000000 1.0
C      1  0.5637890000000  0.4317450000000  0.5231150000000 1.0
C      1  0.4211260000000  0.5338950000000  0.4865270000000 1.0
C      1  0.5349500000000  0.5428490000000  0.4089220000000 1.0
C      1  0.5885830000000  0.4861900000000  0.5396720000000 1.0
C      1  0.5112050000000  0.5469590000000  0.4937700000000 1.0
C      1  0.4569730000000  0.4602460000000  0.4328770000000 1.0
C      1  0.5284280000000  0.4767270000000  0.4574010000000 1.0
C      1  0.5096210000000  0.4458060000000  0.4901170000000 1.0
C      1  0.5067090000000  0.4988280000000  0.4185760000000 1.0
C      1  0.5125300000000  0.4594160000000  0.4156400000000 1.0
C      1  0.4230980000000  0.5435680000000  0.5139480000000 1.0
C      1  0.5123280000000  0.4622270000000  0.5685500000000 1.0
C      1  0.5568280000000  0.4673290000000  0.5023400000000 1.0
C      1  0.5871450000000  0.4805890000000  0.5102080000000 1.0
C      1  0.4963970000000  0.5102220000000  0.4961380000000 1.0
C      1  0.4688990000000  0.4183630000000  0.5053910000000 1.0
C      1  0.5492940000000  0.5082890000000  0.5119670000000 1.0
C      1  0.5168690000000  0.4240660000000  0.4559190000000 1.0
C      1  0.4194570000000  0.5215030000000  0.5368310000000 1.0
C      1  0.5739470000000  0.4973840000000  0.4353740000000 1.0
C      1  0.5026280000000  0.4218770000000  0.5539110000000 1.0
C      1  0.4636020000000  0.4907340000000  0.4185800000000 1.0
C      1  0.4967310000000  0.4852470000000  0.4467840000000 1.0
C      1  0.4329920000000  0.4486840000000  0.4883410000000 1.0
C      1  0.4826600000000  0.5161720000000  0.4452830000000 1.0
C      1  0.5894440000000  0.5071360000000  0.4946410000000 1.0
C      1  0.3703140000000  0.5107790000000  0.5448370000000 1.0
C      1  0.4849780000000  0.4645750000000  0.4146240000000 1.0
C      1  0.5600290000000  0.4641330000000  0.4575810000000 1.0
C      1  0.4723400000000  0.5703580000000  0.4517400000000 1.0
C      1  0.5549460000000  0.5192380000000  0.5707860000000 1.0
C      1  0.5364810000000  0.4608640000000  0.5236720000000 1.0
C      1  0.5285280000000  0.4230870000000  0.4838200000000 1.0
C      1  0.4604200000000  0.5113050000000  0.4678970000000 1.0
C      1  0.5626800000000  0.5396320000000  0.5461420000000 1.0
C      1  0.5761320000000  0.5109480000000  0.4635800000000 1.0
C      1  0.5102120000000  0.5494060000000  0.5816000000000 1.0
C      1  0.5768840000000  0.4641040000000  0.5587260000000 1.0
C      1  0.4825030000000  0.5158460000000  0.4055110000000 1.0
C      1  0.4836130000000  0.4910370000000  0.5303980000000 1.0
C      1  0.4248190000000  0.5048520000000  0.4847460000000 1.0
C      1  0.4971220000000  0.5533630000000  0.4447430000000 1.0
C      1  0.5537490000000  0.4944470000000  0.4828240000000 1.0
C      1  0.4877080000000  0.4420540000000  0.5107480000000 1.0
C      1  0.4548090000000  0.5576450000000  0.4941940000000 1.0
C      1  0.5043530000000  0.5892400000000  0.5197210000000 1.0
C      1  0.5338380000000  0.5137600000000  0.5953560000000 1.0
C      1  0.5366900000000  0.5097340000000  0.4575550000000 1.0
C      1  0.4440860000000  0.4939810000000  0.5033050000000 1.0
C      1  0.5426920000000  0.5667880000000  0.5081630000000 1.0
C      1  0.5017320000000  0.5779200000000  0.4904270000000 1.0
C      1  0.5040450000000  0.5386130000000  0.4189930000000 1.0
C      1  0.5297800000000  0.5191540000000  0.4305320000000 1.0
C      1  0.5411470000000  0.5774720000000  0.4837860000000 1.0
C      1  0.5174500000000  0.4113660000000  0.5747570000000 1.0
C      1  0.5052040000000  0.4867740000000  0.5486960000000 1.0
C      1  0.4486490000000  0.4565420000000  0.5353320000000 1.0
C      1  0.5771260000000  0.5266060000000  0.5197590000000 1.0
C      1  0.5342320000000  0.4450940000000  0.5615880000000 1.0
C      1  0.5080010000000  0.5016440000000  0.5941250000000 1.0
C      1  0.4544780000000  0.4373390000000  0.5557380000000 1.0
C      1  0.5393330000000  0.4229190000000  0.5116150000000 1.0
C      1  0.4423360000000  0.4642840000000  0.4635060000000 1.0
C      1  0.4439200000000  0.5048420000000  0.4388410000000 1.0
C      1  0.4247910000000  0.4613990000000  0.5157360000000 1.0
C      1  0.5177470000000  0.5701920000000  0.4613100000000 1.0
C      1  0.4601710000000  0.5292430000000  0.4938890000000 1.0
C      1  0.4608310000000  0.5174520000000  0.5770610000000 1.0
C      1  0.4760190000000  0.4707370000000  0.4661040000000 1.0
C      1  0.4311590000000  0.5322850000000  0.4314490000000 1.0
C      1  0.5508580000000  0.5644840000000  0.4561080000000 1.0
C      1  0.3946240000000  0.5019500000000  0.5350650000000 1.0
C      1  0.4869130000000  0.5482600000000  0.5160640000000 1.0
C      1  0.5573820000000  0.4880350000000  0.4161220000000 1.0
C      1  0.5839490000000  0.4475270000000  0.5026590000000 1.0
C      1  0.5372740000000  0.5480300000000  0.5753940000000 1.0
C      1  0.4720870000000  0.5751490000000  0.4798480000000 1.0
C      1  0.4759770000000  0.5775030000000  0.5213900000000 1.0
C      1  0.5596970000000  0.4930840000000  0.5563210000000 1.0
C      1  0.4702330000000  0.5197120000000  0.5244650000000 1.0
C      1  0.4455850000000  0.4243570000000  0.4909060000000 1.0
C      1  0.4892340000000  0.5128650000000  0.5748970000000 1.0
C      1  0.4645930000000  0.5358010000000  0.4246620000000 1.0
C      1  0.4445080000000  0.5661820000000  0.5240480000000 1.0
C      1  0.5395290000000  0.5394380000000  0.5218980000000 1.0
END
