TITL C-2778436-5916-840 0.0065149695590769 125000 -587.386029786144 0 0 101 (C1) n - 1
REM
REM in /home/nfs/bkarasulu/CARBON/AIRSS/Generating-Clusters/REBO/Only-C1/SD-CG/HFTN-CG
REM
REM
REM
REM
REM
REM ./C.cell (11c1c37f851c82e70ff6c80c92926a4b)
REM
REM compiler GCC version 9.2.1 20190827 (Red Hat 9.2.1-1)
REM options -cpp -mtune=generic -march=x86-64 -g -O0 -fpre-include=/usr/include/finclude/math-vector-fortran.h
REM seed 1661974155 644611259 -159604839 -1096554459 2101529980 861718164 1749876048 -9710547 411367001 -1396707648 1651298969 1598189660 935667679 1648793233 1247353926 278694206 430763291 -1218502189 560925759 -503014492 -248922645 1835650026 -1140388236 -291265841 1420068084 -1029261298 -1560004997 -372637775 246462028 1037194115 -820155204 1392293035 1648832526
REM
CELL 1.54180   50.00000   50.00000   50.00000   90.00000   90.00000   90.00000
LATT -1
SFAC C  
C      1  0.4725340000000  0.5220660000000  0.5367660000000 1.0
C      1  0.5434390000000  0.5169240000000  0.4582450000000 1.0
C      1  0.4218030000000  0.4900520000000  0.4694060000000 1.0
C      1  0.5094790000000  0.5763410000000  0.5394310000000 1.0
C      1  0.4271180000000  0.4768710000000  0.5179360000000 1.0
C      1  0.5235120000000  0.4585330000000  0.5469660000000 1.0
C      1  0.5452940000000  0.5245310000000  0.4251050000000 1.0
C      1  0.4658570000000  0.4322870000000  0.4601860000000 1.0
C      1  0.4461800000000  0.4998320000000  0.5352290000000 1.0
C      1  0.5716210000000  0.5443360000000  0.4654090000000 1.0
C      1  0.5247790000000  0.5084130000000  0.5838010000000 1.0
C      1  0.5526010000000  0.5522040000000  0.4419640000000 1.0
C      1  0.5636720000000  0.4636930000000  0.5272200000000 1.0
C      1  0.4794480000000  0.5314850000000  0.5061380000000 1.0
C      1  0.5191640000000  0.4327880000000  0.4455430000000 1.0
C      1  0.4790590000000  0.4522390000000  0.5197460000000 1.0
C      1  0.4500350000000  0.4390360000000  0.5434820000000 1.0
C      1  0.5777200000000  0.5368870000000  0.4980480000000 1.0
C      1  0.4337300000000  0.4629900000000  0.5467570000000 1.0
C      1  0.5318990000000  0.4325770000000  0.4951630000000 1.0
C      1  0.5275290000000  0.5574330000000  0.5616400000000 1.0
C      1  0.4274240000000  0.4668830000000  0.4499380000000 1.0
C      1  0.5329130000000  0.5400080000000  0.4744680000000 1.0
C      1  0.5416910000000  0.5531970000000  0.5351220000000 1.0
C      1  0.4286550000000  0.5473720000000  0.4933340000000 1.0
C      1  0.5022650000000  0.4636170000000  0.5727830000000 1.0
C      1  0.5714770000000  0.5664850000000  0.5120210000000 1.0
C      1  0.5147400000000  0.5363390000000  0.5749130000000 1.0
C      1  0.4737060000000  0.4797530000000  0.5338720000000 1.0
C      1  0.4897420000000  0.5170270000000  0.5666200000000 1.0
C      1  0.5620070000000  0.4689520000000  0.4720750000000 1.0
C      1  0.5711040000000  0.5035620000000  0.4987930000000 1.0
C      1  0.4664790000000  0.5080460000000  0.4923890000000 1.0
C      1  0.4600210000000  0.5266140000000  0.5760860000000 1.0
C      1  0.5216920000000  0.5587680000000  0.5128000000000 1.0
C      1  0.4796870000000  0.5559180000000  0.4837940000000 1.0
C      1  0.5485960000000  0.4410410000000  0.5212460000000 1.0
C      1  0.4807810000000  0.5818020000000  0.5252190000000 1.0
C      1  0.5596650000000  0.5304280000000  0.5260510000000 1.0
C      1  0.4111240000000  0.4933230000000  0.4959450000000 1.0
C      1  0.5007520000000  0.4463650000000  0.4960920000000 1.0
C      1  0.4391210000000  0.4419580000000  0.4663360000000 1.0
C      1  0.4846110000000  0.5824310000000  0.4970500000000 1.0
C      1  0.4334620000000  0.4769050000000  0.4201750000000 1.0
C      1  0.5027180000000  0.5069510000000  0.4123810000000 1.0
C      1  0.5310230000000  0.4602950000000  0.4491960000000 1.0
C      1  0.5203280000000  0.5522660000000  0.4385470000000 1.0
C      1  0.5133740000000  0.4840950000000  0.4946920000000 1.0
C      1  0.5797100000000  0.4762510000000  0.5088780000000 1.0
C      1  0.4988800000000  0.4931380000000  0.5442190000000 1.0
C      1  0.4904160000000  0.4858450000000  0.4558290000000 1.0
C      1  0.4441700000000  0.4779940000000  0.5686800000000 1.0
C      1  0.4864630000000  0.4526780000000  0.4341360000000 1.0
C      1  0.4717990000000  0.5210580000000  0.4548940000000 1.0
C      1  0.5356330000000  0.5098440000000  0.5533760000000 1.0
C      1  0.5404810000000  0.5087470000000  0.5097770000000 1.0
C      1  0.4103230000000  0.5211350000000  0.5028550000000 1.0
C      1  0.4390710000000  0.4537110000000  0.4970230000000 1.0
C      1  0.5743080000000  0.5107900000000  0.4680380000000 1.0
C      1  0.5331000000000  0.4876920000000  0.4693530000000 1.0
C      1  0.4534700000000  0.4906930000000  0.4146640000000 1.0
C      1  0.5349640000000  0.5919720000000  0.4906080000000 1.0
C      1  0.4410920000000  0.5073250000000  0.5685170000000 1.0
C      1  0.4671140000000  0.5519440000000  0.5625450000000 1.0
C      1  0.5134840000000  0.5280280000000  0.5000530000000 1.0
C      1  0.4792190000000  0.4138480000000  0.5043230000000 1.0
C      1  0.4853350000000  0.4151950000000  0.4763390000000 1.0
C      1  0.5156220000000  0.5318240000000  0.4153830000000 1.0
C      1  0.5067800000000  0.4594880000000  0.4174730000000 1.0
C      1  0.4388080000000  0.5552380000000  0.5226510000000 1.0
C      1  0.5514500000000  0.5635570000000  0.4842190000000 1.0
C      1  0.5033490000000  0.4211460000000  0.5206440000000 1.0
C      1  0.5223070000000  0.4815600000000  0.5913850000000 1.0
C      1  0.5659010000000  0.4861400000000  0.4465180000000 1.0
C      1  0.5076950000000  0.5961250000000  0.4880770000000 1.0
C      1  0.5124480000000  0.5226670000000  0.5344430000000 1.0
C      1  0.4532470000000  0.4309410000000  0.5133310000000 1.0
C      1  0.5470670000000  0.4929980000000  0.4264170000000 1.0
C      1  0.4938590000000  0.5482390000000  0.5424080000000 1.0
C      1  0.4520060000000  0.5419680000000  0.4736130000000 1.0
C      1  0.5249820000000  0.4836610000000  0.5250880000000 1.0
C      1  0.4274730000000  0.5269390000000  0.5271990000000 1.0
C      1  0.5557980000000  0.4817050000000  0.5504670000000 1.0
C      1  0.4610090000000  0.4700220000000  0.4482830000000 1.0
C      1  0.4591090000000  0.4731500000000  0.4807300000000 1.0
C      1  0.5566000000000  0.5917090000000  0.5119390000000 1.0
C      1  0.5132510000000  0.4190460000000  0.4699690000000 1.0
C      1  0.5000610000000  0.5136330000000  0.4714810000000 1.0
C      1  0.4438480000000  0.5095890000000  0.4681860000000 1.0
C      1  0.5694000000000  0.5121100000000  0.5498830000000 1.0
C      1  0.4778180000000  0.5024500000000  0.4286910000000 1.0
C      1  0.5248230000000  0.4286800000000  0.5362900000000 1.0
C      1  0.5418790000000  0.4648770000000  0.5743440000000 1.0
C      1  0.4809870000000  0.4456040000000  0.5533060000000 1.0
C      1  0.4592130000000  0.5675220000000  0.5376110000000 1.0
C      1  0.5211280000000  0.4840890000000  0.4152220000000 1.0
C      1  0.4694570000000  0.4677090000000  0.5761000000000 1.0
C      1  0.5022700000000  0.5471330000000  0.4646760000000 1.0
C      1  0.4852120000000  0.4831300000000  0.4951260000000 1.0
C      1  0.5489540000000  0.4417250000000  0.4705140000000 1.0
C      1  0.4915270000000  0.4538200000000  0.4681080000000 1.0
END
