TITL C-2778435-5768-1473 0.00421644546411986 125000 -1151.23562906908 0 0 196 (C1) n - 1
REM
REM in /home/nfs/bkarasulu/CARBON/AIRSS/Generating-Clusters/REBO/Only-C1/SD-CG/HFTN-CG
REM
REM
REM
REM
REM
REM ./C.cell (11c1c37f851c82e70ff6c80c92926a4b)
REM
REM compiler GCC version 9.2.1 20190827 (Red Hat 9.2.1-1)
REM options -cpp -mtune=generic -march=x86-64 -g -O0 -fpre-include=/usr/include/finclude/math-vector-fortran.h
REM seed -2065884975 -102788355 406143218 -641511312 1183497035 2008598433 1772269209 647436578 -1011120069 1820385505 -971253915 895136714 -1323985014 -992491537 -1783471118 -613503655 844640158 1472054002 -451730688 -1427967754 -1302245608 -1642351764 -566451612 1902718143 -1223955488 -945723487 -1159692303 -131803325 -1424996889 516401913 1335366416 -770340070 1346147872
REM
CELL 1.54180   50.00000   50.00000   50.00000   90.00000   90.00000   90.00000
LATT -1
SFAC C  
C      1  0.4896540000000  0.4039120000000  0.5612330000000 1.0
C      1  0.5633740000000  0.5022940000000  0.4419370000000 1.0
C      1  0.4147090000000  0.5915420000000  0.5094950000000 1.0
C      1  0.4649930000000  0.4509450000000  0.5107750000000 1.0
C      1  0.5406690000000  0.5284720000000  0.4008470000000 1.0
C      1  0.3835160000000  0.5294940000000  0.4782920000000 1.0
C      1  0.5540480000000  0.3979280000000  0.5096800000000 1.0
C      1  0.5863430000000  0.5623120000000  0.4923660000000 1.0
C      1  0.4879080000000  0.6121390000000  0.5047370000000 1.0
C      1  0.5704150000000  0.4753710000000  0.4739060000000 1.0
C      1  0.5546790000000  0.5455600000000  0.4259670000000 1.0
C      1  0.5394460000000  0.5292790000000  0.5676200000000 1.0
C      1  0.5256700000000  0.4983030000000  0.6076320000000 1.0
C      1  0.4242450000000  0.4847450000000  0.4724850000000 1.0
C      1  0.6193490000000  0.4924570000000  0.5213760000000 1.0
C      1  0.4235930000000  0.4422680000000  0.5750100000000 1.0
C      1  0.5698610000000  0.4023720000000  0.4839370000000 1.0
C      1  0.4600040000000  0.5475660000000  0.5193730000000 1.0
C      1  0.4526120000000  0.4453390000000  0.4735210000000 1.0
C      1  0.5037690000000  0.4762950000000  0.4933730000000 1.0
C      1  0.5067340000000  0.5303370000000  0.3993550000000 1.0
C      1  0.5367700000000  0.5982720000000  0.5263630000000 1.0
C      1  0.4661580000000  0.5659520000000  0.4844220000000 1.0
C      1  0.4450400000000  0.5179720000000  0.4311810000000 1.0
C      1  0.4578110000000  0.4176090000000  0.4344770000000 1.0
C      1  0.5401910000000  0.5469860000000  0.4567440000000 1.0
C      1  0.5339950000000  0.4390860000000  0.4736560000000 1.0
C      1  0.5937030000000  0.4208280000000  0.4938560000000 1.0
C      1  0.4325480000000  0.6125750000000  0.5103790000000 1.0
C      1  0.5305910000000  0.5417930000000  0.5093420000000 1.0
C      1  0.5134110000000  0.3927890000000  0.4819040000000 1.0
C      1  0.5106100000000  0.5203680000000  0.5694530000000 1.0
C      1  0.4340140000000  0.5719420000000  0.5545400000000 1.0
C      1  0.5187080000000  0.4510310000000  0.5349580000000 1.0
C      1  0.5201320000000  0.4658610000000  0.5986900000000 1.0
C      1  0.6129220000000  0.4576770000000  0.4892800000000 1.0
C      1  0.3899760000000  0.5047460000000  0.4674330000000 1.0
C      1  0.4609660000000  0.6088660000000  0.5201940000000 1.0
C      1  0.5131900000000  0.5571570000000  0.5842150000000 1.0
C      1  0.3978840000000  0.5053880000000  0.5399050000000 1.0
C      1  0.5049310000000  0.5738620000000  0.4790830000000 1.0
C      1  0.6010430000000  0.5163290000000  0.4449800000000 1.0
C      1  0.5970540000000  0.4603560000000  0.4592520000000 1.0
C      1  0.5460380000000  0.4968020000000  0.3920790000000 1.0
C      1  0.4583580000000  0.5330320000000  0.5935220000000 1.0
C      1  0.4343950000000  0.4559240000000  0.4988230000000 1.0
C      1  0.5053880000000  0.4936890000000  0.5617450000000 1.0
C      1  0.4724420000000  0.5770050000000  0.5148660000000 1.0
C      1  0.4805010000000  0.5510660000000  0.4065580000000 1.0
C      1  0.5543210000000  0.5023500000000  0.6070870000000 1.0
C      1  0.5776670000000  0.4694910000000  0.5808210000000 1.0
C      1  0.4820830000000  0.5633180000000  0.5719420000000 1.0
C      1  0.5103330000000  0.5879680000000  0.5075780000000 1.0
C      1  0.5797720000000  0.4516060000000  0.4940200000000 1.0
C      1  0.5625050000000  0.5713120000000  0.5120680000000 1.0
C      1  0.4176590000000  0.5338670000000  0.4408460000000 1.0
C      1  0.4513850000000  0.4966810000000  0.4560810000000 1.0
C      1  0.4795520000000  0.5225380000000  0.6100140000000 1.0
C      1  0.6038230000000  0.5422710000000  0.5010130000000 1.0
C      1  0.3866710000000  0.5583320000000  0.5390250000000 1.0
C      1  0.5775460000000  0.5519240000000  0.5432780000000 1.0
C      1  0.5564780000000  0.4566820000000  0.5575530000000 1.0
C      1  0.4161120000000  0.4584260000000  0.4525260000000 1.0
C      1  0.4590160000000  0.5463390000000  0.4239980000000 1.0
C      1  0.5547870000000  0.4195970000000  0.4615680000000 1.0
C      1  0.4626550000000  0.5879940000000  0.4615200000000 1.0
C      1  0.4649900000000  0.4602470000000  0.4021140000000 1.0
C      1  0.6002520000000  0.5380000000000  0.5302780000000 1.0
C      1  0.4472530000000  0.4883540000000  0.6041320000000 1.0
C      1  0.5087160000000  0.5270500000000  0.6005940000000 1.0
C      1  0.4692180000000  0.5088350000000  0.4767280000000 1.0
C      1  0.4724430000000  0.4951150000000  0.6167920000000 1.0
C      1  0.4129320000000  0.4299660000000  0.5463880000000 1.0
C      1  0.4059480000000  0.5071100000000  0.4440160000000 1.0
C      1  0.4128740000000  0.5775540000000  0.4783210000000 1.0
C      1  0.4914370000000  0.5389750000000  0.5562010000000 1.0
C      1  0.5242040000000  0.4212980000000  0.4971890000000 1.0
C      1  0.4450970000000  0.4863660000000  0.4992970000000 1.0
C      1  0.5213700000000  0.4328750000000  0.5903200000000 1.0
C      1  0.4692440000000  0.4692930000000  0.5343980000000 1.0
C      1  0.4977500000000  0.4769570000000  0.5336570000000 1.0
C      1  0.4472950000000  0.5580620000000  0.5961240000000 1.0
C      1  0.3955540000000  0.4837880000000  0.4908830000000 1.0
C      1  0.5618330000000  0.5805460000000  0.4582940000000 1.0
C      1  0.5457230000000  0.4345900000000  0.4069760000000 1.0
C      1  0.5372430000000  0.4972790000000  0.4354440000000 1.0
C      1  0.5157780000000  0.3726420000000  0.4624090000000 1.0
C      1  0.4636500000000  0.4041230000000  0.5475870000000 1.0
C      1  0.4087580000000  0.5414100000000  0.5263570000000 1.0
C      1  0.4917420000000  0.4317740000000  0.4194560000000 1.0
C      1  0.4092510000000  0.5800190000000  0.5360740000000 1.0
C      1  0.5484820000000  0.4564000000000  0.5244220000000 1.0
C      1  0.4355590000000  0.5527200000000  0.4864230000000 1.0
C      1  0.5592500000000  0.5809660000000  0.5448110000000 1.0
C      1  0.5662750000000  0.5281580000000  0.4603960000000 1.0
C      1  0.5187910000000  0.4545770000000  0.4011910000000 1.0
C      1  0.3908870000000  0.4988430000000  0.5174140000000 1.0
C      1  0.4072460000000  0.5427550000000  0.4969600000000 1.0
C      1  0.5195180000000  0.4881920000000  0.4701240000000 1.0
C      1  0.4844800000000  0.5297690000000  0.5289450000000 1.0
C      1  0.4345340000000  0.5483560000000  0.5362850000000 1.0
C      1  0.4846500000000  0.4873850000000  0.4236370000000 1.0
C      1  0.5004690000000  0.5747810000000  0.4165660000000 1.0
C      1  0.3609360000000  0.5568500000000  0.5456930000000 1.0
C      1  0.4939350000000  0.4209590000000  0.5854500000000 1.0
C      1  0.6072350000000  0.5249850000000  0.4761360000000 1.0
C      1  0.5687680000000  0.5109690000000  0.5139580000000 1.0
C      1  0.4789620000000  0.4864610000000  0.4992680000000 1.0
C      1  0.5910730000000  0.4870630000000  0.4418600000000 1.0
C      1  0.5485850000000  0.5889590000000  0.4863930000000 1.0
C      1  0.4487840000000  0.4634060000000  0.4492270000000 1.0
C      1  0.4542280000000  0.5290420000000  0.4936680000000 1.0
C      1  0.5871530000000  0.4197200000000  0.5272840000000 1.0
C      1  0.5146840000000  0.5479370000000  0.4260120000000 1.0
C      1  0.5307920000000  0.3836040000000  0.5080290000000 1.0
C      1  0.4446250000000  0.3960700000000  0.4926260000000 1.0
C      1  0.4921850000000  0.4143870000000  0.4714940000000 1.0
C      1  0.4920390000000  0.4565040000000  0.4313350000000 1.0
C      1  0.5287650000000  0.4425070000000  0.4348310000000 1.0
C      1  0.5334090000000  0.5592900000000  0.4847620000000 1.0
C      1  0.4438020000000  0.5093830000000  0.5801100000000 1.0
C      1  0.5863410000000  0.5329110000000  0.4261510000000 1.0
C      1  0.4785710000000  0.4236500000000  0.5161490000000 1.0
C      1  0.4026190000000  0.4538120000000  0.4995990000000 1.0
C      1  0.5376460000000  0.4021910000000  0.5535380000000 1.0
C      1  0.5611880000000  0.5369990000000  0.5101420000000 1.0
C      1  0.5016450000000  0.5146790000000  0.4825270000000 1.0
C      1  0.4831090000000  0.4435400000000  0.4820970000000 1.0
C      1  0.5720050000000  0.4215370000000  0.5469290000000 1.0
C      1  0.5459530000000  0.5441990000000  0.5460870000000 1.0
C      1  0.5471670000000  0.4281960000000  0.5696090000000 1.0
C      1  0.5097570000000  0.5208120000000  0.5120000000000 1.0
C      1  0.4501900000000  0.4903160000000  0.5518810000000 1.0
C      1  0.4436160000000  0.4568870000000  0.5975800000000 1.0
C      1  0.5614290000000  0.4807060000000  0.4082550000000 1.0
C      1  0.5695490000000  0.4937450000000  0.5645570000000 1.0
C      1  0.4899480000000  0.4579930000000  0.3895260000000 1.0
C      1  0.3973620000000  0.4380820000000  0.5257850000000 1.0
C      1  0.4989320000000  0.5004960000000  0.3962390000000 1.0
C      1  0.4872510000000  0.6039710000000  0.4557000000000 1.0
C      1  0.4974550000000  0.5992090000000  0.4298460000000 1.0
C      1  0.4169770000000  0.5029220000000  0.5608330000000 1.0
C      1  0.5603730000000  0.5158410000000  0.5814940000000 1.0
C      1  0.4283100000000  0.4737040000000  0.5721850000000 1.0
C      1  0.5480710000000  0.5769440000000  0.4319970000000 1.0
C      1  0.5554060000000  0.4319720000000  0.5064290000000 1.0
C      1  0.5263580000000  0.5655950000000  0.5281190000000 1.0
C      1  0.4452250000000  0.4255070000000  0.5563320000000 1.0
C      1  0.5438510000000  0.4873120000000  0.5487380000000 1.0
C      1  0.5122920000000  0.4034690000000  0.5435590000000 1.0
C      1  0.4891540000000  0.5906200000000  0.5412810000000 1.0
C      1  0.6283310000000  0.4691030000000  0.5083460000000 1.0
C      1  0.5710460000000  0.4780780000000  0.6080450000000 1.0
C      1  0.4544290000000  0.4447000000000  0.4253130000000 1.0
C      1  0.4326540000000  0.4199030000000  0.4815680000000 1.0
C      1  0.3831130000000  0.5615430000000  0.4809640000000 1.0
C      1  0.5670500000000  0.4311320000000  0.4334920000000 1.0
C      1  0.4335300000000  0.6011980000000  0.4654420000000 1.0
C      1  0.4220910000000  0.5602040000000  0.4495360000000 1.0
C      1  0.4706030000000  0.4371530000000  0.5911630000000 1.0
C      1  0.5420910000000  0.4690560000000  0.4632630000000 1.0
C      1  0.4590250000000  0.5807620000000  0.5654660000000 1.0
C      1  0.4717940000000  0.4020570000000  0.4543680000000 1.0
C      1  0.5226810000000  0.5768090000000  0.4511740000000 1.0
C      1  0.4658110000000  0.6079630000000  0.5533200000000 1.0
C      1  0.5773600000000  0.5582850000000  0.4661770000000 1.0
C      1  0.5231340000000  0.4786200000000  0.4193360000000 1.0
C      1  0.4623380000000  0.4538390000000  0.5625360000000 1.0
C      1  0.5147220000000  0.5959990000000  0.5508230000000 1.0
C      1  0.4871080000000  0.4702280000000  0.5768820000000 1.0
C      1  0.4606440000000  0.3993140000000  0.5170780000000 1.0
C      1  0.4616620000000  0.5076270000000  0.5200840000000 1.0
C      1  0.5023210000000  0.5335800000000  0.4475930000000 1.0
C      1  0.4095960000000  0.4371540000000  0.4737760000000 1.0
C      1  0.4570940000000  0.3828120000000  0.4701360000000 1.0
C      1  0.5175960000000  0.4623120000000  0.5647690000000 1.0
C      1  0.5050840000000  0.5039420000000  0.4442520000000 1.0
C      1  0.5745150000000  0.5236930000000  0.3996920000000 1.0
C      1  0.5500040000000  0.4872940000000  0.5125620000000 1.0
C      1  0.5211200000000  0.4965010000000  0.5251370000000 1.0
C      1  0.5298120000000  0.6126240000000  0.4812300000000 1.0
C      1  0.6156920000000  0.5156690000000  0.5401700000000 1.0
C      1  0.5079880000000  0.4249480000000  0.5224660000000 1.0
C      1  0.4484060000000  0.5673430000000  0.4408660000000 1.0
C      1  0.4511420000000  0.4874890000000  0.4174010000000 1.0
C      1  0.5568290000000  0.4625150000000  0.4332180000000 1.0
C      1  0.5015860000000  0.6137130000000  0.4782790000000 1.0
C      1  0.5873380000000  0.4299600000000  0.4612510000000 1.0
C      1  0.5065430000000  0.4511910000000  0.4593720000000 1.0
C      1  0.5198140000000  0.4890640000000  0.3810490000000 1.0
C      1  0.5817070000000  0.5029100000000  0.4772460000000 1.0
C      1  0.4892730000000  0.5453660000000  0.4739170000000 1.0
C      1  0.5325010000000  0.5759240000000  0.5662160000000 1.0
C      1  0.4206910000000  0.4856550000000  0.4326840000000 1.0
C      1  0.4906640000000  0.4755990000000  0.6087070000000 1.0
C      1  0.5963410000000  0.5035340000000  0.5073740000000 1.0
END
