TITL C-2778429-3646-91 -0.00186839665805938 125000 -1104.52915241932 0 0 191 (C1) n - 1
REM
REM in /home/nfs/bkarasulu/CARBON/AIRSS/Generating-Clusters/REBO/Only-C1/SD-CG/HFTN-CG
REM
REM
REM
REM
REM
REM ./C.cell (11c1c37f851c82e70ff6c80c92926a4b)
REM
REM compiler GCC version 9.2.1 20190827 (Red Hat 9.2.1-1)
REM options -cpp -mtune=generic -march=x86-64 -g -O0 -fpre-include=/usr/include/finclude/math-vector-fortran.h
REM seed 200305504 448826877 274961141 -749609801 -1216788709 10469854 -211205374 758111626 800978817 2092189665 84847198 -1190103506 872313507 -1740501730 461222662 69556398 -984544279 -886203818 1896246414 609525115 -1720515127 147657142 692662028 -1410215332 -94702646 2098389756 537100590 -2082626876 -296161234 -650826822 -1934622236 -2072311380 945107797
REM
CELL 1.54180   50.00000   50.00000   50.00000   90.00000   90.00000   90.00000
LATT -1
SFAC C  
C      1  0.5235050000000  0.5292500000000  0.6052010000000 1.0
C      1  0.5329410000000  0.4663760000000  0.4940140000000 1.0
C      1  0.4135260000000  0.4498510000000  0.4561190000000 1.0
C      1  0.5119610000000  0.5928560000000  0.5569790000000 1.0
C      1  0.4133850000000  0.5801780000000  0.4808660000000 1.0
C      1  0.5166480000000  0.6029090000000  0.4941630000000 1.0
C      1  0.5858630000000  0.5101730000000  0.4452640000000 1.0
C      1  0.3747450000000  0.5292930000000  0.5222980000000 1.0
C      1  0.5043730000000  0.4857000000000  0.3835060000000 1.0
C      1  0.5826410000000  0.5749700000000  0.5036280000000 1.0
C      1  0.5522280000000  0.4204160000000  0.4943860000000 1.0
C      1  0.5680180000000  0.5717740000000  0.5547710000000 1.0
C      1  0.4908770000000  0.5577710000000  0.5897310000000 1.0
C      1  0.4707010000000  0.4148380000000  0.4323700000000 1.0
C      1  0.4356620000000  0.5846400000000  0.5056850000000 1.0
C      1  0.5085360000000  0.5133740000000  0.5361380000000 1.0
C      1  0.4366140000000  0.5175860000000  0.4380120000000 1.0
C      1  0.5304140000000  0.5281270000000  0.4978600000000 1.0
C      1  0.5726960000000  0.5272140000000  0.4921370000000 1.0
C      1  0.5824350000000  0.4574500000000  0.4831700000000 1.0
C      1  0.5520710000000  0.5910200000000  0.5237350000000 1.0
C      1  0.5661720000000  0.6008630000000  0.4991400000000 1.0
C      1  0.5485580000000  0.5089840000000  0.5996410000000 1.0
C      1  0.4438340000000  0.5920020000000  0.4730190000000 1.0
C      1  0.5515890000000  0.5340730000000  0.4122220000000 1.0
C      1  0.5476580000000  0.5746580000000  0.4406480000000 1.0
C      1  0.4833880000000  0.4577210000000  0.6016610000000 1.0
C      1  0.4940040000000  0.4216940000000  0.4008290000000 1.0
C      1  0.4766310000000  0.5911410000000  0.4839380000000 1.0
C      1  0.4675970000000  0.5158410000000  0.4128250000000 1.0
C      1  0.5644090000000  0.5161170000000  0.5458490000000 1.0
C      1  0.5425080000000  0.3977490000000  0.4712470000000 1.0
C      1  0.4073840000000  0.5435600000000  0.4426420000000 1.0
C      1  0.4068960000000  0.5570040000000  0.5030110000000 1.0
C      1  0.4986620000000  0.4264210000000  0.4973450000000 1.0
C      1  0.4716590000000  0.4345480000000  0.4843330000000 1.0
C      1  0.4404160000000  0.4700290000000  0.5764120000000 1.0
C      1  0.5190950000000  0.5406640000000  0.4094440000000 1.0
C      1  0.6081610000000  0.5229080000000  0.5090450000000 1.0
C      1  0.5089490000000  0.4030180000000  0.5410520000000 1.0
C      1  0.4886950000000  0.5247130000000  0.5600950000000 1.0
C      1  0.4701270000000  0.3989430000000  0.5021100000000 1.0
C      1  0.4884390000000  0.5996730000000  0.4548820000000 1.0
C      1  0.6001330000000  0.5149600000000  0.4759780000000 1.0
C      1  0.5283790000000  0.4918330000000  0.4762810000000 1.0
C      1  0.4730980000000  0.4681200000000  0.4224870000000 1.0
C      1  0.3947260000000  0.5080000000000  0.5125300000000 1.0
C      1  0.4578640000000  0.5534030000000  0.5677180000000 1.0
C      1  0.4615530000000  0.4831800000000  0.5953600000000 1.0
C      1  0.5526600000000  0.4801890000000  0.4059450000000 1.0
C      1  0.4707140000000  0.4948270000000  0.4349870000000 1.0
C      1  0.4277040000000  0.4213260000000  0.5235670000000 1.0
C      1  0.4044210000000  0.5486000000000  0.4718500000000 1.0
C      1  0.5186820000000  0.5697400000000  0.4259360000000 1.0
C      1  0.5590680000000  0.5040120000000  0.4742510000000 1.0
C      1  0.4894380000000  0.5600970000000  0.4911100000000 1.0
C      1  0.4338800000000  0.5435740000000  0.5453620000000 1.0
C      1  0.4304480000000  0.5778620000000  0.5378740000000 1.0
C      1  0.5425990000000  0.4672280000000  0.4351270000000 1.0
C      1  0.4535960000000  0.4897180000000  0.3951780000000 1.0
C      1  0.5283860000000  0.4034870000000  0.4433630000000 1.0
C      1  0.4941360000000  0.5220370000000  0.4525150000000 1.0
C      1  0.5461240000000  0.5137660000000  0.4461770000000 1.0
C      1  0.4817760000000  0.5949980000000  0.5400960000000 1.0
C      1  0.5278730000000  0.4377530000000  0.4871660000000 1.0
C      1  0.4718940000000  0.4270520000000  0.5418510000000 1.0
C      1  0.5444260000000  0.5928740000000  0.5531160000000 1.0
C      1  0.5958460000000  0.4271840000000  0.4775610000000 1.0
C      1  0.4422670000000  0.4584380000000  0.5266080000000 1.0
C      1  0.5153940000000  0.4582900000000  0.6039610000000 1.0
C      1  0.4954090000000  0.4062950000000  0.4519230000000 1.0
C      1  0.5431120000000  0.5081020000000  0.5110300000000 1.0
C      1  0.4587650000000  0.5618590000000  0.5160970000000 1.0
C      1  0.5234880000000  0.5473450000000  0.5691110000000 1.0
C      1  0.5462680000000  0.4451720000000  0.5250830000000 1.0
C      1  0.4753920000000  0.4659060000000  0.4750290000000 1.0
C      1  0.4933940000000  0.4862520000000  0.5512060000000 1.0
C      1  0.4701560000000  0.4661700000000  0.5086310000000 1.0
C      1  0.5291720000000  0.4323840000000  0.5891560000000 1.0
C      1  0.4222290000000  0.4855920000000  0.5593530000000 1.0
C      1  0.4991160000000  0.5048350000000  0.5061780000000 1.0
C      1  0.5198550000000  0.5598260000000  0.6009480000000 1.0
C      1  0.5425110000000  0.5599220000000  0.5186510000000 1.0
C      1  0.6211510000000  0.4572860000000  0.5202640000000 1.0
C      1  0.5525010000000  0.4464010000000  0.4102860000000 1.0
C      1  0.4335050000000  0.4894440000000  0.4220140000000 1.0
C      1  0.5809240000000  0.5324550000000  0.5242600000000 1.0
C      1  0.5203480000000  0.4478010000000  0.5409760000000 1.0
C      1  0.5680400000000  0.5537370000000  0.5768310000000 1.0
C      1  0.4975500000000  0.4589230000000  0.4523940000000 1.0
C      1  0.4632740000000  0.5086950000000  0.5647320000000 1.0
C      1  0.5685670000000  0.4904120000000  0.5155760000000 1.0
C      1  0.5609460000000  0.5821800000000  0.4710310000000 1.0
C      1  0.4834370000000  0.4049780000000  0.5274050000000 1.0
C      1  0.4835040000000  0.3930310000000  0.4785710000000 1.0
C      1  0.3817120000000  0.5532900000000  0.5190380000000 1.0
C      1  0.4802210000000  0.5301660000000  0.5061210000000 1.0
C      1  0.5356910000000  0.5340430000000  0.5402420000000 1.0
C      1  0.4891800000000  0.5363640000000  0.3973140000000 1.0
C      1  0.4581950000000  0.5579070000000  0.4819050000000 1.0
C      1  0.5061190000000  0.4447390000000  0.4226070000000 1.0
C      1  0.4814980000000  0.5475310000000  0.5355900000000 1.0
C      1  0.5325650000000  0.5334800000000  0.4693850000000 1.0
C      1  0.5744280000000  0.4100850000000  0.4730930000000 1.0
C      1  0.4126900000000  0.5185680000000  0.4856110000000 1.0
C      1  0.4804200000000  0.4349960000000  0.5800910000000 1.0
C      1  0.5358110000000  0.4900080000000  0.5669360000000 1.0
C      1  0.5784500000000  0.4549850000000  0.5533990000000 1.0
C      1  0.5183250000000  0.5151570000000  0.5744900000000 1.0
C      1  0.4980100000000  0.5682630000000  0.4530290000000 1.0
C      1  0.5182230000000  0.5251670000000  0.4365850000000 1.0
C      1  0.4679880000000  0.5385400000000  0.5913080000000 1.0
C      1  0.5153080000000  0.4791640000000  0.5166690000000 1.0
C      1  0.4868520000000  0.5633870000000  0.4153510000000 1.0
C      1  0.5630140000000  0.5269710000000  0.5757270000000 1.0
C      1  0.4310180000000  0.5428680000000  0.5121050000000 1.0
C      1  0.4458570000000  0.5123920000000  0.5357930000000 1.0
C      1  0.5125890000000  0.5520880000000  0.5109180000000 1.0
C      1  0.3895820000000  0.4974660000000  0.4607260000000 1.0
C      1  0.5568820000000  0.4144100000000  0.5262330000000 1.0
C      1  0.4554550000000  0.4453750000000  0.4337100000000 1.0
C      1  0.4438770000000  0.4229700000000  0.5485800000000 1.0
C      1  0.4503480000000  0.4939600000000  0.5073140000000 1.0
C      1  0.5269790000000  0.5625930000000  0.4642150000000 1.0
C      1  0.5381580000000  0.4873410000000  0.5372570000000 1.0
C      1  0.4460020000000  0.5818850000000  0.4421140000000 1.0
C      1  0.5637130000000  0.5050820000000  0.4203820000000 1.0
C      1  0.5818260000000  0.4869020000000  0.5438450000000 1.0
C      1  0.5189080000000  0.3991470000000  0.4957160000000 1.0
C      1  0.4525530000000  0.5315670000000  0.4646730000000 1.0
C      1  0.5317130000000  0.4882220000000  0.3845080000000 1.0
C      1  0.3906800000000  0.4622280000000  0.4986450000000 1.0
C      1  0.4548960000000  0.4245250000000  0.4596100000000 1.0
C      1  0.4834730000000  0.4537160000000  0.5534730000000 1.0
C      1  0.4939340000000  0.4855770000000  0.5844990000000 1.0
C      1  0.4855250000000  0.6076520000000  0.5085960000000 1.0
C      1  0.4642650000000  0.4251140000000  0.4004070000000 1.0
C      1  0.6126950000000  0.4829250000000  0.4783070000000 1.0
C      1  0.3933300000000  0.4632970000000  0.5288820000000 1.0
C      1  0.5342540000000  0.5784910000000  0.4905410000000 1.0
C      1  0.4717450000000  0.5887350000000  0.4310970000000 1.0
C      1  0.5298870000000  0.3977000000000  0.5231480000000 1.0
C      1  0.4374910000000  0.5518400000000  0.4340420000000 1.0
C      1  0.4707610000000  0.5506180000000  0.4429440000000 1.0
C      1  0.4296090000000  0.4635060000000  0.4356570000000 1.0
C      1  0.4956440000000  0.5018160000000  0.4749620000000 1.0
C      1  0.4721320000000  0.5131790000000  0.6034620000000 1.0
C      1  0.5448310000000  0.4338930000000  0.4416350000000 1.0
C      1  0.5816780000000  0.4821100000000  0.4640440000000 1.0
C      1  0.4599070000000  0.4821220000000  0.5437880000000 1.0
C      1  0.4201690000000  0.4544940000000  0.5002230000000 1.0
C      1  0.5143180000000  0.6142230000000  0.5255340000000 1.0
C      1  0.4517220000000  0.5225750000000  0.4976050000000 1.0
C      1  0.4310630000000  0.4993000000000  0.4727690000000 1.0
C      1  0.4127110000000  0.4448050000000  0.5378880000000 1.0
C      1  0.4638460000000  0.4935080000000  0.4649930000000 1.0
C      1  0.4971870000000  0.4519770000000  0.5178610000000 1.0
C      1  0.6127020000000  0.4721720000000  0.5702730000000 1.0
C      1  0.5752690000000  0.4308530000000  0.5483160000000 1.0
C      1  0.5656900000000  0.5535810000000  0.4284530000000 1.0
C      1  0.5297360000000  0.4211860000000  0.4141520000000 1.0
C      1  0.4579740000000  0.5791780000000  0.5520880000000 1.0
C      1  0.6260760000000  0.5005870000000  0.5023640000000 1.0
C      1  0.6143860000000  0.4527880000000  0.4903890000000 1.0
C      1  0.4254590000000  0.4289860000000  0.4702010000000 1.0
C      1  0.5085910000000  0.5797630000000  0.5252230000000 1.0
C      1  0.6122940000000  0.4718800000000  0.5408980000000 1.0
C      1  0.4968720000000  0.5636730000000  0.5595670000000 1.0
C      1  0.4598400000000  0.4564060000000  0.3926640000000 1.0
C      1  0.5801490000000  0.5550550000000  0.4763750000000 1.0
C      1  0.5836500000000  0.5423200000000  0.4479230000000 1.0
C      1  0.4201320000000  0.5290290000000  0.5719630000000 1.0
C      1  0.4816190000000  0.5060230000000  0.3838720000000 1.0
C      1  0.4435390000000  0.4192560000000  0.4974520000000 1.0
C      1  0.5626580000000  0.4632560000000  0.5040740000000 1.0
C      1  0.4489480000000  0.4429190000000  0.5705140000000 1.0
C      1  0.5091160000000  0.4251750000000  0.5641790000000 1.0
C      1  0.5807560000000  0.5627200000000  0.5295080000000 1.0
C      1  0.4376660000000  0.5137470000000  0.5831920000000 1.0
C      1  0.5248180000000  0.4612080000000  0.5710820000000 1.0
C      1  0.4979030000000  0.5112190000000  0.6155080000000 1.0
C      1  0.5211850000000  0.4896990000000  0.6050280000000 1.0
C      1  0.5200770000000  0.4797060000000  0.4492360000000 1.0
C      1  0.3863790000000  0.4885980000000  0.4871780000000 1.0
C      1  0.4374570000000  0.4728800000000  0.4868070000000 1.0
C      1  0.4031390000000  0.5125990000000  0.4415380000000 1.0
C      1  0.5898940000000  0.4786670000000  0.5835320000000 1.0
C      1  0.5117300000000  0.4332680000000  0.4604570000000 1.0
C      1  0.5654650000000  0.4879420000000  0.5823030000000 1.0
C      1  0.4031860000000  0.4895510000000  0.5373570000000 1.0
C      1  0.4933630000000  0.4614650000000  0.3970250000000 1.0
END
