TITL C-2778427-5640-181 0.00383046334618894 125000 -828.86797061734 0 0 141 (C1) n - 1
REM
REM in /home/nfs/bkarasulu/CARBON/AIRSS/Generating-Clusters/REBO/Only-C1/SD-CG/HFTN-CG
REM
REM
REM
REM
REM
REM ./C.cell (11c1c37f851c82e70ff6c80c92926a4b)
REM
REM compiler GCC version 9.2.1 20190827 (Red Hat 9.2.1-1)
REM options -cpp -mtune=generic -march=x86-64 -g -O0 -fpre-include=/usr/include/finclude/math-vector-fortran.h
REM seed 1221791145 1759330615 1435880294 850584564 -669316654 -774791262 -201679003 -427676362 1196326590 101306576 -800187616 1725818225 2118224938 371538346 817628901 -2034705039 1264163432 62211687 -179580566 -526754542 -1441198562 -1877726440 2005987548 -1670500873 -1412799329 249099789 -210882551 -1287876918 -1595245677 1765038837 -10099364 -1916446356 921419710
REM
CELL 1.54180   50.00000   50.00000   50.00000   90.00000   90.00000   90.00000
LATT -1
SFAC C  
C      1  0.4770720000000  0.4287900000000  0.4584260000000 1.0
C      1  0.4147580000000  0.5425660000000  0.5301780000000 1.0
C      1  0.5172120000000  0.5984250000000  0.5449200000000 1.0
C      1  0.5882210000000  0.5122980000000  0.5543700000000 1.0
C      1  0.5093250000000  0.5816370000000  0.5734500000000 1.0
C      1  0.5263590000000  0.5176780000000  0.5062720000000 1.0
C      1  0.4870900000000  0.5550480000000  0.4928190000000 1.0
C      1  0.5495670000000  0.5474320000000  0.5418460000000 1.0
C      1  0.4989580000000  0.4967220000000  0.4304600000000 1.0
C      1  0.4707060000000  0.5212830000000  0.6003490000000 1.0
C      1  0.5069710000000  0.4578200000000  0.5357720000000 1.0
C      1  0.4381550000000  0.5151480000000  0.4292560000000 1.0
C      1  0.4268860000000  0.4002510000000  0.4946720000000 1.0
C      1  0.4866530000000  0.4815010000000  0.5366710000000 1.0
C      1  0.4712510000000  0.4528210000000  0.5080390000000 1.0
C      1  0.6010250000000  0.4293870000000  0.4073110000000 1.0
C      1  0.5402410000000  0.4767450000000  0.4765110000000 1.0
C      1  0.5985270000000  0.4702260000000  0.5167220000000 1.0
C      1  0.4837740000000  0.5177070000000  0.5067700000000 1.0
C      1  0.5831630000000  0.5562820000000  0.4901630000000 1.0
C      1  0.4530830000000  0.4228550000000  0.5455660000000 1.0
C      1  0.5330300000000  0.4828240000000  0.4150200000000 1.0
C      1  0.4826240000000  0.4092640000000  0.4837240000000 1.0
C      1  0.5058560000000  0.4812250000000  0.4006530000000 1.0
C      1  0.4132740000000  0.4784290000000  0.4832680000000 1.0
C      1  0.4298880000000  0.4448420000000  0.4447250000000 1.0
C      1  0.5092660000000  0.5588020000000  0.5409180000000 1.0
C      1  0.4811270000000  0.5822400000000  0.4743800000000 1.0
C      1  0.5223800000000  0.5829680000000  0.4368760000000 1.0
C      1  0.5119190000000  0.5225010000000  0.4777760000000 1.0
C      1  0.4130800000000  0.4569970000000  0.4622820000000 1.0
C      1  0.5716790000000  0.4832260000000  0.5560440000000 1.0
C      1  0.5183560000000  0.3938580000000  0.5121550000000 1.0
C      1  0.5597870000000  0.5171880000000  0.4546750000000 1.0
C      1  0.5191440000000  0.5510350000000  0.4606630000000 1.0
C      1  0.4893760000000  0.4493650000000  0.5733610000000 1.0
C      1  0.5421140000000  0.5944270000000  0.5227510000000 1.0
C      1  0.5895360000000  0.5254500000000  0.4968800000000 1.0
C      1  0.4509020000000  0.5691740000000  0.5226760000000 1.0
C      1  0.4619330000000  0.4528050000000  0.5711870000000 1.0
C      1  0.4669980000000  0.5912960000000  0.5304820000000 1.0
C      1  0.4894480000000  0.3965740000000  0.5148210000000 1.0
C      1  0.4445190000000  0.5271320000000  0.5608690000000 1.0
C      1  0.5101580000000  0.4939160000000  0.6006620000000 1.0
C      1  0.4030070000000  0.4341340000000  0.5154770000000 1.0
C      1  0.5464230000000  0.5779740000000  0.4330950000000 1.0
C      1  0.5332000000000  0.5403050000000  0.4334160000000 1.0
C      1  0.4817430000000  0.5676230000000  0.5591180000000 1.0
C      1  0.5056920000000  0.4750570000000  0.5751620000000 1.0
C      1  0.5363330000000  0.5718530000000  0.5550030000000 1.0
C      1  0.4599440000000  0.4922760000000  0.4182110000000 1.0
C      1  0.4774540000000  0.4428080000000  0.5343880000000 1.0
C      1  0.4218850000000  0.4293130000000  0.5351380000000 1.0
C      1  0.5293660000000  0.4366040000000  0.5474770000000 1.0
C      1  0.4939320000000  0.4639330000000  0.4922420000000 1.0
C      1  0.4268500000000  0.5120830000000  0.4546530000000 1.0
C      1  0.5847920000000  0.4745250000000  0.4878540000000 1.0
C      1  0.4034540000000  0.5151930000000  0.5204820000000 1.0
C      1  0.4564620000000  0.4414190000000  0.4363150000000 1.0
C      1  0.4701620000000  0.5310090000000  0.4829770000000 1.0
C      1  0.5958990000000  0.5035800000000  0.5129310000000 1.0
C      1  0.5044690000000  0.4556630000000  0.4217550000000 1.0
C      1  0.4844900000000  0.5068060000000  0.4018930000000 1.0
C      1  0.5363710000000  0.4674080000000  0.5209610000000 1.0
C      1  0.5068640000000  0.4313240000000  0.4440870000000 1.0
C      1  0.5803100000000  0.5353560000000  0.5434580000000 1.0
C      1  0.5387280000000  0.4956690000000  0.5372880000000 1.0
C      1  0.4386030000000  0.5673770000000  0.4966750000000 1.0
C      1  0.5028370000000  0.4271720000000  0.5609110000000 1.0
C      1  0.5498700000000  0.4991350000000  0.5768360000000 1.0
C      1  0.5329850000000  0.5813820000000  0.4993790000000 1.0
C      1  0.4455540000000  0.4779850000000  0.4723240000000 1.0
C      1  0.5019420000000  0.5269840000000  0.5520730000000 1.0
C      1  0.4473070000000  0.4803980000000  0.5776850000000 1.0
C      1  0.4463990000000  0.4889280000000  0.5029530000000 1.0
C      1  0.4976700000000  0.5340310000000  0.3956740000000 1.0
C      1  0.4451570000000  0.5418990000000  0.4242640000000 1.0
C      1  0.5822090000000  0.5227020000000  0.4295890000000 1.0
C      1  0.4837880000000  0.4107530000000  0.5411370000000 1.0
C      1  0.5676340000000  0.4920720000000  0.4326220000000 1.0
C      1  0.5948170000000  0.4947310000000  0.4718250000000 1.0
C      1  0.5296610000000  0.5246440000000  0.5380400000000 1.0
C      1  0.4452950000000  0.5651380000000  0.4469630000000 1.0
C      1  0.5385600000000  0.5506970000000  0.4875240000000 1.0
C      1  0.4030400000000  0.5030120000000  0.4943500000000 1.0
C      1  0.5336090000000  0.4736480000000  0.5617620000000 1.0
C      1  0.4747920000000  0.5523660000000  0.4361570000000 1.0
C      1  0.4886130000000  0.5051750000000  0.6151020000000 1.0
C      1  0.5683710000000  0.4944630000000  0.5246740000000 1.0
C      1  0.5349130000000  0.4489000000000  0.4360240000000 1.0
C      1  0.5203750000000  0.5139240000000  0.4467440000000 1.0
C      1  0.5818170000000  0.4447200000000  0.4175660000000 1.0
C      1  0.4714460000000  0.4591160000000  0.4686460000000 1.0
C      1  0.5495150000000  0.4979860000000  0.4988550000000 1.0
C      1  0.4168890000000  0.5140040000000  0.5580390000000 1.0
C      1  0.5209760000000  0.4501510000000  0.4991820000000 1.0
C      1  0.4501280000000  0.5767500000000  0.4726960000000 1.0
C      1  0.5581670000000  0.5259130000000  0.4834600000000 1.0
C      1  0.5323460000000  0.4180500000000  0.5022800000000 1.0
C      1  0.4745800000000  0.5487600000000  0.5935010000000 1.0
C      1  0.5107390000000  0.4898350000000  0.4790470000000 1.0
C      1  0.5854820000000  0.5467860000000  0.4611540000000 1.0
C      1  0.6199280000000  0.4142990000000  0.3972200000000 1.0
C      1  0.4340870000000  0.4606810000000  0.5532000000000 1.0
C      1  0.4618510000000  0.5065170000000  0.5751810000000 1.0
C      1  0.4516190000000  0.5591490000000  0.5706030000000 1.0
C      1  0.4238670000000  0.5594460000000  0.5504910000000 1.0
C      1  0.5171120000000  0.5449060000000  0.4070560000000 1.0
C      1  0.5317740000000  0.5121450000000  0.5944510000000 1.0
C      1  0.5132870000000  0.5487070000000  0.5106320000000 1.0
C      1  0.4958070000000  0.5695640000000  0.4498330000000 1.0
C      1  0.4644860000000  0.4940480000000  0.4504650000000 1.0
C      1  0.4398940000000  0.4003700000000  0.5256580000000 1.0
C      1  0.4712000000000  0.4613190000000  0.4212550000000 1.0
C      1  0.4927820000000  0.4796750000000  0.4556810000000 1.0
C      1  0.5524230000000  0.4311700000000  0.5244040000000 1.0
C      1  0.5348990000000  0.4449300000000  0.4688570000000 1.0
C      1  0.5375020000000  0.4875240000000  0.4456280000000 1.0
C      1  0.5016240000000  0.5575860000000  0.5923770000000 1.0
C      1  0.5582100000000  0.4525640000000  0.5509130000000 1.0
C      1  0.5993580000000  0.5189100000000  0.4583340000000 1.0
C      1  0.5625310000000  0.4601140000000  0.4278610000000 1.0
C      1  0.5232270000000  0.5393200000000  0.5973460000000 1.0
C      1  0.5123400000000  0.4198770000000  0.4748100000000 1.0
C      1  0.4889490000000  0.5007510000000  0.5614980000000 1.0
C      1  0.4930560000000  0.5968970000000  0.5252140000000 1.0
C      1  0.4415330000000  0.5166100000000  0.4852140000000 1.0
C      1  0.4566790000000  0.5431250000000  0.5347890000000 1.0
C      1  0.4060460000000  0.4179180000000  0.4927840000000 1.0
C      1  0.5643510000000  0.5510040000000  0.4351030000000 1.0
C      1  0.4699960000000  0.5245690000000  0.4533350000000 1.0
C      1  0.5023760000000  0.5852690000000  0.4988690000000 1.0
C      1  0.4749280000000  0.4922110000000  0.5129760000000 1.0
C      1  0.4594840000000  0.3929460000000  0.4999480000000 1.0
C      1  0.4217000000000  0.5417060000000  0.4968910000000 1.0
C      1  0.4293590000000  0.4762320000000  0.5233140000000 1.0
C      1  0.5674810000000  0.4570150000000  0.5115320000000 1.0
C      1  0.4149940000000  0.4887310000000  0.5489340000000 1.0
C      1  0.5735300000000  0.5548690000000  0.5187240000000 1.0
C      1  0.4048000000000  0.5245730000000  0.4728950000000 1.0
C      1  0.4816180000000  0.5330890000000  0.5292320000000 1.0
END
