TITL C-2778433-5640-809 -625.334343634864 125000 -712.336632977299 0 0 122 (C1) n - 1
REM
REM in /home/nfs/bkarasulu/CARBON/AIRSS/Generating-Clusters/REBO/Only-C1/SD-CG/HFTN-CG
REM
REM
REM
REM
REM
REM ./C.cell (11c1c37f851c82e70ff6c80c92926a4b)
REM
REM compiler GCC version 9.2.1 20190827 (Red Hat 9.2.1-1)
REM options -cpp -mtune=generic -march=x86-64 -g -O0 -fpre-include=/usr/include/finclude/math-vector-fortran.h
REM seed 1655474226 1217221446 -311092093 1179136735 -2040405519 1655568972 1880134420 -283212968 1480099302 607238711 998286464 161150215 -1816883352 1351255074 -1905451608 1786761705 -1672994717 2147398068 1201956607 1009667468 644553392 886015937 -399903232 -664813293 -2020177554 -2084051141 -765457269 -1360831451 -809399176 -281593801 -798607286 646616590 134938404
REM
CELL 1.54180   50.00000   50.00000   50.00000   90.00000   90.00000   90.00000
LATT -1
SFAC C  
C      1  0.5798690000000  0.4767550000000  0.4568520000000 1.0
C      1  0.4764090000000  0.5210040000000  0.4111400000000 1.0
C      1  0.4581020000000  0.5633730000000  0.5110250000000 1.0
C      1  0.5541190000000  0.4301040000000  0.4831470000000 1.0
C      1  0.4194570000000  0.5002250000000  0.5529670000000 1.0
C      1  0.5257740000000  0.4713310000000  0.5431500000000 1.0
C      1  0.4880390000000  0.4775040000000  0.4483620000000 1.0
C      1  0.4639310000000  0.4560810000000  0.5122280000000 1.0
C      1  0.4595460000000  0.5776850000000  0.4848540000000 1.0
C      1  0.4594540000000  0.4886910000000  0.4739110000000 1.0
C      1  0.5276980000000  0.5542700000000  0.4520480000000 1.0
C      1  0.5297130000000  0.5877560000000  0.4955020000000 1.0
C      1  0.6024630000000  0.5259530000000  0.4829070000000 1.0
C      1  0.4631530000000  0.3963180000000  0.5249530000000 1.0
C      1  0.5588290000000  0.4389420000000  0.5157890000000 1.0
C      1  0.5785680000000  0.5678300000000  0.5063530000000 1.0
C      1  0.5278880000000  0.4774920000000  0.4506540000000 1.0
C      1  0.4247230000000  0.4856080000000  0.4491030000000 1.0
C      1  0.4543550000000  0.6111690000000  0.4832130000000 1.0
C      1  0.4600530000000  0.4193350000000  0.4354860000000 1.0
C      1  0.5047370000000  0.5357230000000  0.4626940000000 1.0
C      1  0.5824630000000  0.4523530000000  0.5701960000000 1.0
C      1  0.4526560000000  0.5458100000000  0.5532180000000 1.0
C      1  0.4392190000000  0.4574820000000  0.4604100000000 1.0
C      1  0.5345260000000  0.4306860000000  0.4547910000000 1.0
C      1  0.5974580000000  0.5397710000000  0.4562070000000 1.0
C      1  0.5102480000000  0.5936050000000  0.4737480000000 1.0
C      1  0.4853030000000  0.4434280000000  0.5283620000000 1.0
C      1  0.5044010000000  0.5331520000000  0.5316730000000 1.0
C      1  0.4603540000000  0.4960510000000  0.4154160000000 1.0
C      1  0.5556950000000  0.5753300000000  0.4905930000000 1.0
C      1  0.5029770000000  0.5712720000000  0.5448770000000 1.0
C      1  0.4163130000000  0.4802930000000  0.5735310000000 1.0
C      1  0.5000350000000  0.5393800000000  0.4929030000000 1.0
C      1  0.4547060000000  0.4492880000000  0.5647320000000 1.0
C      1  0.5330630000000  0.4857880000000  0.4935440000000 1.0
C      1  0.5528510000000  0.4966850000000  0.4542720000000 1.0
C      1  0.5544330000000  0.5206940000000  0.4360940000000 1.0
C      1  0.5018440000000  0.4537400000000  0.4195250000000 1.0
C      1  0.5048290000000  0.4477680000000  0.5559080000000 1.0
C      1  0.4295770000000  0.4563330000000  0.5752590000000 1.0
C      1  0.6050630000000  0.5274110000000  0.5328640000000 1.0
C      1  0.4831660000000  0.5107350000000  0.5894980000000 1.0
C      1  0.4758920000000  0.5384480000000  0.5142690000000 1.0
C      1  0.4411800000000  0.4111270000000  0.5166300000000 1.0
C      1  0.5031800000000  0.5096590000000  0.5095110000000 1.0
C      1  0.5095830000000  0.4309230000000  0.4352910000000 1.0
C      1  0.4529280000000  0.4879160000000  0.5172350000000 1.0
C      1  0.5820530000000  0.4477490000000  0.4925170000000 1.0
C      1  0.5197180000000  0.5549230000000  0.5644550000000 1.0
C      1  0.6073070000000  0.5072010000000  0.5109680000000 1.0
C      1  0.5460730000000  0.5427560000000  0.5552250000000 1.0
C      1  0.4716600000000  0.4648050000000  0.4227580000000 1.0
C      1  0.4717500000000  0.4747950000000  0.5570110000000 1.0
C      1  0.5834460000000  0.5002290000000  0.4802700000000 1.0
C      1  0.5682260000000  0.4704260000000  0.5218370000000 1.0
C      1  0.4842230000000  0.6010640000000  0.4813190000000 1.0
C      1  0.5249340000000  0.4949230000000  0.4030460000000 1.0
C      1  0.5133930000000  0.4479850000000  0.5857710000000 1.0
C      1  0.4408870000000  0.5637460000000  0.5333300000000 1.0
C      1  0.4804920000000  0.5523200000000  0.5588680000000 1.0
C      1  0.5029640000000  0.5186710000000  0.4265610000000 1.0
C      1  0.4634860000000  0.5029470000000  0.5706730000000 1.0
C      1  0.5278550000000  0.5309680000000  0.4304330000000 1.0
C      1  0.5085150000000  0.4693170000000  0.5072360000000 1.0
C      1  0.4668770000000  0.4559040000000  0.4801570000000 1.0
C      1  0.5410120000000  0.4409820000000  0.5409280000000 1.0
C      1  0.4603940000000  0.5722090000000  0.4304560000000 1.0
C      1  0.5713070000000  0.5407600000000  0.4487820000000 1.0
C      1  0.5202930000000  0.5075270000000  0.5752430000000 1.0
C      1  0.5482140000000  0.4877940000000  0.5315060000000 1.0
C      1  0.5520190000000  0.5532280000000  0.4694320000000 1.0
C      1  0.5447480000000  0.4842070000000  0.5765370000000 1.0
C      1  0.5531500000000  0.5094310000000  0.4844820000000 1.0
C      1  0.5579410000000  0.4697460000000  0.4832030000000 1.0
C      1  0.5133650000000  0.5804690000000  0.4482190000000 1.0
C      1  0.4016400000000  0.4968720000000  0.4990000000000 1.0
C      1  0.5191490000000  0.5788400000000  0.5202990000000 1.0
C      1  0.5138260000000  0.4378540000000  0.5117700000000 1.0
C      1  0.4140430000000  0.5349180000000  0.4700750000000 1.0
C      1  0.5306010000000  0.5490860000000  0.5264560000000 1.0
C      1  0.4832270000000  0.4095230000000  0.5430000000000 1.0
C      1  0.4509390000000  0.4451920000000  0.4342120000000 1.0
C      1  0.4858470000000  0.4164060000000  0.4464460000000 1.0
C      1  0.5209030000000  0.4267080000000  0.4852180000000 1.0
C      1  0.4735480000000  0.5498070000000  0.4086210000000 1.0
C      1  0.5472690000000  0.5372500000000  0.4992800000000 1.0
C      1  0.4287880000000  0.5300250000000  0.5155390000000 1.0
C      1  0.5506660000000  0.5165730000000  0.5672620000000 1.0
C      1  0.4679420000000  0.4257490000000  0.5635710000000 1.0
C      1  0.5146370000000  0.4194000000000  0.5398930000000 1.0
C      1  0.4429120000000  0.5184550000000  0.5582560000000 1.0
C      1  0.5526460000000  0.4566590000000  0.4532810000000 1.0
C      1  0.4340140000000  0.4979990000000  0.4271480000000 1.0
C      1  0.4947980000000  0.4810640000000  0.5361620000000 1.0
C      1  0.4846500000000  0.5521940000000  0.4469280000000 1.0
C      1  0.5577860000000  0.4595850000000  0.5637080000000 1.0
C      1  0.4824550000000  0.4930640000000  0.4909130000000 1.0
C      1  0.4176430000000  0.5772380000000  0.5361430000000 1.0
C      1  0.4934490000000  0.5743510000000  0.4225020000000 1.0
C      1  0.4999670000000  0.5344630000000  0.5795390000000 1.0
C      1  0.4757190000000  0.4709250000000  0.5908110000000 1.0
C      1  0.4261470000000  0.4678920000000  0.5102910000000 1.0
C      1  0.5188030000000  0.4760980000000  0.4221030000000 1.0
C      1  0.5214860000000  0.4730120000000  0.5953450000000 1.0
C      1  0.5922200000000  0.4786100000000  0.5031480000000 1.0
C      1  0.4163380000000  0.4742510000000  0.4793980000000 1.0
C      1  0.5109400000000  0.5052480000000  0.4764400000000 1.0
C      1  0.4561450000000  0.5129650000000  0.4568720000000 1.0
C      1  0.5052190000000  0.4658100000000  0.4732300000000 1.0
C      1  0.4558340000000  0.5608220000000  0.4605830000000 1.0
C      1  0.5482230000000  0.5135730000000  0.5238000000000 1.0
C      1  0.4919640000000  0.4351570000000  0.4709450000000 1.0
C      1  0.4368570000000  0.4375410000000  0.5141960000000 1.0
C      1  0.5029870000000  0.5082450000000  0.5494850000000 1.0
C      1  0.4092710000000  0.4906230000000  0.5281220000000 1.0
C      1  0.4979520000000  0.4878770000000  0.6019690000000 1.0
C      1  0.4091900000000  0.5240910000000  0.4955130000000 1.0
C      1  0.4542360000000  0.5161850000000  0.5176860000000 1.0
C      1  0.4402020000000  0.5354680000000  0.4603190000000 1.0
C      1  0.5959250000000  0.5454220000000  0.5092900000000 1.0
C      1  0.4838730000000  0.5055500000000  0.4471100000000 1.0
END
