TITL C-2778426-5645-503 0.000708997222462126 125000 -558.550347667461 0 0 96 (C1) n - 1
REM
REM in /home/nfs/bkarasulu/CARBON/AIRSS/Generating-Clusters/REBO/Only-C1/SD-CG/HFTN-CG
REM
REM
REM
REM
REM
REM ./C.cell (11c1c37f851c82e70ff6c80c92926a4b)
REM
REM compiler GCC version 9.2.1 20190827 (Red Hat 9.2.1-1)
REM options -cpp -mtune=generic -march=x86-64 -g -O0 -fpre-include=/usr/include/finclude/math-vector-fortran.h
REM seed 1133638331 -1159126662 1216218426 -902263937 1658350634 -760320668 -1526960481 -2130809654 -431526849 -536567493 -1195151856 -1186971576 -1633251879 -498893976 -726983744 1246206537 613563505 -1839586097 -896760573 -1939835276 -2102414318 118138531 -1211246342 -437084162 -505739682 281660364 1952467878 -663414416 1676319010 1498150389 338662443 1664359880 -615299476
REM
CELL 1.54180   50.00000   50.00000   50.00000   90.00000   90.00000   90.00000
LATT -1
SFAC C  
C      1  0.4682150000000  0.5221100000000  0.5735460000000 1.0
C      1  0.6213510000000  0.4937030000000  0.5191050000000 1.0
C      1  0.4736350000000  0.4438280000000  0.5287950000000 1.0
C      1  0.5272770000000  0.4424310000000  0.4436830000000 1.0
C      1  0.5338270000000  0.5681970000000  0.5218230000000 1.0
C      1  0.4979870000000  0.5339670000000  0.5777420000000 1.0
C      1  0.5405320000000  0.5469530000000  0.5476760000000 1.0
C      1  0.5361940000000  0.4999400000000  0.5711760000000 1.0
C      1  0.4886010000000  0.4199840000000  0.5321590000000 1.0
C      1  0.5192090000000  0.4727480000000  0.4407760000000 1.0
C      1  0.4998290000000  0.5685880000000  0.5237580000000 1.0
C      1  0.4105790000000  0.4972620000000  0.5042820000000 1.0
C      1  0.5971840000000  0.5067910000000  0.5191850000000 1.0
C      1  0.4174150000000  0.5068610000000  0.4531180000000 1.0
C      1  0.5145600000000  0.4816020000000  0.5236180000000 1.0
C      1  0.5275450000000  0.5173080000000  0.4296560000000 1.0
C      1  0.4831760000000  0.4975920000000  0.4635740000000 1.0
C      1  0.4556000000000  0.4933890000000  0.5616660000000 1.0
C      1  0.5448540000000  0.4924670000000  0.4454510000000 1.0
C      1  0.4500800000000  0.4942800000000  0.5009840000000 1.0
C      1  0.4277760000000  0.5305700000000  0.4678680000000 1.0
C      1  0.5540860000000  0.4928920000000  0.4953140000000 1.0
C      1  0.5400090000000  0.5832470000000  0.4650360000000 1.0
C      1  0.4307120000000  0.4756860000000  0.4475100000000 1.0
C      1  0.5027090000000  0.4829710000000  0.5860790000000 1.0
C      1  0.5804490000000  0.5117320000000  0.4941730000000 1.0
C      1  0.5731400000000  0.5430420000000  0.4973580000000 1.0
C      1  0.4992800000000  0.4688320000000  0.5488400000000 1.0
C      1  0.5164660000000  0.4310110000000  0.4730070000000 1.0
C      1  0.5544020000000  0.4458670000000  0.5251120000000 1.0
C      1  0.4318350000000  0.5229170000000  0.4970700000000 1.0
C      1  0.4101550000000  0.4820060000000  0.4738450000000 1.0
C      1  0.5478680000000  0.4567190000000  0.5506450000000 1.0
C      1  0.5132280000000  0.4086670000000  0.4957980000000 1.0
C      1  0.5066260000000  0.5002750000000  0.5580690000000 1.0
C      1  0.4714290000000  0.5546760000000  0.4381960000000 1.0
C      1  0.4527160000000  0.5158750000000  0.4143430000000 1.0
C      1  0.5522130000000  0.5172740000000  0.5389670000000 1.0
C      1  0.4858540000000  0.5232520000000  0.5124130000000 1.0
C      1  0.5202440000000  0.4459300000000  0.5589620000000 1.0
C      1  0.4336320000000  0.5008830000000  0.4251780000000 1.0
C      1  0.4419380000000  0.4433480000000  0.5527750000000 1.0
C      1  0.4800840000000  0.4689690000000  0.4476340000000 1.0
C      1  0.5270530000000  0.5325930000000  0.4815960000000 1.0
C      1  0.4374510000000  0.4216950000000  0.5273030000000 1.0
C      1  0.4685050000000  0.4647260000000  0.5532040000000 1.0
C      1  0.4707160000000  0.5584860000000  0.5368800000000 1.0
C      1  0.5087920000000  0.5510560000000  0.4958580000000 1.0
C      1  0.4302280000000  0.4746970000000  0.5486700000000 1.0
C      1  0.5645890000000  0.4712630000000  0.4635010000000 1.0
C      1  0.4769020000000  0.5292180000000  0.4212810000000 1.0
C      1  0.5051450000000  0.4820140000000  0.4929980000000 1.0
C      1  0.4499950000000  0.5399310000000  0.5170310000000 1.0
C      1  0.4663840000000  0.5538200000000  0.5638200000000 1.0
C      1  0.4184020000000  0.4499160000000  0.5285510000000 1.0
C      1  0.4777950000000  0.5890470000000  0.5102310000000 1.0
C      1  0.5184920000000  0.5434630000000  0.5684030000000 1.0
C      1  0.5302570000000  0.5845700000000  0.4940330000000 1.0
C      1  0.4637710000000  0.5784970000000  0.4869850000000 1.0
C      1  0.4584290000000  0.4141790000000  0.5065980000000 1.0
C      1  0.4870290000000  0.4031300000000  0.5070360000000 1.0
C      1  0.4957320000000  0.4842440000000  0.4228310000000 1.0
C      1  0.5736670000000  0.5024890000000  0.4620050000000 1.0
C      1  0.4942680000000  0.5750800000000  0.4493310000000 1.0
C      1  0.5149370000000  0.4215650000000  0.5424290000000 1.0
C      1  0.4328840000000  0.5000590000000  0.5296830000000 1.0
C      1  0.5458720000000  0.4302510000000  0.4901210000000 1.0
C      1  0.4561130000000  0.5763200000000  0.4607330000000 1.0
C      1  0.5294940000000  0.5029490000000  0.4906390000000 1.0
C      1  0.5364580000000  0.4175780000000  0.5190970000000 1.0
C      1  0.5544020000000  0.4808550000000  0.5635840000000 1.0
C      1  0.5528360000000  0.4423960000000  0.4611950000000 1.0
C      1  0.5046480000000  0.4620250000000  0.4699550000000 1.0
C      1  0.5235400000000  0.5677070000000  0.4465760000000 1.0
C      1  0.5025890000000  0.5794150000000  0.4784320000000 1.0
C      1  0.5689310000000  0.5316490000000  0.4511390000000 1.0
C      1  0.5254780000000  0.5396910000000  0.4505970000000 1.0
C      1  0.4495540000000  0.4303350000000  0.4458260000000 1.0
C      1  0.5090730000000  0.4584710000000  0.5861810000000 1.0
C      1  0.5570210000000  0.5448120000000  0.4740200000000 1.0
C      1  0.4500630000000  0.5227390000000  0.5447210000000 1.0
C      1  0.4784600000000  0.4996440000000  0.4953440000000 1.0
C      1  0.4996680000000  0.5124320000000  0.4196300000000 1.0
C      1  0.4530780000000  0.4564580000000  0.4469110000000 1.0
C      1  0.5658010000000  0.5586350000000  0.5193870000000 1.0
C      1  0.4413360000000  0.5500450000000  0.4535070000000 1.0
C      1  0.4410840000000  0.4662780000000  0.4952160000000 1.0
C      1  0.4092370000000  0.4631650000000  0.5020400000000 1.0
C      1  0.5351900000000  0.4976130000000  0.5302150000000 1.0
C      1  0.5752610000000  0.5483800000000  0.5462190000000 1.0
C      1  0.4578920000000  0.4459330000000  0.5030750000000 1.0
C      1  0.5564320000000  0.5317870000000  0.4267100000000 1.0
C      1  0.5833880000000  0.5180360000000  0.5415860000000 1.0
C      1  0.5592240000000  0.4611290000000  0.4958630000000 1.0
C      1  0.4971120000000  0.5198300000000  0.5371060000000 1.0
C      1  0.4748410000000  0.5510600000000  0.4981530000000 1.0
END
