TITL C-2778428-5639-87 -0.00229275103715036 125000 -403.256805186695 0 0 71 (C1) n - 1
REM
REM in /home/nfs/bkarasulu/CARBON/AIRSS/Generating-Clusters/REBO/Only-C1/SD-CG/HFTN-CG
REM
REM
REM
REM
REM
REM ./C.cell (11c1c37f851c82e70ff6c80c92926a4b)
REM
REM compiler GCC version 9.2.1 20190827 (Red Hat 9.2.1-1)
REM options -cpp -mtune=generic -march=x86-64 -g -O0 -fpre-include=/usr/include/finclude/math-vector-fortran.h
REM seed 1723936278 -230178800 -1699276543 417671323 -2052751903 -1406977116 1800540632 -1106041238 1414385331 733529951 1274613677 -331215452 -1755438938 481018523 -700240957 1127097340 1336065235 -760635829 1186237113 1651906093 1982457207 1148273177 -2014350176 1599061276 1759541394 1162620579 214253865 777997774 1687371510 1331139559 1277292566 713440169 1843800361
REM
CELL 1.54180   50.00000   50.00000   50.00000   90.00000   90.00000   90.00000
LATT -1
SFAC C  
C      1  0.5606680000000  0.4619570000000  0.5575840000000 1.0
C      1  0.5254720000000  0.5591880000000  0.5486360000000 1.0
C      1  0.5705780000000  0.5152770000000  0.5454510000000 1.0
C      1  0.5745760000000  0.4834210000000  0.4511390000000 1.0
C      1  0.4274300000000  0.5006980000000  0.5144410000000 1.0
C      1  0.5360140000000  0.4854640000000  0.5182520000000 1.0
C      1  0.5037170000000  0.4637390000000  0.4380270000000 1.0
C      1  0.5283490000000  0.4380490000000  0.4813760000000 1.0
C      1  0.4838700000000  0.4809720000000  0.4710330000000 1.0
C      1  0.4517340000000  0.5235970000000  0.4479400000000 1.0
C      1  0.4364230000000  0.5206470000000  0.5328580000000 1.0
C      1  0.5393730000000  0.5477220000000  0.4084380000000 1.0
C      1  0.5601660000000  0.5057270000000  0.4648400000000 1.0
C      1  0.5474080000000  0.4487040000000  0.5016510000000 1.0
C      1  0.4516090000000  0.4385740000000  0.4833150000000 1.0
C      1  0.5620320000000  0.5268690000000  0.5170990000000 1.0
C      1  0.5244370000000  0.4508310000000  0.4527770000000 1.0
C      1  0.5363520000000  0.5321070000000  0.4831260000000 1.0
C      1  0.4904030000000  0.4943200000000  0.5765420000000 1.0
C      1  0.4695620000000  0.5707110000000  0.4827590000000 1.0
C      1  0.4406530000000  0.5450810000000  0.5167260000000 1.0
C      1  0.4953250000000  0.4425420000000  0.5190880000000 1.0
C      1  0.5502040000000  0.5442360000000  0.4612690000000 1.0
C      1  0.5697740000000  0.5112620000000  0.4940860000000 1.0
C      1  0.4942470000000  0.5469990000000  0.5544270000000 1.0
C      1  0.4570780000000  0.4725460000000  0.5466760000000 1.0
C      1  0.4992820000000  0.5789860000000  0.4932920000000 1.0
C      1  0.4431100000000  0.5540270000000  0.4879260000000 1.0
C      1  0.4707930000000  0.4611620000000  0.5192080000000 1.0
C      1  0.4930190000000  0.4105960000000  0.5142560000000 1.0
C      1  0.5165940000000  0.5532230000000  0.4960520000000 1.0
C      1  0.4601630000000  0.5025790000000  0.4719700000000 1.0
C      1  0.5070860000000  0.4937810000000  0.4350520000000 1.0
C      1  0.5322160000000  0.5106340000000  0.4496610000000 1.0
C      1  0.5001160000000  0.4323250000000  0.4890290000000 1.0
C      1  0.5095340000000  0.4696900000000  0.5657050000000 1.0
C      1  0.5212960000000  0.4773560000000  0.4824110000000 1.0
C      1  0.5594140000000  0.4788530000000  0.4944300000000 1.0
C      1  0.5169690000000  0.4612070000000  0.5278750000000 1.0
C      1  0.4973520000000  0.5910850000000  0.5212580000000 1.0
C      1  0.4888520000000  0.5640200000000  0.5288840000000 1.0
C      1  0.5305280000000  0.5059390000000  0.4916990000000 1.0
C      1  0.5015920000000  0.5090470000000  0.4644710000000 1.0
C      1  0.4337540000000  0.4814100000000  0.4686670000000 1.0
C      1  0.5020560000000  0.4900370000000  0.5387190000000 1.0
C      1  0.4751430000000  0.4559860000000  0.4415420000000 1.0
C      1  0.4880870000000  0.5085850000000  0.4154530000000 1.0
C      1  0.4345610000000  0.4592220000000  0.4901710000000 1.0
C      1  0.4333880000000  0.5321010000000  0.4714340000000 1.0
C      1  0.4234360000000  0.5078210000000  0.4861300000000 1.0
C      1  0.4795630000000  0.4467900000000  0.4722260000000 1.0
C      1  0.4782770000000  0.5476200000000  0.5055870000000 1.0
C      1  0.4927340000000  0.4781180000000  0.5012870000000 1.0
C      1  0.5244510000000  0.4969550000000  0.5773270000000 1.0
C      1  0.5389580000000  0.5048060000000  0.5409080000000 1.0
C      1  0.4662140000000  0.5222570000000  0.4243830000000 1.0
C      1  0.5529400000000  0.4442130000000  0.5295730000000 1.0
C      1  0.4598530000000  0.5199420000000  0.5004720000000 1.0
C      1  0.5560870000000  0.4919800000000  0.5657710000000 1.0
C      1  0.4386920000000  0.4724870000000  0.5182500000000 1.0
C      1  0.5126290000000  0.5223290000000  0.5420660000000 1.0
C      1  0.5305780000000  0.4482210000000  0.5550840000000 1.0
C      1  0.5489190000000  0.4675880000000  0.4648140000000 1.0
C      1  0.5407040000000  0.5376800000000  0.4335100000000 1.0
C      1  0.4507350000000  0.4703160000000  0.4413480000000 1.0
C      1  0.4970020000000  0.5268880000000  0.4878090000000 1.0
C      1  0.4881490000000  0.5075560000000  0.5141220000000 1.0
C      1  0.4675030000000  0.5404860000000  0.5673250000000 1.0
C      1  0.5337510000000  0.5407700000000  0.5219790000000 1.0
C      1  0.4643060000000  0.4934620000000  0.5638760000000 1.0
C      1  0.4521680000000  0.5186240000000  0.5574280000000 1.0
END
