TITL C-2778423-5760-1417 -0.00324449434192972 125000 -929.726294811455 0 0 163 (C1) n - 1
REM
REM in /home/nfs/bkarasulu/CARBON/AIRSS/Generating-Clusters/REBO/Only-C1/SD-CG/HFTN-CG
REM
REM
REM
REM
REM
REM ./C.cell (11c1c37f851c82e70ff6c80c92926a4b)
REM
REM compiler GCC version 9.2.1 20190827 (Red Hat 9.2.1-1)
REM options -cpp -mtune=generic -march=x86-64 -g -O0 -fpre-include=/usr/include/finclude/math-vector-fortran.h
REM seed -1399685532 -231834864 -1723550098 -1984737675 -508297928 399666195 -1761003412 69742735 -748119762 -30007649 1158966020 -1474945419 883319198 2121759083 558165430 -1359538645 1962528547 951791618 654672387 262533890 1441307802 -1236873373 -91069106 1432913031 1449275401 -945460343 -1133512003 -1243528066 366939549 -389768262 653009354 278756881 -1604501380
REM
CELL 1.54180   50.00000   50.00000   50.00000   90.00000   90.00000   90.00000
LATT -1
SFAC C  
C      1  0.4709400000000  0.3983190000000  0.4990360000000 1.0
C      1  0.5113790000000  0.5704230000000  0.4306350000000 1.0
C      1  0.4537550000000  0.4169930000000  0.5147290000000 1.0
C      1  0.4287750000000  0.4941430000000  0.5166000000000 1.0
C      1  0.4925790000000  0.6058070000000  0.5007160000000 1.0
C      1  0.4503480000000  0.4900220000000  0.4920990000000 1.0
C      1  0.4532240000000  0.5637780000000  0.4371860000000 1.0
C      1  0.4453480000000  0.5495760000000  0.5575230000000 1.0
C      1  0.4488080000000  0.5360820000000  0.5265010000000 1.0
C      1  0.5898800000000  0.5144600000000  0.4807470000000 1.0
C      1  0.4724110000000  0.5551900000000  0.5690170000000 1.0
C      1  0.5508150000000  0.5020250000000  0.4106980000000 1.0
C      1  0.5847620000000  0.4453620000000  0.5290150000000 1.0
C      1  0.4700880000000  0.5219660000000  0.5057250000000 1.0
C      1  0.4788260000000  0.5227820000000  0.4260580000000 1.0
C      1  0.5174320000000  0.6005590000000  0.4845690000000 1.0
C      1  0.4048710000000  0.5281130000000  0.5136970000000 1.0
C      1  0.4871300000000  0.4139000000000  0.4760910000000 1.0
C      1  0.5612240000000  0.5012310000000  0.4742320000000 1.0
C      1  0.5656390000000  0.5843500000000  0.5358230000000 1.0
C      1  0.5979160000000  0.4623180000000  0.4768830000000 1.0
C      1  0.4691600000000  0.5244110000000  0.4779210000000 1.0
C      1  0.5313710000000  0.4625910000000  0.5121560000000 1.0
C      1  0.5079880000000  0.4465140000000  0.4397940000000 1.0
C      1  0.4790310000000  0.5616510000000  0.4672370000000 1.0
C      1  0.5398570000000  0.5650250000000  0.5290330000000 1.0
C      1  0.5622080000000  0.4286970000000  0.5370810000000 1.0
C      1  0.5543830000000  0.4532810000000  0.5841550000000 1.0
C      1  0.5025680000000  0.5670380000000  0.5151870000000 1.0
C      1  0.5300210000000  0.3945760000000  0.4884220000000 1.0
C      1  0.4260610000000  0.5655990000000  0.4524030000000 1.0
C      1  0.5098900000000  0.4838950000000  0.4099440000000 1.0
C      1  0.4621560000000  0.4806540000000  0.5783650000000 1.0
C      1  0.5571630000000  0.4235230000000  0.4606730000000 1.0
C      1  0.4977080000000  0.5386210000000  0.5432760000000 1.0
C      1  0.5631280000000  0.5757790000000  0.4631070000000 1.0
C      1  0.5392910000000  0.4679700000000  0.5429350000000 1.0
C      1  0.5119990000000  0.4364140000000  0.4702400000000 1.0
C      1  0.5672510000000  0.5366490000000  0.5084730000000 1.0
C      1  0.5340680000000  0.4734550000000  0.4537020000000 1.0
C      1  0.4271090000000  0.4866440000000  0.4692670000000 1.0
C      1  0.5194910000000  0.4103200000000  0.5380150000000 1.0
C      1  0.5307780000000  0.5163820000000  0.5428290000000 1.0
C      1  0.4617260000000  0.4849190000000  0.4278100000000 1.0
C      1  0.5554900000000  0.5401080000000  0.4220020000000 1.0
C      1  0.5108500000000  0.5249130000000  0.4796960000000 1.0
C      1  0.4906970000000  0.4907070000000  0.5625420000000 1.0
C      1  0.5397670000000  0.6039060000000  0.5368450000000 1.0
C      1  0.4610280000000  0.4415330000000  0.5837540000000 1.0
C      1  0.5420050000000  0.5853500000000  0.5015400000000 1.0
C      1  0.5838820000000  0.4941320000000  0.4365500000000 1.0
C      1  0.5320980000000  0.5129990000000  0.3938810000000 1.0
C      1  0.4905010000000  0.4246930000000  0.5282110000000 1.0
C      1  0.5875980000000  0.4699310000000  0.5523040000000 1.0
C      1  0.4135370000000  0.5381980000000  0.4491430000000 1.0
C      1  0.4447560000000  0.5314530000000  0.4445070000000 1.0
C      1  0.4753670000000  0.5558290000000  0.5274540000000 1.0
C      1  0.5696390000000  0.4825790000000  0.5783760000000 1.0
C      1  0.4371410000000  0.5423210000000  0.4953000000000 1.0
C      1  0.5229700000000  0.5401360000000  0.5221190000000 1.0
C      1  0.4096850000000  0.4395760000000  0.5411680000000 1.0
C      1  0.5147220000000  0.5558980000000  0.4863380000000 1.0
C      1  0.4649430000000  0.6073130000000  0.4852840000000 1.0
C      1  0.5659980000000  0.4687300000000  0.4770320000000 1.0
C      1  0.5020640000000  0.3898520000000  0.4923290000000 1.0
C      1  0.3966310000000  0.4653870000000  0.5243160000000 1.0
C      1  0.4232150000000  0.5703750000000  0.5617700000000 1.0
C      1  0.5304880000000  0.4338350000000  0.4194080000000 1.0
C      1  0.5410520000000  0.5245770000000  0.4638990000000 1.0
C      1  0.4718730000000  0.4505690000000  0.5402960000000 1.0
C      1  0.4296700000000  0.5712720000000  0.4802340000000 1.0
C      1  0.5260130000000  0.5121900000000  0.5916920000000 1.0
C      1  0.5309390000000  0.4675930000000  0.4143120000000 1.0
C      1  0.5043680000000  0.5174850000000  0.4106930000000 1.0
C      1  0.6041480000000  0.4972170000000  0.5031700000000 1.0
C      1  0.5563800000000  0.5133420000000  0.5781790000000 1.0
C      1  0.5862580000000  0.5037500000000  0.5490340000000 1.0
C      1  0.4967150000000  0.4962460000000  0.4844940000000 1.0
C      1  0.5834730000000  0.5454780000000  0.4793610000000 1.0
C      1  0.4842210000000  0.5232510000000  0.5684840000000 1.0
C      1  0.4115930000000  0.4582030000000  0.4688440000000 1.0
C      1  0.4361910000000  0.5981280000000  0.4867100000000 1.0
C      1  0.4954710000000  0.4472110000000  0.5645560000000 1.0
C      1  0.5511180000000  0.4477850000000  0.4423820000000 1.0
C      1  0.5061300000000  0.4857430000000  0.6001510000000 1.0
C      1  0.4832990000000  0.4701130000000  0.4091900000000 1.0
C      1  0.5303320000000  0.4901700000000  0.4832730000000 1.0
C      1  0.5082280000000  0.4681660000000  0.5439020000000 1.0
C      1  0.4418340000000  0.4431650000000  0.4666990000000 1.0
C      1  0.5645600000000  0.4291350000000  0.4902990000000 1.0
C      1  0.3965940000000  0.4220360000000  0.5555900000000 1.0
C      1  0.5487910000000  0.4431780000000  0.5577720000000 1.0
C      1  0.5366330000000  0.4033700000000  0.4605930000000 1.0
C      1  0.4013220000000  0.5127740000000  0.4547810000000 1.0
C      1  0.4488860000000  0.5742180000000  0.5161060000000 1.0
C      1  0.5249540000000  0.5512250000000  0.4538470000000 1.0
C      1  0.4488960000000  0.4446810000000  0.4968520000000 1.0
C      1  0.5622950000000  0.5354760000000  0.5625090000000 1.0
C      1  0.5404500000000  0.5023480000000  0.4401850000000 1.0
C      1  0.5028830000000  0.5612780000000  0.5830240000000 1.0
C      1  0.5967940000000  0.4886910000000  0.4612430000000 1.0
C      1  0.5088980000000  0.5971450000000  0.4516080000000 1.0
C      1  0.5396030000000  0.4497740000000  0.4849570000000 1.0
C      1  0.3966860000000  0.4762740000000  0.4930640000000 1.0
C      1  0.4180120000000  0.5595200000000  0.5164770000000 1.0
C      1  0.4750050000000  0.5953290000000  0.5220310000000 1.0
C      1  0.4717150000000  0.4822420000000  0.5379520000000 1.0
C      1  0.5132570000000  0.5942830000000  0.5326700000000 1.0
C      1  0.4471750000000  0.5116670000000  0.4191800000000 1.0
C      1  0.5788140000000  0.5209400000000  0.4319330000000 1.0
C      1  0.4606650000000  0.5025160000000  0.4554580000000 1.0
C      1  0.5393750000000  0.4812010000000  0.5946000000000 1.0
C      1  0.4150080000000  0.4780210000000  0.5501690000000 1.0
C      1  0.5041390000000  0.4166410000000  0.5647820000000 1.0
C      1  0.4304170000000  0.5166820000000  0.4838350000000 1.0
C      1  0.5392680000000  0.5875570000000  0.4616820000000 1.0
C      1  0.4276710000000  0.4617120000000  0.5134630000000 1.0
C      1  0.4714150000000  0.4166140000000  0.5734240000000 1.0
C      1  0.4529940000000  0.4549550000000  0.4179410000000 1.0
C      1  0.5556570000000  0.5096660000000  0.5127580000000 1.0
C      1  0.4716120000000  0.4711990000000  0.4639610000000 1.0
C      1  0.5738730000000  0.5749350000000  0.4938320000000 1.0
C      1  0.4106300000000  0.5108490000000  0.5405850000000 1.0
C      1  0.5219090000000  0.5011730000000  0.5144880000000 1.0
C      1  0.4455790000000  0.4931070000000  0.5441940000000 1.0
C      1  0.5758700000000  0.5514720000000  0.4467610000000 1.0
C      1  0.5864160000000  0.4846450000000  0.5218050000000 1.0
C      1  0.5110230000000  0.4296680000000  0.5036990000000 1.0
C      1  0.5883930000000  0.4447810000000  0.5006370000000 1.0
C      1  0.4355610000000  0.5204130000000  0.5618880000000 1.0
C      1  0.4685970000000  0.5748720000000  0.4884060000000 1.0
C      1  0.5764930000000  0.5520030000000  0.5362720000000 1.0
C      1  0.4823820000000  0.4384430000000  0.4188510000000 1.0
C      1  0.4833240000000  0.5085990000000  0.5974580000000 1.0
C      1  0.4815840000000  0.5798900000000  0.4405680000000 1.0
C      1  0.4511960000000  0.5087660000000  0.5863840000000 1.0
C      1  0.4701370000000  0.4395790000000  0.4506100000000 1.0
C      1  0.4935620000000  0.5781620000000  0.5550390000000 1.0
C      1  0.5183000000000  0.4080850000000  0.4379830000000 1.0
C      1  0.5540570000000  0.4941910000000  0.5432450000000 1.0
C      1  0.4835680000000  0.5350730000000  0.4523150000000 1.0
C      1  0.4896130000000  0.4116830000000  0.4451600000000 1.0
C      1  0.4080470000000  0.5740040000000  0.5418060000000 1.0
C      1  0.5247080000000  0.5415550000000  0.4208790000000 1.0
C      1  0.4867840000000  0.4629300000000  0.5910510000000 1.0
C      1  0.5088380000000  0.5041870000000  0.4527790000000 1.0
C      1  0.4239420000000  0.4940340000000  0.4371440000000 1.0
C      1  0.4878880000000  0.4984420000000  0.5162830000000 1.0
C      1  0.4998580000000  0.4736020000000  0.4519110000000 1.0
C      1  0.4387020000000  0.4614060000000  0.5680350000000 1.0
C      1  0.5631150000000  0.4737380000000  0.4239770000000 1.0
C      1  0.4660840000000  0.4113250000000  0.5451530000000 1.0
C      1  0.5593550000000  0.4772950000000  0.5073870000000 1.0
C      1  0.4300010000000  0.4605190000000  0.4395930000000 1.0
C      1  0.5418650000000  0.4160810000000  0.5125940000000 1.0
C      1  0.3982860000000  0.5071580000000  0.4876460000000 1.0
C      1  0.5980130000000  0.5292230000000  0.5464790000000 1.0
C      1  0.4415820000000  0.4410360000000  0.5357750000000 1.0
C      1  0.5228050000000  0.5325010000000  0.5679160000000 1.0
C      1  0.4984230000000  0.4602710000000  0.5121950000000 1.0
C      1  0.5463710000000  0.5534900000000  0.4915350000000 1.0
C      1  0.4730550000000  0.4667210000000  0.4970080000000 1.0
C      1  0.5248240000000  0.5643240000000  0.5569010000000 1.0
END
