TITL C-2778432-5617-1289 -0.000752044419803214 125000 -335.198013010905 0 0 59 (C1) n - 1
REM
REM in /home/nfs/bkarasulu/CARBON/AIRSS/Generating-Clusters/REBO/Only-C1/SD-CG/HFTN-CG
REM
REM
REM
REM
REM
REM ./C.cell (11c1c37f851c82e70ff6c80c92926a4b)
REM
REM compiler GCC version 9.2.1 20190827 (Red Hat 9.2.1-1)
REM options -cpp -mtune=generic -march=x86-64 -g -O0 -fpre-include=/usr/include/finclude/math-vector-fortran.h
REM seed -1018252628 580464779 540794772 -375669053 -2075808334 -1253722614 -453469299 -1227141882 1502193152 -1531948534 -1363124057 24669218 -1071034306 -1428752062 1386230363 2076892339 354981207 611143269 686084217 1804498583 -743386334 1755594890 1396557529 1826501720 467386190 -362715325 1358294596 -1303699834 -777477462 859565184 89868216 -454487455 -1675039919
REM
CELL 1.54180   50.00000   50.00000   50.00000   90.00000   90.00000   90.00000
LATT -1
SFAC C  
C      1  0.4497270000000  0.4851710000000  0.5255000000000 1.0
C      1  0.5550240000000  0.4866410000000  0.4894130000000 1.0
C      1  0.5306970000000  0.4626120000000  0.4506080000000 1.0
C      1  0.4487610000000  0.5386260000000  0.5447380000000 1.0
C      1  0.4867310000000  0.5126520000000  0.4234510000000 1.0
C      1  0.5248050000000  0.4137590000000  0.4510980000000 1.0
C      1  0.5215550000000  0.4843210000000  0.5537360000000 1.0
C      1  0.5085270000000  0.5115910000000  0.4834110000000 1.0
C      1  0.4532240000000  0.5161870000000  0.4807720000000 1.0
C      1  0.5532330000000  0.4447650000000  0.5748450000000 1.0
C      1  0.5515670000000  0.4560450000000  0.4989740000000 1.0
C      1  0.5701450000000  0.4998430000000  0.5370110000000 1.0
C      1  0.5035740000000  0.4764420000000  0.5275580000000 1.0
C      1  0.4212830000000  0.4991090000000  0.5321510000000 1.0
C      1  0.4557520000000  0.5058180000000  0.5511400000000 1.0
C      1  0.5461390000000  0.4696660000000  0.5669840000000 1.0
C      1  0.5252380000000  0.5127510000000  0.4543950000000 1.0
C      1  0.5727670000000  0.5252640000000  0.5239470000000 1.0
C      1  0.5620750000000  0.4792840000000  0.5193350000000 1.0
C      1  0.4762270000000  0.5521250000000  0.4516760000000 1.0
C      1  0.4591800000000  0.5033040000000  0.4330320000000 1.0
C      1  0.5088600000000  0.5440610000000  0.4730640000000 1.0
C      1  0.5091790000000  0.5098780000000  0.5698810000000 1.0
C      1  0.5500140000000  0.5612010000000  0.4904350000000 1.0
C      1  0.5019370000000  0.5613410000000  0.5265920000000 1.0
C      1  0.5025790000000  0.4863810000000  0.4208680000000 1.0
C      1  0.4791370000000  0.4372240000000  0.4961210000000 1.0
C      1  0.4396530000000  0.4741610000000  0.4614720000000 1.0
C      1  0.5417700000000  0.5125220000000  0.4841980000000 1.0
C      1  0.5260380000000  0.5603150000000  0.5475730000000 1.0
C      1  0.4570980000000  0.5663600000000  0.5016290000000 1.0
C      1  0.5007470000000  0.5328640000000  0.4419640000000 1.0
C      1  0.4886650000000  0.4417260000000  0.4693680000000 1.0
C      1  0.4800510000000  0.5286520000000  0.5298390000000 1.0
C      1  0.4655460000000  0.4538910000000  0.4512670000000 1.0
C      1  0.5313200000000  0.4374110000000  0.4937500000000 1.0
C      1  0.5246740000000  0.4861490000000  0.4390060000000 1.0
C      1  0.4214320000000  0.5231350000000  0.5401600000000 1.0
C      1  0.5486370000000  0.5345400000000  0.5058970000000 1.0
C      1  0.4911710000000  0.4504930000000  0.5238580000000 1.0
C      1  0.4650450000000  0.5443410000000  0.4792920000000 1.0
C      1  0.4640050000000  0.5005610000000  0.5027320000000 1.0
C      1  0.4902990000000  0.5427050000000  0.5005310000000 1.0
C      1  0.5141080000000  0.4299460000000  0.5139370000000 1.0
C      1  0.4441380000000  0.5017760000000  0.4578560000000 1.0
C      1  0.5385570000000  0.5168930000000  0.5727460000000 1.0
C      1  0.5264510000000  0.5879230000000  0.4567350000000 1.0
C      1  0.5294130000000  0.5659220000000  0.4730920000000 1.0
C      1  0.4845130000000  0.5160250000000  0.5596300000000 1.0
C      1  0.4487350000000  0.4391800000000  0.4983930000000 1.0
C      1  0.4744570000000  0.4752800000000  0.4293960000000 1.0
C      1  0.4678300000000  0.5607560000000  0.5279950000000 1.0
C      1  0.4939890000000  0.4999120000000  0.5058560000000 1.0
C      1  0.4392090000000  0.4453390000000  0.4723240000000 1.0
C      1  0.4576170000000  0.4556980000000  0.5236070000000 1.0
C      1  0.5145650000000  0.5085940000000  0.5304100000000 1.0
C      1  0.5579980000000  0.4975440000000  0.5632130000000 1.0
C      1  0.5191810000000  0.4376900000000  0.4652700000000 1.0
C      1  0.5251500000000  0.5356340000000  0.5262700000000 1.0
END
