TITL C-2778422-5617-926 0.00342313128220125 125000 -879.260767167802 0 0 148 (C1) n - 1
REM
REM in /home/nfs/bkarasulu/CARBON/AIRSS/Generating-Clusters/REBO/Only-C1/SD-CG/HFTN-CG
REM
REM
REM
REM
REM
REM ./C.cell (11c1c37f851c82e70ff6c80c92926a4b)
REM
REM compiler GCC version 9.2.1 20190827 (Red Hat 9.2.1-1)
REM options -cpp -mtune=generic -march=x86-64 -g -O0 -fpre-include=/usr/include/finclude/math-vector-fortran.h
REM seed -311062334 -1511894932 1842127436 318033695 -2111264725 -2023264678 -1197274207 -2089169858 372962251 -849569222 780388703 1394939966 1635881796 427826741 -1762225179 -705849498 -1442386009 -710217651 -1785113746 1016978833 -1248616646 912911122 1803401941 977101606 -99133814 -86890536 1551333580 15328591 60528621 971200256 -715044576 -448518708 -551595335
REM
CELL 1.54180   50.00000   50.00000   50.00000   90.00000   90.00000   90.00000
LATT -1
SFAC C  
C      1  0.5059110000000  0.5667010000000  0.5560090000000 1.0
C      1  0.5646070000000  0.5148680000000  0.4330610000000 1.0
C      1  0.5738060000000  0.4995480000000  0.5612900000000 1.0
C      1  0.5016140000000  0.4439230000000  0.5158210000000 1.0
C      1  0.4015870000000  0.5106060000000  0.5162300000000 1.0
C      1  0.5985400000000  0.5353190000000  0.5018870000000 1.0
C      1  0.4751060000000  0.5757940000000  0.5591070000000 1.0
C      1  0.5274330000000  0.4018620000000  0.5382180000000 1.0
C      1  0.4768820000000  0.5313250000000  0.5960030000000 1.0
C      1  0.5578440000000  0.5381440000000  0.4169420000000 1.0
C      1  0.5816490000000  0.4525830000000  0.4583280000000 1.0
C      1  0.6006880000000  0.5060680000000  0.5104690000000 1.0
C      1  0.5661660000000  0.5223260000000  0.4898550000000 1.0
C      1  0.5228110000000  0.5059890000000  0.4239120000000 1.0
C      1  0.4853680000000  0.5148470000000  0.4340050000000 1.0
C      1  0.5873780000000  0.4471450000000  0.5282500000000 1.0
C      1  0.5471460000000  0.4821140000000  0.5882370000000 1.0
C      1  0.4864990000000  0.5537580000000  0.4058630000000 1.0
C      1  0.4530840000000  0.4369130000000  0.4475640000000 1.0
C      1  0.4384540000000  0.4569700000000  0.5182930000000 1.0
C      1  0.5003950000000  0.5281710000000  0.4534140000000 1.0
C      1  0.5539580000000  0.4480130000000  0.5284100000000 1.0
C      1  0.5546200000000  0.5635330000000  0.4317840000000 1.0
C      1  0.5330110000000  0.4956200000000  0.5645720000000 1.0
C      1  0.4630970000000  0.4691950000000  0.3972560000000 1.0
C      1  0.5514970000000  0.5738510000000  0.4899030000000 1.0
C      1  0.4873330000000  0.4807910000000  0.5808500000000 1.0
C      1  0.5884690000000  0.4791570000000  0.4619830000000 1.0
C      1  0.5530200000000  0.5020640000000  0.5373440000000 1.0
C      1  0.4205000000000  0.4693420000000  0.5407010000000 1.0
C      1  0.4817770000000  0.4390200000000  0.4880140000000 1.0
C      1  0.5549250000000  0.4036320000000  0.5313590000000 1.0
C      1  0.4578740000000  0.5089660000000  0.5086720000000 1.0
C      1  0.5427750000000  0.4530280000000  0.5009930000000 1.0
C      1  0.4801170000000  0.5477240000000  0.5160450000000 1.0
C      1  0.4759520000000  0.5264930000000  0.4094170000000 1.0
C      1  0.4602140000000  0.4857940000000  0.4877590000000 1.0
C      1  0.4023050000000  0.5388620000000  0.5142360000000 1.0
C      1  0.4679010000000  0.3999520000000  0.4810800000000 1.0
C      1  0.4141360000000  0.5003610000000  0.5388080000000 1.0
C      1  0.4294700000000  0.4219300000000  0.5026570000000 1.0
C      1  0.5071780000000  0.5672280000000  0.4666590000000 1.0
C      1  0.4950910000000  0.5258920000000  0.5346780000000 1.0
C      1  0.4786010000000  0.4360200000000  0.4263050000000 1.0
C      1  0.5103880000000  0.5881400000000  0.4414460000000 1.0
C      1  0.4427570000000  0.4707310000000  0.5617290000000 1.0
C      1  0.5740620000000  0.4503380000000  0.5661510000000 1.0
C      1  0.4539800000000  0.4277160000000  0.5257100000000 1.0
C      1  0.4855020000000  0.4523470000000  0.4046650000000 1.0
C      1  0.4039540000000  0.4931220000000  0.4909270000000 1.0
C      1  0.5607120000000  0.4035790000000  0.5041810000000 1.0
C      1  0.4373260000000  0.5333040000000  0.4334750000000 1.0
C      1  0.5317010000000  0.4340010000000  0.4505650000000 1.0
C      1  0.5000730000000  0.5347510000000  0.5637550000000 1.0
C      1  0.5406140000000  0.5260400000000  0.6065840000000 1.0
C      1  0.4562650000000  0.5013380000000  0.5592640000000 1.0
C      1  0.4663550000000  0.5040320000000  0.5912510000000 1.0
C      1  0.5093070000000  0.5301010000000  0.6021700000000 1.0
C      1  0.5150940000000  0.5556910000000  0.4062550000000 1.0
C      1  0.5180420000000  0.4756750000000  0.4950750000000 1.0
C      1  0.5128780000000  0.4607320000000  0.4018980000000 1.0
C      1  0.4250110000000  0.5267630000000  0.4606950000000 1.0
C      1  0.4226640000000  0.4820180000000  0.4370530000000 1.0
C      1  0.4354050000000  0.5493800000000  0.4798910000000 1.0
C      1  0.4577810000000  0.5376560000000  0.5023740000000 1.0
C      1  0.4565500000000  0.5538650000000  0.4451600000000 1.0
C      1  0.4501420000000  0.4816030000000  0.4182640000000 1.0
C      1  0.4766420000000  0.4280430000000  0.5506230000000 1.0
C      1  0.5390260000000  0.5262320000000  0.5049790000000 1.0
C      1  0.5052380000000  0.4807080000000  0.4386680000000 1.0
C      1  0.4891870000000  0.6019400000000  0.4588000000000 1.0
C      1  0.5060830000000  0.4005240000000  0.5166670000000 1.0
C      1  0.5136920000000  0.5873820000000  0.5227350000000 1.0
C      1  0.4865440000000  0.4696550000000  0.4892990000000 1.0
C      1  0.4062830000000  0.4372920000000  0.5051290000000 1.0
C      1  0.5133280000000  0.5578520000000  0.5863290000000 1.0
C      1  0.5237490000000  0.4620310000000  0.4506480000000 1.0
C      1  0.5172780000000  0.4224660000000  0.4941010000000 1.0
C      1  0.5811340000000  0.5512900000000  0.5212990000000 1.0
C      1  0.5295480000000  0.5450740000000  0.4566840000000 1.0
C      1  0.4710590000000  0.5714130000000  0.4221120000000 1.0
C      1  0.5987290000000  0.4761010000000  0.5265010000000 1.0
C      1  0.5419620000000  0.5585790000000  0.5705430000000 1.0
C      1  0.5287730000000  0.5753530000000  0.4238570000000 1.0
C      1  0.5341790000000  0.6068990000000  0.5040040000000 1.0
C      1  0.5485740000000  0.4990020000000  0.6107860000000 1.0
C      1  0.4412850000000  0.4818230000000  0.5905780000000 1.0
C      1  0.4959450000000  0.5019260000000  0.4950580000000 1.0
C      1  0.4440410000000  0.5763700000000  0.4658020000000 1.0
C      1  0.5521960000000  0.5548630000000  0.5154440000000 1.0
C      1  0.5568140000000  0.5395810000000  0.5865410000000 1.0
C      1  0.5332310000000  0.5025970000000  0.4811910000000 1.0
C      1  0.5066270000000  0.5062110000000  0.5778760000000 1.0
C      1  0.5373800000000  0.5136970000000  0.4536270000000 1.0
C      1  0.4029020000000  0.5010140000000  0.4574010000000 1.0
C      1  0.4741400000000  0.5018330000000  0.5339980000000 1.0
C      1  0.4919150000000  0.4474510000000  0.5746070000000 1.0
C      1  0.5875090000000  0.4742770000000  0.5574230000000 1.0
C      1  0.5490410000000  0.4755510000000  0.4567100000000 1.0
C      1  0.4848330000000  0.5890960000000  0.5308550000000 1.0
C      1  0.5612410000000  0.4325290000000  0.4589300000000 1.0
C      1  0.5565680000000  0.4861010000000  0.4313270000000 1.0
C      1  0.4705410000000  0.5866120000000  0.4827590000000 1.0
C      1  0.4471410000000  0.5241960000000  0.4096150000000 1.0
C      1  0.5599920000000  0.5587200000000  0.4637000000000 1.0
C      1  0.5112070000000  0.4157970000000  0.4551590000000 1.0
C      1  0.4636050000000  0.5513080000000  0.5798920000000 1.0
C      1  0.5864980000000  0.5392800000000  0.4699440000000 1.0
C      1  0.3980170000000  0.4537360000000  0.5470900000000 1.0
C      1  0.5224200000000  0.5137000000000  0.5279430000000 1.0
C      1  0.4358640000000  0.5436340000000  0.5645740000000 1.0
C      1  0.4212290000000  0.4405110000000  0.4683540000000 1.0
C      1  0.4774430000000  0.5552680000000  0.4713410000000 1.0
C      1  0.5724730000000  0.4237840000000  0.5467710000000 1.0
C      1  0.5772800000000  0.5231070000000  0.5759990000000 1.0
C      1  0.5189660000000  0.5798860000000  0.4904760000000 1.0
C      1  0.4777780000000  0.4127130000000  0.5093560000000 1.0
C      1  0.5513480000000  0.4546980000000  0.5828420000000 1.0
C      1  0.4230480000000  0.5567250000000  0.5074150000000 1.0
C      1  0.5633280000000  0.6050130000000  0.4967000000000 1.0
C      1  0.5335830000000  0.4777950000000  0.4106330000000 1.0
C      1  0.5345620000000  0.5673790000000  0.5385360000000 1.0
C      1  0.4639310000000  0.5873600000000  0.5116070000000 1.0
C      1  0.5850660000000  0.5050230000000  0.4678800000000 1.0
C      1  0.4474230000000  0.4671590000000  0.4550160000000 1.0
C      1  0.5710350000000  0.4910700000000  0.5138000000000 1.0
C      1  0.4377460000000  0.4630250000000  0.4876300000000 1.0
C      1  0.5350070000000  0.4597640000000  0.5469650000000 1.0
C      1  0.5472120000000  0.4255480000000  0.4863900000000 1.0
C      1  0.5101590000000  0.4282920000000  0.5448610000000 1.0
C      1  0.4905170000000  0.4725030000000  0.5288970000000 1.0
C      1  0.4338220000000  0.5018610000000  0.4798330000000 1.0
C      1  0.3983540000000  0.4607420000000  0.4938580000000 1.0
C      1  0.4431110000000  0.4154030000000  0.4721670000000 1.0
C      1  0.4406610000000  0.5736800000000  0.5220580000000 1.0
C      1  0.4035300000000  0.4670220000000  0.4608200000000 1.0
C      1  0.4986680000000  0.3986500000000  0.4783730000000 1.0
C      1  0.4893680000000  0.5250760000000  0.4814880000000 1.0
C      1  0.4724450000000  0.4863770000000  0.4420150000000 1.0
C      1  0.5306710000000  0.5313650000000  0.4065520000000 1.0
C      1  0.5569320000000  0.4797670000000  0.4887460000000 1.0
C      1  0.4736430000000  0.4659990000000  0.5542940000000 1.0
C      1  0.4446560000000  0.5681030000000  0.5494040000000 1.0
C      1  0.4307980000000  0.5173140000000  0.5549060000000 1.0
C      1  0.4829780000000  0.4298730000000  0.4592560000000 1.0
C      1  0.5181870000000  0.4828260000000  0.5365410000000 1.0
C      1  0.5236090000000  0.4424380000000  0.5717630000000 1.0
C      1  0.4641210000000  0.5927770000000  0.4438720000000 1.0
END
