TITL C-2778429-3646-323 1.08685728941394e-05 125000 -320.676078616754 0 0 57 (C1) n - 1
REM
REM in /home/nfs/bkarasulu/CARBON/AIRSS/Generating-Clusters/REBO/Only-C1/SD-CG/HFTN-CG
REM
REM
REM
REM
REM
REM ./C.cell (11c1c37f851c82e70ff6c80c92926a4b)
REM
REM compiler GCC version 9.2.1 20190827 (Red Hat 9.2.1-1)
REM options -cpp -mtune=generic -march=x86-64 -g -O0 -fpre-include=/usr/include/finclude/math-vector-fortran.h
REM seed -208564735 -1394903917 -612432087 -1250887349 1532296974 -327138807 1507786168 274240278 -224895491 -2006332030 -1666644546 1234754085 1953699445 -1843865734 10967943 -827157102 796090866 -1073991588 -1996666621 1584287538 2082089673 239391145 1851486980 -2025145860 -230772985 713657679 -494496129 1060606714 498511625 789215248 -715218857 -1918666638 -274678004
REM
CELL 1.54180   50.00000   50.00000   50.00000   90.00000   90.00000   90.00000
LATT -1
SFAC C  
C      1  0.5592320000000  0.5152560000000  0.4679550000000 1.0
C      1  0.4823460000000  0.4508660000000  0.4337230000000 1.0
C      1  0.4419330000000  0.4914610000000  0.5224800000000 1.0
C      1  0.5172920000000  0.4717230000000  0.5167030000000 1.0
C      1  0.4662320000000  0.4694070000000  0.4777620000000 1.0
C      1  0.5066360000000  0.4508840000000  0.5535480000000 1.0
C      1  0.4951160000000  0.4515440000000  0.4716040000000 1.0
C      1  0.5545270000000  0.4889460000000  0.4474280000000 1.0
C      1  0.4495780000000  0.5420040000000  0.4686180000000 1.0
C      1  0.4618480000000  0.4567450000000  0.4473800000000 1.0
C      1  0.4753070000000  0.4936400000000  0.4591930000000 1.0
C      1  0.5203720000000  0.5530070000000  0.4748500000000 1.0
C      1  0.4709440000000  0.5714180000000  0.5383590000000 1.0
C      1  0.5565540000000  0.4719260000000  0.5095810000000 1.0
C      1  0.5023570000000  0.5832860000000  0.5379120000000 1.0
C      1  0.4522480000000  0.4638640000000  0.5053070000000 1.0
C      1  0.4901100000000  0.5522940000000  0.5593200000000 1.0
C      1  0.5288400000000  0.4416350000000  0.5407600000000 1.0
C      1  0.4860300000000  0.5372200000000  0.4210620000000 1.0
C      1  0.4979380000000  0.5604850000000  0.4909810000000 1.0
C      1  0.5486270000000  0.4450850000000  0.5219610000000 1.0
C      1  0.4533360000000  0.5302910000000  0.5505870000000 1.0
C      1  0.5047710000000  0.4239770000000  0.5141960000000 1.0
C      1  0.4666650000000  0.5438180000000  0.4414430000000 1.0
C      1  0.4946270000000  0.4886310000000  0.4380140000000 1.0
C      1  0.5394370000000  0.5484790000000  0.5419650000000 1.0
C      1  0.5483570000000  0.5398700000000  0.5111190000000 1.0
C      1  0.4692290000000  0.4755540000000  0.5304280000000 1.0
C      1  0.4370620000000  0.5374080000000  0.4929630000000 1.0
C      1  0.5048780000000  0.5167360000000  0.4298040000000 1.0
C      1  0.4597190000000  0.4332160000000  0.5009900000000 1.0
C      1  0.4693250000000  0.5703710000000  0.5065100000000 1.0
C      1  0.4762340000000  0.5238910000000  0.4663080000000 1.0
C      1  0.5022370000000  0.5542190000000  0.5212680000000 1.0
C      1  0.5077110000000  0.5171410000000  0.4624780000000 1.0
C      1  0.5634970000000  0.4919140000000  0.4213070000000 1.0
C      1  0.4707940000000  0.4298670000000  0.4754580000000 1.0
C      1  0.4888800000000  0.4731390000000  0.5552190000000 1.0
C      1  0.5003770000000  0.5144380000000  0.5243260000000 1.0
C      1  0.5395600000000  0.4816290000000  0.5351800000000 1.0
C      1  0.5395250000000  0.4660150000000  0.4552320000000 1.0
C      1  0.4491560000000  0.5219220000000  0.5117960000000 1.0
C      1  0.5450350000000  0.5403610000000  0.4828650000000 1.0
C      1  0.4367740000000  0.5110260000000  0.5481140000000 1.0
C      1  0.4900910000000  0.5241530000000  0.5648180000000 1.0
C      1  0.4951850000000  0.4881850000000  0.5188040000000 1.0
C      1  0.4760840000000  0.5334660000000  0.5270960000000 1.0
C      1  0.5533590000000  0.4879780000000  0.4873900000000 1.0
C      1  0.5282750000000  0.5041390000000  0.4740900000000 1.0
C      1  0.5264650000000  0.5230650000000  0.5274920000000 1.0
C      1  0.5202220000000  0.5642230000000  0.5561900000000 1.0
C      1  0.5301260000000  0.4966360000000  0.5572760000000 1.0
C      1  0.5420690000000  0.4507400000000  0.4782790000000 1.0
C      1  0.5161140000000  0.4482950000000  0.4971290000000 1.0
C      1  0.5016630000000  0.4981820000000  0.5625810000000 1.0
C      1  0.4777290000000  0.4218980000000  0.5201770000000 1.0
C      1  0.5113640000000  0.4624310000000  0.4446200000000 1.0
END
