TITL C-2778423-5760-1253 0.00332885923772669 125000 -586.547728264431 0 0 102 (C1) n - 1
REM
REM in /home/nfs/bkarasulu/CARBON/AIRSS/Generating-Clusters/REBO/Only-C1/SD-CG/HFTN-CG
REM
REM
REM
REM
REM
REM ./C.cell (11c1c37f851c82e70ff6c80c92926a4b)
REM
REM compiler GCC version 9.2.1 20190827 (Red Hat 9.2.1-1)
REM options -cpp -mtune=generic -march=x86-64 -g -O0 -fpre-include=/usr/include/finclude/math-vector-fortran.h
REM seed 1216650590 1326931499 -734934762 653721732 -706581708 1548843700 2061357763 657528169 -1346066954 1296089087 168082772 -801797429 -1545979944 1564406167 -773324323 354554485 -1680262250 -127615290 1170226558 619610321 -1219454552 -1907809922 583473505 1866603773 -1529645491 901418836 1748464016 -1103178508 690779984 -1549089493 1381348636 -566672369 -1539506956
REM
CELL 1.54180   50.00000   50.00000   50.00000   90.00000   90.00000   90.00000
LATT -1
SFAC C  
C      1  0.4439850000000  0.5586800000000  0.5079760000000 1.0
C      1  0.4850470000000  0.5488400000000  0.4567640000000 1.0
C      1  0.5396460000000  0.4967640000000  0.5583470000000 1.0
C      1  0.4235740000000  0.4482590000000  0.5067430000000 1.0
C      1  0.5219670000000  0.4729260000000  0.4327390000000 1.0
C      1  0.5079630000000  0.4815980000000  0.5038980000000 1.0
C      1  0.4081960000000  0.4549280000000  0.4508270000000 1.0
C      1  0.5033250000000  0.5011510000000  0.4539650000000 1.0
C      1  0.5728960000000  0.4674770000000  0.5329070000000 1.0
C      1  0.4213640000000  0.5187460000000  0.5453500000000 1.0
C      1  0.4333160000000  0.4880600000000  0.5433710000000 1.0
C      1  0.4616750000000  0.5316350000000  0.5312820000000 1.0
C      1  0.5125210000000  0.5454110000000  0.4711140000000 1.0
C      1  0.4912260000000  0.5120240000000  0.5496560000000 1.0
C      1  0.4593360000000  0.5085170000000  0.5520930000000 1.0
C      1  0.5112920000000  0.5265770000000  0.5258250000000 1.0
C      1  0.5206530000000  0.4940940000000  0.5299240000000 1.0
C      1  0.4695850000000  0.5627690000000  0.5433150000000 1.0
C      1  0.5693100000000  0.4748030000000  0.4489990000000 1.0
C      1  0.4438700000000  0.5656820000000  0.4786110000000 1.0
C      1  0.5015780000000  0.4696780000000  0.4173330000000 1.0
C      1  0.4475610000000  0.5129450000000  0.4509560000000 1.0
C      1  0.4446380000000  0.5104220000000  0.4845500000000 1.0
C      1  0.4918020000000  0.4937680000000  0.5911630000000 1.0
C      1  0.4755940000000  0.4882720000000  0.5049210000000 1.0
C      1  0.4964370000000  0.5349700000000  0.4990170000000 1.0
C      1  0.4516190000000  0.5504560000000  0.5651010000000 1.0
C      1  0.5819850000000  0.5350190000000  0.4969720000000 1.0
C      1  0.4781880000000  0.5222420000000  0.4464890000000 1.0
C      1  0.4685580000000  0.5189910000000  0.5037110000000 1.0
C      1  0.5199510000000  0.5889080000000  0.4984560000000 1.0
C      1  0.5667310000000  0.5188760000000  0.4345570000000 1.0
C      1  0.4388330000000  0.3954120000000  0.4578820000000 1.0
C      1  0.4613960000000  0.5321020000000  0.5842630000000 1.0
C      1  0.4899230000000  0.5205250000000  0.4083480000000 1.0
C      1  0.5556440000000  0.4455030000000  0.5230580000000 1.0
C      1  0.4746840000000  0.5584670000000  0.5043200000000 1.0
C      1  0.4912490000000  0.4532980000000  0.4937130000000 1.0
C      1  0.5563830000000  0.5080620000000  0.5112520000000 1.0
C      1  0.5168680000000  0.4173990000000  0.4854630000000 1.0
C      1  0.5870010000000  0.4533200000000  0.4851330000000 1.0
C      1  0.5949700000000  0.4730070000000  0.4482450000000 1.0
C      1  0.5274460000000  0.5516690000000  0.5336130000000 1.0
C      1  0.4038730000000  0.4815630000000  0.4549370000000 1.0
C      1  0.4773030000000  0.4677740000000  0.5281460000000 1.0
C      1  0.5106210000000  0.5330300000000  0.5683150000000 1.0
C      1  0.4159550000000  0.5061960000000  0.4569950000000 1.0
C      1  0.4713800000000  0.4376390000000  0.5474310000000 1.0
C      1  0.5209780000000  0.4956490000000  0.4785210000000 1.0
C      1  0.5307390000000  0.4470540000000  0.5369020000000 1.0
C      1  0.4666240000000  0.4822450000000  0.5813560000000 1.0
C      1  0.4213210000000  0.4749280000000  0.5197810000000 1.0
C      1  0.5385110000000  0.5299510000000  0.4234110000000 1.0
C      1  0.4953130000000  0.5970000000000  0.5199350000000 1.0
C      1  0.5916770000000  0.5134900000000  0.4796040000000 1.0
C      1  0.5411750000000  0.5674260000000  0.5095090000000 1.0
C      1  0.5627390000000  0.4792800000000  0.5030130000000 1.0
C      1  0.5030170000000  0.4818250000000  0.5549040000000 1.0
C      1  0.4870820000000  0.5859620000000  0.4896300000000 1.0
C      1  0.5028200000000  0.4456180000000  0.5242450000000 1.0
C      1  0.4699800000000  0.5709570000000  0.4669110000000 1.0
C      1  0.5432270000000  0.4958280000000  0.4431130000000 1.0
C      1  0.4892780000000  0.4159720000000  0.5310690000000 1.0
C      1  0.5892490000000  0.4851410000000  0.4859140000000 1.0
C      1  0.5253460000000  0.5732000000000  0.4713880000000 1.0
C      1  0.4687700000000  0.4728980000000  0.4783070000000 1.0
C      1  0.5215840000000  0.4813270000000  0.5826850000000 1.0
C      1  0.4207760000000  0.5319700000000  0.4737200000000 1.0
C      1  0.4568180000000  0.4687710000000  0.5545440000000 1.0
C      1  0.5330500000000  0.4566500000000  0.5626170000000 1.0
C      1  0.5699040000000  0.4879890000000  0.5519900000000 1.0
C      1  0.4914060000000  0.5805820000000  0.5428020000000 1.0
C      1  0.4932400000000  0.4551280000000  0.5625200000000 1.0
C      1  0.4781880000000  0.4827210000000  0.4525590000000 1.0
C      1  0.5099310000000  0.4083870000000  0.5115640000000 1.0
C      1  0.4319330000000  0.4423480000000  0.4415420000000 1.0
C      1  0.5681540000000  0.5512460000000  0.5224510000000 1.0
C      1  0.4462590000000  0.5054400000000  0.5836830000000 1.0
C      1  0.5617870000000  0.5399670000000  0.5499800000000 1.0
C      1  0.5414310000000  0.4572980000000  0.4528670000000 1.0
C      1  0.5411870000000  0.5211160000000  0.4885240000000 1.0
C      1  0.4617890000000  0.4822920000000  0.4295630000000 1.0
C      1  0.5343280000000  0.5259840000000  0.4566180000000 1.0
C      1  0.4602950000000  0.5122490000000  0.4191090000000 1.0
C      1  0.5114820000000  0.5167960000000  0.4251630000000 1.0
C      1  0.4897810000000  0.5231460000000  0.5880020000000 1.0
C      1  0.5532550000000  0.5719670000000  0.4602470000000 1.0
C      1  0.4957580000000  0.4174800000000  0.4682890000000 1.0
C      1  0.5550640000000  0.5506220000000  0.4851930000000 1.0
C      1  0.4457650000000  0.4221090000000  0.4565960000000 1.0
C      1  0.4473910000000  0.4590460000000  0.4245940000000 1.0
C      1  0.5157280000000  0.5688350000000  0.5516580000000 1.0
C      1  0.4697060000000  0.4333420000000  0.4755530000000 1.0
C      1  0.5380800000000  0.5277020000000  0.5637870000000 1.0
C      1  0.4329910000000  0.5483980000000  0.5364170000000 1.0
C      1  0.5889940000000  0.5197520000000  0.4515300000000 1.0
C      1  0.5682170000000  0.5137150000000  0.5362030000000 1.0
C      1  0.5635900000000  0.4392780000000  0.4963790000000 1.0
C      1  0.5406330000000  0.4697010000000  0.4842990000000 1.0
C      1  0.4428200000000  0.4537010000000  0.4805100000000 1.0
C      1  0.5387250000000  0.4360740000000  0.4780420000000 1.0
C      1  0.4331950000000  0.4839900000000  0.4926430000000 1.0
END
