TITL C-2778434-4341-51 0.00248556955702255 125000 -974.7883840158 0 0 173 (C1) n - 1
REM
REM in /home/nfs/bkarasulu/CARBON/AIRSS/Generating-Clusters/REBO/Only-C1/SD-CG/HFTN-CG
REM
REM
REM
REM
REM
REM ./C.cell (11c1c37f851c82e70ff6c80c92926a4b)
REM
REM compiler GCC version 9.2.1 20190827 (Red Hat 9.2.1-1)
REM options -cpp -mtune=generic -march=x86-64 -g -O0 -fpre-include=/usr/include/finclude/math-vector-fortran.h
REM seed -708841512 -1800373208 1566156393 -1047795871 -47452707 -159011884 -163231376 1938362466 -1000371723 2006176189 -1074222905 -311585871 -1448234027 -129851155 1076921040 -787690814 -1171885829 -8023187 412238466 1701742524 -1269973590 -158965445 -1656694509 -398449873 -844179664 938216569 -188157289 1471877818 1318238145 1014712762 1780682213 511314778 -854120858
REM
CELL 1.54180   50.00000   50.00000   50.00000   90.00000   90.00000   90.00000
LATT -1
SFAC C  
C      1  0.4865710000000  0.4563950000000  0.3956950000000 1.0
C      1  0.5494160000000  0.5070670000000  0.5517240000000 1.0
C      1  0.5322820000000  0.5536490000000  0.4841200000000 1.0
C      1  0.4984060000000  0.5604540000000  0.4638370000000 1.0
C      1  0.5133760000000  0.5342320000000  0.5271480000000 1.0
C      1  0.4805250000000  0.4769820000000  0.5645130000000 1.0
C      1  0.4852160000000  0.5047030000000  0.4477210000000 1.0
C      1  0.5683080000000  0.5879370000000  0.4808010000000 1.0
C      1  0.5900610000000  0.5814080000000  0.5061680000000 1.0
C      1  0.5320900000000  0.4430800000000  0.5829220000000 1.0
C      1  0.4575640000000  0.4552540000000  0.4728400000000 1.0
C      1  0.4837920000000  0.5440300000000  0.4158130000000 1.0
C      1  0.4435720000000  0.3900500000000  0.5071980000000 1.0
C      1  0.4990530000000  0.3984140000000  0.5012310000000 1.0
C      1  0.4657230000000  0.5207720000000  0.4647750000000 1.0
C      1  0.4805590000000  0.5138030000000  0.5171680000000 1.0
C      1  0.5485580000000  0.5696990000000  0.4615510000000 1.0
C      1  0.5004340000000  0.5836660000000  0.4886800000000 1.0
C      1  0.4941690000000  0.5076630000000  0.6049080000000 1.0
C      1  0.5505330000000  0.5480550000000  0.5617060000000 1.0
C      1  0.4897660000000  0.4525880000000  0.4662160000000 1.0
C      1  0.5156300000000  0.6040690000000  0.5484810000000 1.0
C      1  0.4998870000000  0.3885680000000  0.4695930000000 1.0
C      1  0.4077140000000  0.4613310000000  0.4517110000000 1.0
C      1  0.4467710000000  0.5438750000000  0.4964960000000 1.0
C      1  0.5965860000000  0.5282580000000  0.5137330000000 1.0
C      1  0.4839660000000  0.4807560000000  0.4938830000000 1.0
C      1  0.4466810000000  0.4783440000000  0.5221970000000 1.0
C      1  0.4535280000000  0.5414520000000  0.4441240000000 1.0
C      1  0.5462570000000  0.5426880000000  0.4322780000000 1.0
C      1  0.5019070000000  0.4836920000000  0.4657540000000 1.0
C      1  0.4977530000000  0.4874460000000  0.5302230000000 1.0
C      1  0.4776020000000  0.5372230000000  0.4920820000000 1.0
C      1  0.4779430000000  0.4879940000000  0.3953850000000 1.0
C      1  0.4451500000000  0.5776940000000  0.5260550000000 1.0
C      1  0.5504480000000  0.4292810000000  0.5417500000000 1.0
C      1  0.6001170000000  0.5185160000000  0.5387180000000 1.0
C      1  0.5345100000000  0.5800540000000  0.4358010000000 1.0
C      1  0.4514030000000  0.4157740000000  0.5250240000000 1.0
C      1  0.4763350000000  0.4608800000000  0.5212260000000 1.0
C      1  0.5424060000000  0.5052120000000  0.5909590000000 1.0
C      1  0.4582610000000  0.4573700000000  0.4409480000000 1.0
C      1  0.4795950000000  0.4794280000000  0.4291520000000 1.0
C      1  0.4640220000000  0.6024050000000  0.5403240000000 1.0
C      1  0.4965320000000  0.5814670000000  0.4375200000000 1.0
C      1  0.5990360000000  0.5739050000000  0.4768510000000 1.0
C      1  0.4228090000000  0.4581320000000  0.5146810000000 1.0
C      1  0.5264130000000  0.4763660000000  0.5878830000000 1.0
C      1  0.4326680000000  0.5232010000000  0.5196120000000 1.0
C      1  0.4428750000000  0.5998170000000  0.4782900000000 1.0
C      1  0.5056890000000  0.5459120000000  0.5001730000000 1.0
C      1  0.4684370000000  0.4117980000000  0.5462820000000 1.0
C      1  0.5346590000000  0.5696040000000  0.5142890000000 1.0
C      1  0.4935350000000  0.5139060000000  0.5713620000000 1.0
C      1  0.4262520000000  0.5491350000000  0.4513670000000 1.0
C      1  0.4057030000000  0.4542230000000  0.4849880000000 1.0
C      1  0.6055960000000  0.4865830000000  0.4655320000000 1.0
C      1  0.6149700000000  0.5115140000000  0.4456790000000 1.0
C      1  0.4547850000000  0.5261570000000  0.4147970000000 1.0
C      1  0.5711260000000  0.5481900000000  0.4733480000000 1.0
C      1  0.4692240000000  0.5668410000000  0.4473800000000 1.0
C      1  0.4002440000000  0.4887960000000  0.4694950000000 1.0
C      1  0.4684440000000  0.4069500000000  0.4902780000000 1.0
C      1  0.5442480000000  0.4465330000000  0.4709130000000 1.0
C      1  0.5721330000000  0.4612870000000  0.4304710000000 1.0
C      1  0.4166980000000  0.5567330000000  0.5074620000000 1.0
C      1  0.5163780000000  0.5069600000000  0.4102500000000 1.0
C      1  0.5817470000000  0.4341650000000  0.5320240000000 1.0
C      1  0.4293850000000  0.4930030000000  0.4965680000000 1.0
C      1  0.4500520000000  0.5885540000000  0.4574940000000 1.0
C      1  0.5860670000000  0.4849080000000  0.4385370000000 1.0
C      1  0.5595330000000  0.5111370000000  0.5217730000000 1.0
C      1  0.4991930000000  0.4175580000000  0.5405710000000 1.0
C      1  0.5711680000000  0.4441540000000  0.4526350000000 1.0
C      1  0.5177570000000  0.3875450000000  0.5221050000000 1.0
C      1  0.5118260000000  0.4770060000000  0.5571240000000 1.0
C      1  0.4430450000000  0.5142890000000  0.5967570000000 1.0
C      1  0.5203130000000  0.5139180000000  0.5520450000000 1.0
C      1  0.4261240000000  0.5160070000000  0.4301060000000 1.0
C      1  0.4470100000000  0.4870950000000  0.5835930000000 1.0
C      1  0.5961230000000  0.4638150000000  0.5264890000000 1.0
C      1  0.5468400000000  0.4198570000000  0.5005190000000 1.0
C      1  0.4984490000000  0.4327220000000  0.4410970000000 1.0
C      1  0.5819270000000  0.5867740000000  0.5317720000000 1.0
C      1  0.5256420000000  0.3622160000000  0.5207340000000 1.0
C      1  0.5494840000000  0.4801990000000  0.4674030000000 1.0
C      1  0.5610050000000  0.4567210000000  0.5874770000000 1.0
C      1  0.4212260000000  0.4330460000000  0.4649800000000 1.0
C      1  0.4391930000000  0.4623010000000  0.5664830000000 1.0
C      1  0.5750230000000  0.4254510000000  0.5027720000000 1.0
C      1  0.5828030000000  0.5252460000000  0.4908890000000 1.0
C      1  0.4194450000000  0.5390050000000  0.4784230000000 1.0
C      1  0.4669630000000  0.5778210000000  0.5592180000000 1.0
C      1  0.5204530000000  0.5375440000000  0.4517470000000 1.0
C      1  0.4441730000000  0.5202980000000  0.5574240000000 1.0
C      1  0.5358980000000  0.4188570000000  0.4433370000000 1.0
C      1  0.5658020000000  0.5079540000000  0.4345270000000 1.0
C      1  0.4903280000000  0.5619450000000  0.5483190000000 1.0
C      1  0.5201500000000  0.5268740000000  0.5979130000000 1.0
C      1  0.5447650000000  0.5406440000000  0.5306150000000 1.0
C      1  0.4411900000000  0.5604500000000  0.5646180000000 1.0
C      1  0.5541830000000  0.4594650000000  0.5006310000000 1.0
C      1  0.4852790000000  0.5308190000000  0.5454060000000 1.0
C      1  0.5817830000000  0.4471170000000  0.4829880000000 1.0
C      1  0.5766310000000  0.4977230000000  0.4752280000000 1.0
C      1  0.4480360000000  0.4929690000000  0.4090110000000 1.0
C      1  0.5659950000000  0.5741790000000  0.5575980000000 1.0
C      1  0.5942950000000  0.5253220000000  0.4338150000000 1.0
C      1  0.5325550000000  0.4433280000000  0.5181230000000 1.0
C      1  0.4512720000000  0.5456340000000  0.5358250000000 1.0
C      1  0.4213900000000  0.5108790000000  0.4617210000000 1.0
C      1  0.5821160000000  0.4910730000000  0.5140330000000 1.0
C      1  0.5291530000000  0.4191910000000  0.4745610000000 1.0
C      1  0.5478390000000  0.4733540000000  0.4098430000000 1.0
C      1  0.5898460000000  0.5097340000000  0.5622080000000 1.0
C      1  0.5140210000000  0.5603810000000  0.4166770000000 1.0
C      1  0.3999960000000  0.5446450000000  0.5576230000000 1.0
C      1  0.4996850000000  0.4030940000000  0.4495290000000 1.0
C      1  0.4278820000000  0.4823790000000  0.4345430000000 1.0
C      1  0.5651330000000  0.5241710000000  0.5762590000000 1.0
C      1  0.5734780000000  0.5462500000000  0.4413220000000 1.0
C      1  0.5133790000000  0.4965750000000  0.5013990000000 1.0
C      1  0.5000190000000  0.4265440000000  0.4818970000000 1.0
C      1  0.4763590000000  0.4378990000000  0.4208480000000 1.0
C      1  0.4760160000000  0.4812930000000  0.5953700000000 1.0
C      1  0.5373510000000  0.5397370000000  0.4027480000000 1.0
C      1  0.5634580000000  0.4844670000000  0.5730680000000 1.0
C      1  0.5129140000000  0.4219440000000  0.5722240000000 1.0
C      1  0.4150410000000  0.4523750000000  0.5630040000000 1.0
C      1  0.5161690000000  0.5786720000000  0.5580720000000 1.0
C      1  0.4792810000000  0.4269900000000  0.5730190000000 1.0
C      1  0.4176120000000  0.4248790000000  0.5086090000000 1.0
C      1  0.3937910000000  0.4698330000000  0.5280640000000 1.0
C      1  0.5102010000000  0.4789480000000  0.4216650000000 1.0
C      1  0.5478180000000  0.5076880000000  0.4090700000000 1.0
C      1  0.4564870000000  0.4930970000000  0.5485730000000 1.0
C      1  0.5231790000000  0.5099440000000  0.4715110000000 1.0
C      1  0.5176980000000  0.5949560000000  0.4615490000000 1.0
C      1  0.3975490000000  0.4964400000000  0.5489590000000 1.0
C      1  0.3970430000000  0.4897280000000  0.5005040000000 1.0
C      1  0.5035240000000  0.4412870000000  0.5226690000000 1.0
C      1  0.3876870000000  0.4410000000000  0.5109600000000 1.0
C      1  0.4986080000000  0.5056380000000  0.3871520000000 1.0
C      1  0.5391040000000  0.4589980000000  0.5542450000000 1.0
C      1  0.6035520000000  0.4769360000000  0.4959370000000 1.0
C      1  0.5260180000000  0.4430010000000  0.4288720000000 1.0
C      1  0.4131610000000  0.5169650000000  0.5612240000000 1.0
C      1  0.5720420000000  0.4618660000000  0.5495250000000 1.0
C      1  0.5354710000000  0.4723760000000  0.4419280000000 1.0
C      1  0.5503500000000  0.5896650000000  0.5347750000000 1.0
C      1  0.3843250000000  0.5077600000000  0.5223170000000 1.0
C      1  0.4936360000000  0.6129830000000  0.5329090000000 1.0
C      1  0.4601160000000  0.4386250000000  0.5008570000000 1.0
C      1  0.5539960000000  0.5196380000000  0.4639180000000 1.0
C      1  0.4583270000000  0.5378080000000  0.5833360000000 1.0
C      1  0.4540610000000  0.6000590000000  0.5050450000000 1.0
C      1  0.4353030000000  0.4127590000000  0.4831810000000 1.0
C      1  0.4662490000000  0.4510120000000  0.5529820000000 1.0
C      1  0.5370930000000  0.5943420000000  0.4897250000000 1.0
C      1  0.4176090000000  0.5664150000000  0.5403580000000 1.0
C      1  0.4841460000000  0.6045100000000  0.5059510000000 1.0
C      1  0.5222530000000  0.5533380000000  0.5769920000000 1.0
C      1  0.4601770000000  0.5019910000000  0.4926070000000 1.0
C      1  0.4536260000000  0.4591980000000  0.4069550000000 1.0
C      1  0.4015770000000  0.5328070000000  0.5264140000000 1.0
C      1  0.4388810000000  0.4809020000000  0.4667150000000 1.0
C      1  0.5290720000000  0.4057570000000  0.5468640000000 1.0
C      1  0.5023450000000  0.5236420000000  0.4312980000000 1.0
C      1  0.5201310000000  0.4562130000000  0.3989850000000 1.0
C      1  0.5450420000000  0.4915280000000  0.4993970000000 1.0
C      1  0.5045960000000  0.4767270000000  0.6106650000000 1.0
C      1  0.5017140000000  0.5719170000000  0.5208630000000 1.0
C      1  0.4912720000000  0.5433250000000  0.5876620000000 1.0
END
