TITL C-2778434-4341-217 9.20428759354787e-05 125000 -547.734458665936 0 0 94 (C1) n - 1
REM
REM in /home/nfs/bkarasulu/CARBON/AIRSS/Generating-Clusters/REBO/Only-C1/SD-CG/HFTN-CG
REM
REM
REM
REM
REM
REM ./C.cell (11c1c37f851c82e70ff6c80c92926a4b)
REM
REM compiler GCC version 9.2.1 20190827 (Red Hat 9.2.1-1)
REM options -cpp -mtune=generic -march=x86-64 -g -O0 -fpre-include=/usr/include/finclude/math-vector-fortran.h
REM seed -1297011810 798211503 -2064114083 -30307143 1290468890 -715257453 -1556654661 -1528470463 -401715388 -1287867218 1066641926 131714180 -1033450028 502820983 98877472 439303877 2094919318 -2010715971 -1056583849 -238357123 906556199 119170081 1009340940 1095987030 -536901530 1965430165 341612292 -561064316 -121126648 2050756191 739247578 -29925821 1877470305
REM
CELL 1.54180   50.00000   50.00000   50.00000   90.00000   90.00000   90.00000
LATT -1
SFAC C  
C      1  0.4556780000000  0.6036090000000  0.4545600000000 1.0
C      1  0.5631190000000  0.4444680000000  0.4571770000000 1.0
C      1  0.4762730000000  0.5734760000000  0.5163500000000 1.0
C      1  0.4380430000000  0.5059850000000  0.4331930000000 1.0
C      1  0.5916450000000  0.5402230000000  0.5285860000000 1.0
C      1  0.4543550000000  0.5052700000000  0.5122660000000 1.0
C      1  0.4113530000000  0.5433440000000  0.5296050000000 1.0
C      1  0.5506710000000  0.5227700000000  0.4495570000000 1.0
C      1  0.5626620000000  0.4247240000000  0.4849210000000 1.0
C      1  0.4787920000000  0.5436840000000  0.5320050000000 1.0
C      1  0.5647950000000  0.5456030000000  0.4416370000000 1.0
C      1  0.4729290000000  0.5248440000000  0.5772570000000 1.0
C      1  0.5714200000000  0.4734340000000  0.4673380000000 1.0
C      1  0.5043540000000  0.4277680000000  0.5137590000000 1.0
C      1  0.5015900000000  0.5200150000000  0.4201270000000 1.0
C      1  0.4912940000000  0.4490790000000  0.5685660000000 1.0
C      1  0.4156970000000  0.5052860000000  0.4799970000000 1.0
C      1  0.5310260000000  0.4735850000000  0.4650380000000 1.0
C      1  0.5415120000000  0.5283190000000  0.5496470000000 1.0
C      1  0.4450130000000  0.4317040000000  0.4847740000000 1.0
C      1  0.5738100000000  0.5048620000000  0.5184570000000 1.0
C      1  0.4976350000000  0.5723330000000  0.4639980000000 1.0
C      1  0.5052440000000  0.4953920000000  0.5534670000000 1.0
C      1  0.4693320000000  0.5103310000000  0.4204090000000 1.0
C      1  0.5613610000000  0.4764700000000  0.5535660000000 1.0
C      1  0.5046000000000  0.5645950000000  0.5329480000000 1.0
C      1  0.4756580000000  0.5591970000000  0.4334530000000 1.0
C      1  0.4807150000000  0.4606810000000  0.4301320000000 1.0
C      1  0.5272040000000  0.4676380000000  0.5348330000000 1.0
C      1  0.5257250000000  0.5639320000000  0.4509760000000 1.0
C      1  0.4853600000000  0.4519080000000  0.5043990000000 1.0
C      1  0.5210330000000  0.5188570000000  0.5699520000000 1.0
C      1  0.5060900000000  0.5790130000000  0.5604080000000 1.0
C      1  0.5571720000000  0.5102380000000  0.4956540000000 1.0
C      1  0.5007260000000  0.4738060000000  0.4619000000000 1.0
C      1  0.5279550000000  0.4282150000000  0.5297240000000 1.0
C      1  0.5449510000000  0.4762600000000  0.4376820000000 1.0
C      1  0.5362670000000  0.4454590000000  0.4371800000000 1.0
C      1  0.4211520000000  0.5517930000000  0.5035640000000 1.0
C      1  0.5030690000000  0.5638110000000  0.5829550000000 1.0
C      1  0.4697430000000  0.4377950000000  0.5536730000000 1.0
C      1  0.4517930000000  0.5715080000000  0.5399990000000 1.0
C      1  0.4705860000000  0.4952930000000  0.5761420000000 1.0
C      1  0.4550640000000  0.5422970000000  0.5562560000000 1.0
C      1  0.4589020000000  0.4803410000000  0.4948420000000 1.0
C      1  0.4988630000000  0.5359480000000  0.5820650000000 1.0
C      1  0.4148770000000  0.5341940000000  0.4811410000000 1.0
C      1  0.5622450000000  0.5423400000000  0.5262370000000 1.0
C      1  0.4667680000000  0.4170560000000  0.5310720000000 1.0
C      1  0.5297350000000  0.5510540000000  0.5269840000000 1.0
C      1  0.4980770000000  0.5417940000000  0.4692810000000 1.0
C      1  0.4654190000000  0.4290530000000  0.5048320000000 1.0
C      1  0.5260250000000  0.4869530000000  0.5204090000000 1.0
C      1  0.4566910000000  0.4876200000000  0.5506760000000 1.0
C      1  0.5292060000000  0.5159010000000  0.4931290000000 1.0
C      1  0.5888900000000  0.4805800000000  0.5155820000000 1.0
C      1  0.4728970000000  0.5836350000000  0.4506330000000 1.0
C      1  0.5028300000000  0.5494680000000  0.4304120000000 1.0
C      1  0.4912620000000  0.4913590000000  0.4354300000000 1.0
C      1  0.5025570000000  0.4237920000000  0.4819320000000 1.0
C      1  0.4571770000000  0.4736320000000  0.4464040000000 1.0
C      1  0.4745390000000  0.5283230000000  0.4642210000000 1.0
C      1  0.4275090000000  0.5292180000000  0.5471050000000 1.0
C      1  0.4548680000000  0.5356200000000  0.4366720000000 1.0
C      1  0.4261410000000  0.4849630000000  0.4568690000000 1.0
C      1  0.5542540000000  0.4312300000000  0.5173090000000 1.0
C      1  0.5211780000000  0.4441850000000  0.5579160000000 1.0
C      1  0.5402920000000  0.4578250000000  0.4868670000000 1.0
C      1  0.5723650000000  0.4552170000000  0.5308250000000 1.0
C      1  0.4903330000000  0.4744430000000  0.5836860000000 1.0
C      1  0.4233100000000  0.4955440000000  0.5055920000000 1.0
C      1  0.5662400000000  0.5015040000000  0.4687110000000 1.0
C      1  0.5415510000000  0.4663880000000  0.5718630000000 1.0
C      1  0.5706260000000  0.4614580000000  0.4972300000000 1.0
C      1  0.5449980000000  0.5614860000000  0.4724720000000 1.0
C      1  0.5283630000000  0.5106880000000  0.4083600000000 1.0
C      1  0.4612590000000  0.5030780000000  0.4588510000000 1.0
C      1  0.4889700000000  0.4790550000000  0.4892730000000 1.0
C      1  0.4359800000000  0.4627690000000  0.4790810000000 1.0
C      1  0.4827960000000  0.4942520000000  0.5380730000000 1.0
C      1  0.5459490000000  0.5021540000000  0.4273610000000 1.0
C      1  0.5036560000000  0.5015550000000  0.5043090000000 1.0
C      1  0.4471420000000  0.4511870000000  0.5375430000000 1.0
C      1  0.4407850000000  0.4594730000000  0.5129940000000 1.0
C      1  0.4810620000000  0.5184860000000  0.5179750000000 1.0
C      1  0.5068530000000  0.4425690000000  0.4347210000000 1.0
C      1  0.5208680000000  0.4870900000000  0.5822200000000 1.0
C      1  0.5236850000000  0.5279790000000  0.4682880000000 1.0
C      1  0.5475070000000  0.5547850000000  0.4981800000000 1.0
C      1  0.5609380000000  0.5037690000000  0.5439060000000 1.0
C      1  0.4325880000000  0.5012930000000  0.5373220000000 1.0
C      1  0.4434900000000  0.5691910000000  0.5079700000000 1.0
C      1  0.5315260000000  0.4287300000000  0.4846450000000 1.0
C      1  0.4914930000000  0.4408960000000  0.4624470000000 1.0
END
