TITL C-2778430-5657-984 0.00217252761416141 125000 -476.699241504577 0 0 82 (C1) n - 1
REM
REM in /home/nfs/bkarasulu/CARBON/AIRSS/Generating-Clusters/REBO/Only-C1/SD-CG/HFTN-CG
REM
REM
REM
REM
REM
REM ./C.cell (11c1c37f851c82e70ff6c80c92926a4b)
REM
REM compiler GCC version 9.2.1 20190827 (Red Hat 9.2.1-1)
REM options -cpp -mtune=generic -march=x86-64 -g -O0 -fpre-include=/usr/include/finclude/math-vector-fortran.h
REM seed 530020526 1846196934 1000525258 -1960837975 -1145564367 -2013322634 781855405 -319961393 -1672946227 -153782382 1267521770 279118372 1138576061 -792686791 -1660387131 1195870802 -509098165 1858398245 299658419 -417647090 901677188 1178220580 -187440661 1813405069 -1349076698 -621765924 1643260620 -405297287 1472639218 1094213983 -5439359 -193308938 1788448688
REM
CELL 1.54180   50.00000   50.00000   50.00000   90.00000   90.00000   90.00000
LATT -1
SFAC C  
C      1  0.4272240000000  0.5392330000000  0.5110320000000 1.0
C      1  0.4429700000000  0.5297990000000  0.4314680000000 1.0
C      1  0.5039500000000  0.4231270000000  0.5279630000000 1.0
C      1  0.4233700000000  0.5210790000000  0.5566000000000 1.0
C      1  0.4996260000000  0.4900810000000  0.5226740000000 1.0
C      1  0.5037730000000  0.5464340000000  0.4985730000000 1.0
C      1  0.5333190000000  0.5217280000000  0.4884410000000 1.0
C      1  0.4424810000000  0.5354930000000  0.4609560000000 1.0
C      1  0.5011740000000  0.4411150000000  0.5076190000000 1.0
C      1  0.4616880000000  0.5095080000000  0.4841690000000 1.0
C      1  0.4105570000000  0.4918550000000  0.5163310000000 1.0
C      1  0.5484130000000  0.5663290000000  0.5124510000000 1.0
C      1  0.5420420000000  0.4759890000000  0.5039070000000 1.0
C      1  0.4701700000000  0.4660690000000  0.5078230000000 1.0
C      1  0.4148850000000  0.5157090000000  0.5006950000000 1.0
C      1  0.4627940000000  0.4717740000000  0.5636210000000 1.0
C      1  0.4696950000000  0.5567210000000  0.5162500000000 1.0
C      1  0.4297430000000  0.5078320000000  0.4755890000000 1.0
C      1  0.5692110000000  0.5158960000000  0.4538880000000 1.0
C      1  0.5396020000000  0.4384450000000  0.5183420000000 1.0
C      1  0.5027260000000  0.4818140000000  0.4365150000000 1.0
C      1  0.4625090000000  0.4540120000000  0.5378420000000 1.0
C      1  0.5006810000000  0.5645060000000  0.5252700000000 1.0
C      1  0.4912960000000  0.5198030000000  0.4849250000000 1.0
C      1  0.5778600000000  0.5082480000000  0.4865210000000 1.0
C      1  0.5275380000000  0.4460470000000  0.4683840000000 1.0
C      1  0.4910660000000  0.4809230000000  0.5804370000000 1.0
C      1  0.5418630000000  0.5088400000000  0.5512550000000 1.0
C      1  0.4800800000000  0.4594070000000  0.4262850000000 1.0
C      1  0.5360530000000  0.5357770000000  0.5482600000000 1.0
C      1  0.4813670000000  0.4349140000000  0.4854580000000 1.0
C      1  0.5823230000000  0.5049830000000  0.5167320000000 1.0
C      1  0.4923980000000  0.4781070000000  0.5478630000000 1.0
C      1  0.4373160000000  0.5363580000000  0.5373700000000 1.0
C      1  0.4642570000000  0.5263090000000  0.5875950000000 1.0
C      1  0.5131200000000  0.5057550000000  0.4667450000000 1.0
C      1  0.5396140000000  0.5269710000000  0.4437090000000 1.0
C      1  0.5297480000000  0.5524050000000  0.4630540000000 1.0
C      1  0.5095920000000  0.5466000000000  0.5497310000000 1.0
C      1  0.4682230000000  0.5308020000000  0.5358970000000 1.0
C      1  0.4490440000000  0.5523650000000  0.4930870000000 1.0
C      1  0.5453800000000  0.4767000000000  0.5562590000000 1.0
C      1  0.5596710000000  0.4117520000000  0.4839380000000 1.0
C      1  0.4317320000000  0.4735530000000  0.4724970000000 1.0
C      1  0.4201960000000  0.4687710000000  0.5020000000000 1.0
C      1  0.5258690000000  0.5814550000000  0.5169960000000 1.0
C      1  0.4657850000000  0.5573780000000  0.4665360000000 1.0
C      1  0.4914930000000  0.5101530000000  0.5870350000000 1.0
C      1  0.5252130000000  0.4997040000000  0.4291210000000 1.0
C      1  0.4769710000000  0.5103720000000  0.5137530000000 1.0
C      1  0.5805750000000  0.5337920000000  0.5296810000000 1.0
C      1  0.5128010000000  0.5379740000000  0.3902790000000 1.0
C      1  0.4151940000000  0.4932280000000  0.5449090000000 1.0
C      1  0.5087690000000  0.4735760000000  0.4677880000000 1.0
C      1  0.4391920000000  0.5144610000000  0.5825870000000 1.0
C      1  0.5494530000000  0.4886040000000  0.4479280000000 1.0
C      1  0.5157890000000  0.5192820000000  0.5160370000000 1.0
C      1  0.5165830000000  0.4642740000000  0.5651770000000 1.0
C      1  0.4853690000000  0.5320170000000  0.5615880000000 1.0
C      1  0.4702100000000  0.4892160000000  0.4345290000000 1.0
C      1  0.5479830000000  0.4594350000000  0.4475760000000 1.0
C      1  0.5575910000000  0.4894890000000  0.5279540000000 1.0
C      1  0.4603280000000  0.4860090000000  0.4626750000000 1.0
C      1  0.5144620000000  0.4676890000000  0.5077410000000 1.0
C      1  0.5003530000000  0.4312860000000  0.4611230000000 1.0
C      1  0.4369320000000  0.4858890000000  0.5685050000000 1.0
C      1  0.4406520000000  0.4548620000000  0.5153750000000 1.0
C      1  0.4559600000000  0.5114430000000  0.4200320000000 1.0
C      1  0.4959570000000  0.5545740000000  0.4663410000000 1.0
C      1  0.5489240000000  0.4943280000000  0.4802760000000 1.0
C      1  0.6307910000000  0.4794030000000  0.5287490000000 1.0
C      1  0.5764310000000  0.5395880000000  0.4768250000000 1.0
C      1  0.4748070000000  0.4400520000000  0.4465800000000 1.0
C      1  0.4814390000000  0.4747410000000  0.4840390000000 1.0
C      1  0.5422470000000  0.4322210000000  0.4911670000000 1.0
C      1  0.5495610000000  0.5512850000000  0.4868220000000 1.0
C      1  0.5571200000000  0.5495820000000  0.5339200000000 1.0
C      1  0.4538480000000  0.4475570000000  0.4698980000000 1.0
C      1  0.5138730000000  0.5265340000000  0.4133100000000 1.0
C      1  0.5046350000000  0.5298180000000  0.4451370000000 1.0
C      1  0.6087460000000  0.4910380000000  0.5232830000000 1.0
C      1  0.5357510000000  0.4477520000000  0.5427050000000 1.0
END
