TITL C-2778422-5617-1151 0.00237404633472141 125000 -728.801408788522 0 0 125 (C1) n - 1
REM
REM in /home/nfs/bkarasulu/CARBON/AIRSS/Generating-Clusters/REBO/Only-C1/SD-CG/HFTN-CG
REM
REM
REM
REM
REM
REM ./C.cell (11c1c37f851c82e70ff6c80c92926a4b)
REM
REM compiler GCC version 9.2.1 20190827 (Red Hat 9.2.1-1)
REM options -cpp -mtune=generic -march=x86-64 -g -O0 -fpre-include=/usr/include/finclude/math-vector-fortran.h
REM seed 1302704330 -462505778 -643143270 -1073121903 331383251 -1390995690 1837399398 585894477 -1461809484 1622226682 -343625840 271687070 147984146 -1046248997 -691619077 -525470805 -1053889372 1457768903 1791630461 309629566 2081631809 396666783 -1230870267 1295762481 1775253643 2054008917 -746392134 925646963 -726757820 645460699 278334755 1768589551 1679195345
REM
CELL 1.54180   50.00000   50.00000   50.00000   90.00000   90.00000   90.00000
LATT -1
SFAC C  
C      1  0.5528350000000  0.4567430000000  0.5739100000000 1.0
C      1  0.5555060000000  0.5337980000000  0.4296850000000 1.0
C      1  0.5017230000000  0.5339470000000  0.5877640000000 1.0
C      1  0.4424500000000  0.5888080000000  0.5194140000000 1.0
C      1  0.4830740000000  0.5064430000000  0.5860580000000 1.0
C      1  0.4347120000000  0.5525700000000  0.4619450000000 1.0
C      1  0.4758620000000  0.5159040000000  0.5093020000000 1.0
C      1  0.5516630000000  0.5010930000000  0.4225660000000 1.0
C      1  0.5194880000000  0.5401630000000  0.4675600000000 1.0
C      1  0.5225640000000  0.4934060000000  0.5713130000000 1.0
C      1  0.4640830000000  0.5177170000000  0.4453290000000 1.0
C      1  0.4814770000000  0.4753110000000  0.5964700000000 1.0
C      1  0.5318400000000  0.5859490000000  0.4544040000000 1.0
C      1  0.5024040000000  0.5068740000000  0.4432000000000 1.0
C      1  0.4844160000000  0.4207400000000  0.4509090000000 1.0
C      1  0.5039260000000  0.5730910000000  0.5567820000000 1.0
C      1  0.4956220000000  0.4465210000000  0.5886100000000 1.0
C      1  0.5508810000000  0.5802900000000  0.4823730000000 1.0
C      1  0.4737460000000  0.5841880000000  0.5212840000000 1.0
C      1  0.4590360000000  0.4310600000000  0.5555820000000 1.0
C      1  0.5489680000000  0.4251470000000  0.5040510000000 1.0
C      1  0.4706780000000  0.4107300000000  0.5057000000000 1.0
C      1  0.4903570000000  0.4870990000000  0.4122060000000 1.0
C      1  0.4369350000000  0.5328570000000  0.4847770000000 1.0
C      1  0.5295120000000  0.4458340000000  0.5858340000000 1.0
C      1  0.4804180000000  0.5718690000000  0.4604610000000 1.0
C      1  0.5392080000000  0.4668530000000  0.5288000000000 1.0
C      1  0.4939010000000  0.5439840000000  0.5040010000000 1.0
C      1  0.5561910000000  0.4457550000000  0.4266660000000 1.0
C      1  0.4925160000000  0.4253970000000  0.4837040000000 1.0
C      1  0.5080760000000  0.5673240000000  0.4411830000000 1.0
C      1  0.5132770000000  0.5218190000000  0.5214710000000 1.0
C      1  0.5003990000000  0.5972610000000  0.5330750000000 1.0
C      1  0.4616230000000  0.5587440000000  0.5372000000000 1.0
C      1  0.4373290000000  0.4551710000000  0.4319890000000 1.0
C      1  0.5542210000000  0.4835860000000  0.5105540000000 1.0
C      1  0.4197910000000  0.5687490000000  0.4824820000000 1.0
C      1  0.5040560000000  0.4554360000000  0.4539540000000 1.0
C      1  0.4336480000000  0.5056270000000  0.4421830000000 1.0
C      1  0.5044780000000  0.5973630000000  0.5003570000000 1.0
C      1  0.5138020000000  0.4625550000000  0.4158450000000 1.0
C      1  0.4387520000000  0.4744950000000  0.4667290000000 1.0
C      1  0.5661550000000  0.5028010000000  0.5507490000000 1.0
C      1  0.4326710000000  0.4816060000000  0.4267660000000 1.0
C      1  0.4981180000000  0.5095970000000  0.5563600000000 1.0
C      1  0.5458250000000  0.5076190000000  0.5000060000000 1.0
C      1  0.5049940000000  0.5398090000000  0.5483570000000 1.0
C      1  0.4505780000000  0.4238100000000  0.4522710000000 1.0
C      1  0.5140180000000  0.4117900000000  0.5363740000000 1.0
C      1  0.4577140000000  0.5603800000000  0.4465160000000 1.0
C      1  0.5904700000000  0.4965040000000  0.5004760000000 1.0
C      1  0.5286000000000  0.4410380000000  0.4261120000000 1.0
C      1  0.4419470000000  0.5311580000000  0.5711160000000 1.0
C      1  0.5800900000000  0.4874650000000  0.4633780000000 1.0
C      1  0.4623090000000  0.4789220000000  0.5036070000000 1.0
C      1  0.4769570000000  0.5184050000000  0.4146830000000 1.0
C      1  0.4186460000000  0.4856620000000  0.4894560000000 1.0
C      1  0.4489600000000  0.4923870000000  0.5396090000000 1.0
C      1  0.4644610000000  0.4533400000000  0.5766190000000 1.0
C      1  0.5489680000000  0.5776350000000  0.5241210000000 1.0
C      1  0.5299650000000  0.4124800000000  0.4783330000000 1.0
C      1  0.5302510000000  0.5334920000000  0.5786530000000 1.0
C      1  0.4819850000000  0.4702030000000  0.4387670000000 1.0
C      1  0.5446400000000  0.5555090000000  0.4519020000000 1.0
C      1  0.5522020000000  0.4410840000000  0.5298740000000 1.0
C      1  0.4209390000000  0.4366440000000  0.4919430000000 1.0
C      1  0.4623860000000  0.5485620000000  0.4203640000000 1.0
C      1  0.4680750000000  0.4429500000000  0.4308070000000 1.0
C      1  0.4555840000000  0.4532630000000  0.5027030000000 1.0
C      1  0.5087020000000  0.4701750000000  0.5034380000000 1.0
C      1  0.5665470000000  0.5296880000000  0.4998820000000 1.0
C      1  0.4855940000000  0.5721170000000  0.4915250000000 1.0
C      1  0.5273330000000  0.6024600000000  0.4834130000000 1.0
C      1  0.4405360000000  0.4163520000000  0.5030940000000 1.0
C      1  0.4613150000000  0.5516330000000  0.5648920000000 1.0
C      1  0.4924620000000  0.5370890000000  0.4467940000000 1.0
C      1  0.5109790000000  0.4269920000000  0.5665310000000 1.0
C      1  0.5526990000000  0.5029660000000  0.4548480000000 1.0
C      1  0.4167500000000  0.4610970000000  0.5080400000000 1.0
C      1  0.4795980000000  0.4962090000000  0.5350810000000 1.0
C      1  0.5770610000000  0.5369140000000  0.5314350000000 1.0
C      1  0.5860410000000  0.5187210000000  0.4751720000000 1.0
C      1  0.5306950000000  0.5899410000000  0.5440080000000 1.0
C      1  0.4285230000000  0.5129200000000  0.5298640000000 1.0
C      1  0.5490870000000  0.4842220000000  0.5642780000000 1.0
C      1  0.5709620000000  0.4757360000000  0.4327210000000 1.0
C      1  0.4213500000000  0.5295560000000  0.5513840000000 1.0
C      1  0.5174360000000  0.4241030000000  0.4525580000000 1.0
C      1  0.4424940000000  0.4385940000000  0.5287870000000 1.0
C      1  0.4522760000000  0.5060150000000  0.5796750000000 1.0
C      1  0.4653260000000  0.4876810000000  0.4585170000000 1.0
C      1  0.5840510000000  0.5049030000000  0.5265050000000 1.0
C      1  0.4909220000000  0.4665490000000  0.5286540000000 1.0
C      1  0.4291300000000  0.4658710000000  0.5384810000000 1.0
C      1  0.5736430000000  0.4690530000000  0.4894590000000 1.0
C      1  0.4631430000000  0.4390270000000  0.4791860000000 1.0
C      1  0.4950440000000  0.4400810000000  0.5407430000000 1.0
C      1  0.5363190000000  0.5511780000000  0.5508460000000 1.0
C      1  0.5742360000000  0.5656280000000  0.5148890000000 1.0
C      1  0.4243380000000  0.5129300000000  0.5023300000000 1.0
C      1  0.5244700000000  0.4939700000000  0.4111040000000 1.0
C      1  0.5133160000000  0.4818710000000  0.5946970000000 1.0
C      1  0.4313530000000  0.5659660000000  0.5084260000000 1.0
C      1  0.4817530000000  0.4959370000000  0.4849210000000 1.0
C      1  0.5595090000000  0.5319790000000  0.5603850000000 1.0
C      1  0.5504020000000  0.4467120000000  0.4810670000000 1.0
C      1  0.5649790000000  0.4388550000000  0.5549200000000 1.0
C      1  0.5338770000000  0.5037230000000  0.4752970000000 1.0
C      1  0.5785120000000  0.5637380000000  0.4830630000000 1.0
C      1  0.4863170000000  0.5572500000000  0.5786100000000 1.0
C      1  0.5284390000000  0.5515380000000  0.5185210000000 1.0
C      1  0.4272200000000  0.4438120000000  0.4624610000000 1.0
C      1  0.4527840000000  0.5396090000000  0.5127250000000 1.0
C      1  0.5680700000000  0.4501470000000  0.4552650000000 1.0
C      1  0.5180380000000  0.4932260000000  0.5244270000000 1.0
C      1  0.4435630000000  0.4760710000000  0.5678340000000 1.0
C      1  0.4157830000000  0.5068490000000  0.4631400000000 1.0
C      1  0.4751320000000  0.4158790000000  0.5329760000000 1.0
C      1  0.5087990000000  0.5222520000000  0.4134550000000 1.0
C      1  0.5166150000000  0.4495330000000  0.4836750000000 1.0
C      1  0.5078130000000  0.4978570000000  0.4690920000000 1.0
C      1  0.5238760000000  0.4060330000000  0.5108470000000 1.0
C      1  0.5748560000000  0.5422530000000  0.4568910000000 1.0
C      1  0.5249710000000  0.5461890000000  0.4204400000000 1.0
C      1  0.5420060000000  0.5499580000000  0.4911270000000 1.0
END
