TITL C-2778433-5640-235 -0.000384590554315381 125000 -359.829928686698 0 0 61 (C1) n - 1
REM
REM in /home/nfs/bkarasulu/CARBON/AIRSS/Generating-Clusters/REBO/Only-C1/SD-CG/HFTN-CG
REM
REM
REM
REM
REM
REM ./C.cell (11c1c37f851c82e70ff6c80c92926a4b)
REM
REM compiler GCC version 9.2.1 20190827 (Red Hat 9.2.1-1)
REM options -cpp -mtune=generic -march=x86-64 -g -O0 -fpre-include=/usr/include/finclude/math-vector-fortran.h
REM seed -1693495849 -1634068824 1374478358 692644829 -370345028 773686649 1997951591 259886861 1387635410 1378792683 170991588 -846710185 -594579220 736026766 -461732582 382611659 -1079977967 1302667646 -1211293861 -2029001637 921831173 1378624067 846895444 -1587965997 -2071352678 2110440882 -155512721 279018038 -889298345 -285683506 -1010171239 2123777490 -1337208799
REM
CELL 1.54180   50.00000   50.00000   50.00000   90.00000   90.00000   90.00000
LATT -1
SFAC C  
C      1  0.4681020000000  0.4782220000000  0.4582490000000 1.0
C      1  0.5674360000000  0.4623400000000  0.4246820000000 1.0
C      1  0.5049040000000  0.5125290000000  0.5004020000000 1.0
C      1  0.5513960000000  0.4874800000000  0.5435220000000 1.0
C      1  0.4913990000000  0.4870080000000  0.5095700000000 1.0
C      1  0.4463040000000  0.3926930000000  0.5691180000000 1.0
C      1  0.5344950000000  0.4645790000000  0.5402450000000 1.0
C      1  0.4687330000000  0.4952510000000  0.4368950000000 1.0
C      1  0.5450070000000  0.5921490000000  0.5337240000000 1.0
C      1  0.5489310000000  0.5060020000000  0.4418450000000 1.0
C      1  0.4910080000000  0.5106920000000  0.5607990000000 1.0
C      1  0.4572390000000  0.5133650000000  0.5567950000000 1.0
C      1  0.5355440000000  0.4570210000000  0.4625600000000 1.0
C      1  0.5566840000000  0.4752210000000  0.4473920000000 1.0
C      1  0.5817940000000  0.5030330000000  0.4920530000000 1.0
C      1  0.4573530000000  0.4135090000000  0.5567160000000 1.0
C      1  0.4478090000000  0.5372140000000  0.5171980000000 1.0
C      1  0.4811700000000  0.4870120000000  0.5385910000000 1.0
C      1  0.4714170000000  0.5506580000000  0.5098980000000 1.0
C      1  0.5293720000000  0.5099650000000  0.4873300000000 1.0
C      1  0.5451470000000  0.4882790000000  0.4964230000000 1.0
C      1  0.4695890000000  0.5171500000000  0.4215680000000 1.0
C      1  0.5162760000000  0.5439100000000  0.5337120000000 1.0
C      1  0.5460720000000  0.5141980000000  0.4167860000000 1.0
C      1  0.4878310000000  0.4346330000000  0.5234520000000 1.0
C      1  0.4251660000000  0.4940200000000  0.5248510000000 1.0
C      1  0.4404420000000  0.5165980000000  0.5348660000000 1.0
C      1  0.5166400000000  0.5246620000000  0.5547790000000 1.0
C      1  0.5318240000000  0.5881460000000  0.5052910000000 1.0
C      1  0.3778080000000  0.5015100000000  0.4997500000000 1.0
C      1  0.4703670000000  0.4808710000000  0.4892350000000 1.0
C      1  0.4875160000000  0.5957410000000  0.4897380000000 1.0
C      1  0.4007400000000  0.4978830000000  0.5119050000000 1.0
C      1  0.4852350000000  0.5667060000000  0.4202980000000 1.0
C      1  0.4687930000000  0.4350600000000  0.5438760000000 1.0
C      1  0.5115880000000  0.4418290000000  0.4591940000000 1.0
C      1  0.5191110000000  0.5768340000000  0.4584910000000 1.0
C      1  0.5448820000000  0.5256650000000  0.4651150000000 1.0
C      1  0.5657340000000  0.4941000000000  0.5189910000000 1.0
C      1  0.5613280000000  0.5445270000000  0.5083860000000 1.0
C      1  0.4586020000000  0.4630570000000  0.5471870000000 1.0
C      1  0.5792980000000  0.4848030000000  0.4697020000000 1.0
C      1  0.5053780000000  0.4592380000000  0.5233980000000 1.0
C      1  0.4626770000000  0.4478380000000  0.4695220000000 1.0
C      1  0.5417420000000  0.4610690000000  0.4899180000000 1.0
C      1  0.4742730000000  0.5427180000000  0.4149710000000 1.0
C      1  0.4875680000000  0.4324310000000  0.4727350000000 1.0
C      1  0.4894150000000  0.4204420000000  0.4988930000000 1.0
C      1  0.5672340000000  0.5281410000000  0.4876300000000 1.0
C      1  0.4354300000000  0.3722080000000  0.5813230000000 1.0
C      1  0.4387550000000  0.4687290000000  0.5239910000000 1.0
C      1  0.4970780000000  0.5370420000000  0.5130530000000 1.0
C      1  0.4494100000000  0.4598150000000  0.4986980000000 1.0
C      1  0.5403300000000  0.5093400000000  0.5583000000000 1.0
C      1  0.5015450000000  0.5805630000000  0.4367550000000 1.0
C      1  0.4692600000000  0.4852820000000  0.5706580000000 1.0
C      1  0.5345930000000  0.5534820000000  0.4580860000000 1.0
C      1  0.4709920000000  0.5773870000000  0.5011760000000 1.0
C      1  0.5395530000000  0.5602900000000  0.5231400000000 1.0
C      1  0.5146710000000  0.5902840000000  0.4834990000000 1.0
C      1  0.5340130000000  0.4475730000000  0.5130710000000 1.0
END
