TITL C-2778429-3646-961 1.33886818632949e-05 125000 -90.2842225047979 0 0 17 (C1) n - 1
REM
REM in /home/nfs/bkarasulu/CARBON/AIRSS/Generating-Clusters/REBO/Only-C1/SD-CG/HFTN-CG
REM
REM
REM
REM
REM
REM ./C.cell (11c1c37f851c82e70ff6c80c92926a4b)
REM
REM compiler GCC version 9.2.1 20190827 (Red Hat 9.2.1-1)
REM options -cpp -mtune=generic -march=x86-64 -g -O0 -fpre-include=/usr/include/finclude/math-vector-fortran.h
REM seed 811409342 -562544445 117773586 -1628868852 1808556491 -1763775861 494348703 387446955 -976400046 -314306127 1763729976 1634312847 -1719198354 -781384625 1322660053 260502620 -2026825092 49866608 -1558579655 -1958477923 1971335612 -739476979 -18642277 1614928094 -1999366438 1281974843 -588958333 -95710690 633876116 -1200442788 -2042726784 1735803844 -734410544
REM
CELL 1.54180   50.00000   50.00000   50.00000   90.00000   90.00000   90.00000
LATT -1
SFAC C  
C      1  0.5677870000000  0.5189580000000  0.5325250000000 1.0
C      1  0.5847040000000  0.5217790000000  0.5523400000000 1.0
C      1  0.4649760000000  0.4692980000000  0.4992100000000 1.0
C      1  0.5055630000000  0.5126970000000  0.5688700000000 1.0
C      1  0.4854010000000  0.5067110000000  0.4755530000000 1.0
C      1  0.4657480000000  0.4862080000000  0.4769650000000 1.0
C      1  0.5497360000000  0.5159490000000  0.5113810000000 1.0
C      1  0.4868970000000  0.5394740000000  0.4324520000000 1.0
C      1  0.4861730000000  0.5236210000000  0.4533080000000 1.0
C      1  0.4474030000000  0.4831720000000  0.4560940000000 1.0
C      1  0.5582480000000  0.5160170000000  0.4854840000000 1.0
C      1  0.5220930000000  0.5127820000000  0.5172940000000 1.0
C      1  0.4642410000000  0.4531880000000  0.5204030000000 1.0
C      1  0.5135620000000  0.5127380000000  0.5439130000000 1.0
C      1  0.5037470000000  0.5097460000000  0.4964230000000 1.0
C      1  0.4635170000000  0.4373350000000  0.5412580000000 1.0
C      1  0.4302030000000  0.4803270000000  0.4365270000000 1.0
END
