TITL C-2778427-5640-1083 -0.00228010149677852 125000 -515.84846546801 0 0 90 (C1) n - 1
REM
REM in /home/nfs/bkarasulu/CARBON/AIRSS/Generating-Clusters/REBO/Only-C1/SD-CG/HFTN-CG
REM
REM
REM
REM
REM
REM ./C.cell (11c1c37f851c82e70ff6c80c92926a4b)
REM
REM compiler GCC version 9.2.1 20190827 (Red Hat 9.2.1-1)
REM options -cpp -mtune=generic -march=x86-64 -g -O0 -fpre-include=/usr/include/finclude/math-vector-fortran.h
REM seed -1528069676 1440376459 -1105212181 1090019762 -923094862 -1373311441 1109461018 -26697009 -1686034819 -1635962715 -1247975610 1889654619 -42285761 1211312064 -605667541 2005533819 -423894098 1487374037 -1503706396 1370388637 1822689512 870054173 1514308780 579041727 867899893 1479963164 -1778793225 -1049917704 849880600 -1313825016 -1607799192 -1759936499 1177780208
REM
CELL 1.54180   50.00000   50.00000   50.00000   90.00000   90.00000   90.00000
LATT -1
SFAC C  
C      1  0.5307630000000  0.5733620000000  0.5293390000000 1.0
C      1  0.5432440000000  0.5525800000000  0.4870270000000 1.0
C      1  0.4818260000000  0.4520200000000  0.5649480000000 1.0
C      1  0.4691530000000  0.5658990000000  0.4676130000000 1.0
C      1  0.4751130000000  0.4209730000000  0.5243220000000 1.0
C      1  0.5120270000000  0.4126470000000  0.5583780000000 1.0
C      1  0.5791300000000  0.5001830000000  0.5701620000000 1.0
C      1  0.4960710000000  0.5703010000000  0.4758300000000 1.0
C      1  0.5463000000000  0.5182350000000  0.5256090000000 1.0
C      1  0.5170290000000  0.5670090000000  0.5028170000000 1.0
C      1  0.5260010000000  0.5265130000000  0.4250530000000 1.0
C      1  0.4758770000000  0.4854140000000  0.5678530000000 1.0
C      1  0.4148560000000  0.4437320000000  0.5036070000000 1.0
C      1  0.5243490000000  0.4947340000000  0.4892000000000 1.0
C      1  0.4299090000000  0.5180600000000  0.4554340000000 1.0
C      1  0.4485850000000  0.4729010000000  0.4354250000000 1.0
C      1  0.5701280000000  0.4354480000000  0.5152850000000 1.0
C      1  0.4446550000000  0.4940610000000  0.5573750000000 1.0
C      1  0.5121690000000  0.5454560000000  0.5760350000000 1.0
C      1  0.4890350000000  0.4274900000000  0.5524950000000 1.0
C      1  0.4901720000000  0.4969920000000  0.4174190000000 1.0
C      1  0.4791910000000  0.5678390000000  0.5447300000000 1.0
C      1  0.5403080000000  0.4820550000000  0.4223200000000 1.0
C      1  0.5076530000000  0.5263740000000  0.5288140000000 1.0
C      1  0.5264710000000  0.4471000000000  0.4359210000000 1.0
C      1  0.4917300000000  0.4898290000000  0.5314160000000 1.0
C      1  0.5019930000000  0.5395380000000  0.5046190000000 1.0
C      1  0.5850530000000  0.5152510000000  0.5340970000000 1.0
C      1  0.5453500000000  0.5202050000000  0.4942060000000 1.0
C      1  0.4354310000000  0.5498920000000  0.5176970000000 1.0
C      1  0.4413650000000  0.4195750000000  0.5290670000000 1.0
C      1  0.4664020000000  0.4562580000000  0.5076630000000 1.0
C      1  0.4610240000000  0.5397680000000  0.5383410000000 1.0
C      1  0.5205700000000  0.5069340000000  0.5710000000000 1.0
C      1  0.4025410000000  0.4815890000000  0.5215790000000 1.0
C      1  0.5692900000000  0.5496020000000  0.5065390000000 1.0
C      1  0.4595730000000  0.4997600000000  0.4221920000000 1.0
C      1  0.4807990000000  0.5122310000000  0.4686240000000 1.0
C      1  0.5200580000000  0.5010050000000  0.4143040000000 1.0
C      1  0.5626720000000  0.4667470000000  0.4916050000000 1.0
C      1  0.5410130000000  0.5293560000000  0.5763530000000 1.0
C      1  0.4897580000000  0.5186980000000  0.4397270000000 1.0
C      1  0.5770010000000  0.4266290000000  0.4885070000000 1.0
C      1  0.5291560000000  0.5262190000000  0.4583170000000 1.0
C      1  0.4646090000000  0.4903640000000  0.5298500000000 1.0
C      1  0.4523380000000  0.4619780000000  0.5551750000000 1.0
C      1  0.5683870000000  0.4470870000000  0.4688590000000 1.0
C      1  0.4631650000000  0.4198470000000  0.4925040000000 1.0
C      1  0.4918810000000  0.5470340000000  0.4284090000000 1.0
C      1  0.4599130000000  0.5740070000000  0.5183780000000 1.0
C      1  0.5509720000000  0.4461710000000  0.4470010000000 1.0
C      1  0.5617370000000  0.5299170000000  0.5537820000000 1.0
C      1  0.4998790000000  0.4494120000000  0.4329670000000 1.0
C      1  0.4388300000000  0.4509560000000  0.4588830000000 1.0
C      1  0.4287260000000  0.5379620000000  0.4802730000000 1.0
C      1  0.4600720000000  0.5304390000000  0.4836250000000 1.0
C      1  0.4729690000000  0.4495420000000  0.4399890000000 1.0
C      1  0.4997710000000  0.5667680000000  0.5619010000000 1.0
C      1  0.5348730000000  0.4134180000000  0.5435970000000 1.0
C      1  0.5221130000000  0.4481420000000  0.5101070000000 1.0
C      1  0.5884070000000  0.5303160000000  0.5109700000000 1.0
C      1  0.4393260000000  0.4444690000000  0.4905820000000 1.0
C      1  0.4372860000000  0.4904350000000  0.4606400000000 1.0
C      1  0.5945150000000  0.4751700000000  0.5682630000000 1.0
C      1  0.5314140000000  0.5543960000000  0.4374920000000 1.0
C      1  0.4677460000000  0.5178950000000  0.5585830000000 1.0
C      1  0.4467660000000  0.4486530000000  0.5295820000000 1.0
C      1  0.5421030000000  0.4308400000000  0.5227660000000 1.0
C      1  0.5243840000000  0.5653940000000  0.4640160000000 1.0
C      1  0.4934640000000  0.5199150000000  0.5770980000000 1.0
C      1  0.5247030000000  0.5932930000000  0.5453590000000 1.0
C      1  0.4637160000000  0.4297620000000  0.4629450000000 1.0
C      1  0.4155820000000  0.5266870000000  0.5073170000000 1.0
C      1  0.4580190000000  0.4909160000000  0.4804890000000 1.0
C      1  0.4654330000000  0.5500430000000  0.4432530000000 1.0
C      1  0.4452490000000  0.5666860000000  0.4886740000000 1.0
C      1  0.5557960000000  0.4866420000000  0.4451690000000 1.0
C      1  0.4207250000000  0.4993100000000  0.5119920000000 1.0
C      1  0.5790550000000  0.4650440000000  0.5181330000000 1.0
C      1  0.5866690000000  0.4847080000000  0.5376290000000 1.0
C      1  0.5076410000000  0.5209710000000  0.4809140000000 1.0
C      1  0.4731550000000  0.5444220000000  0.5065900000000 1.0
C      1  0.5340160000000  0.4703210000000  0.4964800000000 1.0
C      1  0.4487230000000  0.4920210000000  0.5070630000000 1.0
C      1  0.4945160000000  0.4456730000000  0.5112630000000 1.0
C      1  0.5523620000000  0.5535890000000  0.5327130000000 1.0
C      1  0.5039530000000  0.5613330000000  0.4093500000000 1.0
C      1  0.5531040000000  0.5058070000000  0.4642080000000 1.0
C      1  0.5217770000000  0.5001100000000  0.5408080000000 1.0
C      1  0.4493630000000  0.5256720000000  0.4354940000000 1.0
END
