TITL C-2778422-5617-1445 0.00228985183172429 125000 -790.37757253405 0 0 136 (C1) n - 1
REM
REM in /home/nfs/bkarasulu/CARBON/AIRSS/Generating-Clusters/REBO/Only-C1/SD-CG/HFTN-CG
REM
REM
REM
REM
REM
REM ./C.cell (11c1c37f851c82e70ff6c80c92926a4b)
REM
REM compiler GCC version 9.2.1 20190827 (Red Hat 9.2.1-1)
REM options -cpp -mtune=generic -march=x86-64 -g -O0 -fpre-include=/usr/include/finclude/math-vector-fortran.h
REM seed -1345080624 770203550 1610173627 821056943 1486114062 -1574274709 -2110368359 -958914176 -79617517 -816880534 169528256 147059834 -1762369322 -719516766 -966582197 -560616269 -1209476271 1479106545 1153499053 515995194 -1406897711 -220650710 1318098813 1566997145 -1545438194 -232992827 -32004912 -206209752 1171542541 437493817 -1372403948 -2030290813 -7383559
REM
CELL 1.54180   50.00000   50.00000   50.00000   90.00000   90.00000   90.00000
LATT -1
SFAC C  
C      1  0.4821230000000  0.4398660000000  0.5668540000000 1.0
C      1  0.6219670000000  0.4497390000000  0.4912430000000 1.0
C      1  0.5135580000000  0.4789430000000  0.4089600000000 1.0
C      1  0.4858010000000  0.5929900000000  0.5154580000000 1.0
C      1  0.5091630000000  0.5083000000000  0.5830890000000 1.0
C      1  0.4866740000000  0.4527700000000  0.5294190000000 1.0
C      1  0.4791950000000  0.5622150000000  0.5253950000000 1.0
C      1  0.4608010000000  0.4368570000000  0.5403550000000 1.0
C      1  0.4136270000000  0.4522280000000  0.5050260000000 1.0
C      1  0.4977640000000  0.5379220000000  0.4506670000000 1.0
C      1  0.3945850000000  0.4982260000000  0.4129280000000 1.0
C      1  0.5111830000000  0.5032850000000  0.4720860000000 1.0
C      1  0.4211940000000  0.5349200000000  0.5346430000000 1.0
C      1  0.5237030000000  0.5353410000000  0.5741310000000 1.0
C      1  0.5808280000000  0.4876700000000  0.5772720000000 1.0
C      1  0.5316500000000  0.4076360000000  0.4839720000000 1.0
C      1  0.4728640000000  0.5620680000000  0.5687070000000 1.0
C      1  0.5592490000000  0.4806680000000  0.4721090000000 1.0
C      1  0.5021890000000  0.5736290000000  0.5557460000000 1.0
C      1  0.4531180000000  0.4270330000000  0.4866080000000 1.0
C      1  0.5949190000000  0.5111350000000  0.4742090000000 1.0
C      1  0.4990600000000  0.5772260000000  0.4433860000000 1.0
C      1  0.5259750000000  0.5083300000000  0.4443360000000 1.0
C      1  0.4880910000000  0.4685940000000  0.3911790000000 1.0
C      1  0.5564040000000  0.4456370000000  0.5140520000000 1.0
C      1  0.4353330000000  0.5554500000000  0.4869320000000 1.0
C      1  0.4688900000000  0.5019880000000  0.4240670000000 1.0
C      1  0.4925950000000  0.4936560000000  0.5587930000000 1.0
C      1  0.5717390000000  0.5056300000000  0.5534560000000 1.0
C      1  0.5480940000000  0.5452300000000  0.4293380000000 1.0
C      1  0.5707330000000  0.4547050000000  0.4869540000000 1.0
C      1  0.5788150000000  0.4772000000000  0.5234860000000 1.0
C      1  0.5612470000000  0.4801830000000  0.5991360000000 1.0
C      1  0.3240070000000  0.4926320000000  0.4515440000000 1.0
C      1  0.5584550000000  0.5651100000000  0.4498850000000 1.0
C      1  0.5082310000000  0.4110540000000  0.5379200000000 1.0
C      1  0.5410580000000  0.5384230000000  0.4950050000000 1.0
C      1  0.4934780000000  0.5462480000000  0.4919200000000 1.0
C      1  0.5372890000000  0.5653020000000  0.4765530000000 1.0
C      1  0.5415610000000  0.4199090000000  0.4593950000000 1.0
C      1  0.4338210000000  0.4535620000000  0.4457990000000 1.0
C      1  0.5652440000000  0.5218860000000  0.4985780000000 1.0
C      1  0.5314040000000  0.4485110000000  0.5624510000000 1.0
C      1  0.4270350000000  0.4467200000000  0.4791820000000 1.0
C      1  0.5999260000000  0.4638330000000  0.4926820000000 1.0
C      1  0.5579450000000  0.5309300000000  0.5366130000000 1.0
C      1  0.4349940000000  0.4636120000000  0.5811020000000 1.0
C      1  0.5690400000000  0.5828690000000  0.4949860000000 1.0
C      1  0.5894740000000  0.4699420000000  0.5550260000000 1.0
C      1  0.5142670000000  0.4629480000000  0.4653810000000 1.0
C      1  0.5798410000000  0.4458430000000  0.5370030000000 1.0
C      1  0.4557920000000  0.4881340000000  0.5910650000000 1.0
C      1  0.4788610000000  0.5130190000000  0.5934500000000 1.0
C      1  0.5868070000000  0.5392460000000  0.4801670000000 1.0
C      1  0.5361320000000  0.4789080000000  0.4528760000000 1.0
C      1  0.5275330000000  0.5877360000000  0.5460750000000 1.0
C      1  0.5408250000000  0.4579050000000  0.4288470000000 1.0
C      1  0.5144810000000  0.5224990000000  0.4940010000000 1.0
C      1  0.5466620000000  0.4852470000000  0.4149390000000 1.0
C      1  0.5116760000000  0.5114540000000  0.4154070000000 1.0
C      1  0.4473320000000  0.5136140000000  0.5700980000000 1.0
C      1  0.4812910000000  0.5007200000000  0.5207550000000 1.0
C      1  0.5089000000000  0.5082870000000  0.5197470000000 1.0
C      1  0.4571980000000  0.5395890000000  0.4307610000000 1.0
C      1  0.5677910000000  0.4995770000000  0.4282570000000 1.0
C      1  0.4884590000000  0.5362100000000  0.4177450000000 1.0
C      1  0.5558580000000  0.4895910000000  0.5036840000000 1.0
C      1  0.4120070000000  0.5481780000000  0.5115040000000 1.0
C      1  0.4424650000000  0.4786770000000  0.4974550000000 1.0
C      1  0.4976360000000  0.5420730000000  0.5446100000000 1.0
C      1  0.4727320000000  0.5881550000000  0.5465870000000 1.0
C      1  0.4295820000000  0.4679460000000  0.5266390000000 1.0
C      1  0.4938630000000  0.4430650000000  0.4531580000000 1.0
C      1  0.4454490000000  0.4893630000000  0.4154540000000 1.0
C      1  0.4712250000000  0.4509880000000  0.4085620000000 1.0
C      1  0.4581360000000  0.5477150000000  0.5104650000000 1.0
C      1  0.5296650000000  0.5891960000000  0.4927850000000 1.0
C      1  0.4861000000000  0.4232680000000  0.4797830000000 1.0
C      1  0.5181940000000  0.5568850000000  0.5131770000000 1.0
C      1  0.4530650000000  0.5572400000000  0.4599600000000 1.0
C      1  0.3981440000000  0.5201180000000  0.4665070000000 1.0
C      1  0.5438520000000  0.5543200000000  0.5316010000000 1.0
C      1  0.4917420000000  0.4056750000000  0.5152410000000 1.0
C      1  0.4687400000000  0.4635510000000  0.4820180000000 1.0
C      1  0.4466060000000  0.4613730000000  0.4185400000000 1.0
C      1  0.5771250000000  0.5651630000000  0.4739230000000 1.0
C      1  0.5284850000000  0.4320880000000  0.4366470000000 1.0
C      1  0.5441230000000  0.4629630000000  0.5408060000000 1.0
C      1  0.5346120000000  0.5535010000000  0.5987620000000 1.0
C      1  0.4323780000000  0.4455410000000  0.5520810000000 1.0
C      1  0.4815110000000  0.5096430000000  0.4465390000000 1.0
C      1  0.4513610000000  0.4351880000000  0.5788080000000 1.0
C      1  0.5256210000000  0.4825870000000  0.5118810000000 1.0
C      1  0.5396170000000  0.5280180000000  0.4098360000000 1.0
C      1  0.5446170000000  0.4176800000000  0.5074370000000 1.0
C      1  0.4193690000000  0.5045080000000  0.4235370000000 1.0
C      1  0.3726860000000  0.5106790000000  0.4613690000000 1.0
C      1  0.4747400000000  0.5220990000000  0.5532730000000 1.0
C      1  0.4662120000000  0.4187130000000  0.5149010000000 1.0
C      1  0.4606450000000  0.4441470000000  0.4580110000000 1.0
C      1  0.5436000000000  0.4934420000000  0.5456290000000 1.0
C      1  0.4658240000000  0.5001120000000  0.4974600000000 1.0
C      1  0.5216390000000  0.5180500000000  0.5464110000000 1.0
C      1  0.5022810000000  0.4495510000000  0.4229160000000 1.0
C      1  0.5601240000000  0.5797050000000  0.5474130000000 1.0
C      1  0.4466120000000  0.5244900000000  0.4591520000000 1.0
C      1  0.3481510000000  0.5015830000000  0.4564170000000 1.0
C      1  0.4824920000000  0.5622240000000  0.4662890000000 1.0
C      1  0.5093650000000  0.4307870000000  0.5582530000000 1.0
C      1  0.5017460000000  0.5655550000000  0.4210630000000 1.0
C      1  0.5672840000000  0.4319450000000  0.4653060000000 1.0
C      1  0.4828110000000  0.4906480000000  0.4712990000000 1.0
C      1  0.4359610000000  0.5303170000000  0.4127790000000 1.0
C      1  0.4269650000000  0.4788180000000  0.4671370000000 1.0
C      1  0.5288910000000  0.4900140000000  0.5955920000000 1.0
C      1  0.5118890000000  0.4652370000000  0.4911580000000 1.0
C      1  0.5475980000000  0.5918350000000  0.5185960000000 1.0
C      1  0.4484800000000  0.5315450000000  0.5348200000000 1.0
C      1  0.4648160000000  0.5285530000000  0.4852050000000 1.0
C      1  0.5387220000000  0.5655170000000  0.5695920000000 1.0
C      1  0.4048230000000  0.5417470000000  0.4819020000000 1.0
C      1  0.4223230000000  0.5059260000000  0.4548980000000 1.0
C      1  0.4456490000000  0.5508240000000  0.6071910000000 1.0
C      1  0.5041670000000  0.5978350000000  0.4968010000000 1.0
C      1  0.5047050000000  0.4009860000000  0.4883760000000 1.0
C      1  0.4411360000000  0.4840920000000  0.5542880000000 1.0
C      1  0.5861610000000  0.5161280000000  0.5249530000000 1.0
C      1  0.5365500000000  0.4601640000000  0.5875330000000 1.0
C      1  0.4890200000000  0.4483320000000  0.5007550000000 1.0
C      1  0.4609030000000  0.5407250000000  0.5858060000000 1.0
C      1  0.5715690000000  0.4775640000000  0.6247860000000 1.0
C      1  0.5046140000000  0.4728370000000  0.5372110000000 1.0
C      1  0.5285040000000  0.5399980000000  0.4563910000000 1.0
C      1  0.5781860000000  0.4978730000000  0.4552890000000 1.0
C      1  0.5973570000000  0.4950860000000  0.5008420000000 1.0
C      1  0.4709780000000  0.4713090000000  0.5657430000000 1.0
END
