TITL C-2778432-5617-1251 0.00119562933636344 125000 -831.512457547664 0 0 144 (C1) n - 1
REM
REM in /home/nfs/bkarasulu/CARBON/AIRSS/Generating-Clusters/REBO/Only-C1/SD-CG/HFTN-CG
REM
REM
REM
REM
REM
REM ./C.cell (11c1c37f851c82e70ff6c80c92926a4b)
REM
REM compiler GCC version 9.2.1 20190827 (Red Hat 9.2.1-1)
REM options -cpp -mtune=generic -march=x86-64 -g -O0 -fpre-include=/usr/include/finclude/math-vector-fortran.h
REM seed -1011102516 1012569717 -1880227836 907997127 1113792343 1274168301 1697808734 -264809513 1837985705 -810565216 -783567218 -224738490 1959959044 298411979 -1319231945 -1417921394 -31776801 -1153581128 -1571890987 180263948 1072919109 759922873 474988334 -1403000780 612747471 1770762184 868112434 -78993364 200383161 1126629919 -1042339565 1214869983 2123461598
REM
CELL 1.54180   50.00000   50.00000   50.00000   90.00000   90.00000   90.00000
LATT -1
SFAC C  
C      1  0.5512500000000  0.4680980000000  0.4992820000000 1.0
C      1  0.4704320000000  0.5184700000000  0.5623920000000 1.0
C      1  0.4789300000000  0.5123900000000  0.6246200000000 1.0
C      1  0.5289160000000  0.5646620000000  0.5794230000000 1.0
C      1  0.4859460000000  0.5172740000000  0.4389810000000 1.0
C      1  0.5373430000000  0.5326120000000  0.5198160000000 1.0
C      1  0.5861590000000  0.5319960000000  0.5683490000000 1.0
C      1  0.5495240000000  0.4414610000000  0.5883200000000 1.0
C      1  0.4248520000000  0.5586970000000  0.4894500000000 1.0
C      1  0.4585120000000  0.5351440000000  0.5962710000000 1.0
C      1  0.4493400000000  0.5609170000000  0.4293390000000 1.0
C      1  0.5038580000000  0.4844480000000  0.4776000000000 1.0
C      1  0.5558740000000  0.4369440000000  0.5027520000000 1.0
C      1  0.4771530000000  0.4565580000000  0.4878330000000 1.0
C      1  0.5921110000000  0.5198070000000  0.4583380000000 1.0
C      1  0.5146550000000  0.5492730000000  0.4141410000000 1.0
C      1  0.4983660000000  0.4867350000000  0.5620430000000 1.0
C      1  0.4963240000000  0.5286000000000  0.6074160000000 1.0
C      1  0.4953770000000  0.5051660000000  0.5189830000000 1.0
C      1  0.5425780000000  0.4231840000000  0.5282290000000 1.0
C      1  0.4005440000000  0.4730410000000  0.4439950000000 1.0
C      1  0.4828400000000  0.5596220000000  0.4573560000000 1.0
C      1  0.4731030000000  0.4101630000000  0.5085090000000 1.0
C      1  0.5185650000000  0.4420930000000  0.5162780000000 1.0
C      1  0.4831080000000  0.4991160000000  0.3855020000000 1.0
C      1  0.4339820000000  0.4830040000000  0.5683410000000 1.0
C      1  0.4834720000000  0.5494780000000  0.5838410000000 1.0
C      1  0.4479070000000  0.5819770000000  0.4809890000000 1.0
C      1  0.4592580000000  0.4998560000000  0.6150060000000 1.0
C      1  0.4953410000000  0.4550710000000  0.5678470000000 1.0
C      1  0.5352910000000  0.5750330000000  0.4157500000000 1.0
C      1  0.5159090000000  0.4041030000000  0.5279720000000 1.0
C      1  0.4612980000000  0.5380470000000  0.4155780000000 1.0
C      1  0.5743360000000  0.5433000000000  0.4621850000000 1.0
C      1  0.4551960000000  0.4527360000000  0.5083240000000 1.0
C      1  0.5469400000000  0.5131920000000  0.4431920000000 1.0
C      1  0.5151520000000  0.5053300000000  0.4078230000000 1.0
C      1  0.6112700000000  0.5098410000000  0.5130060000000 1.0
C      1  0.4507280000000  0.5037610000000  0.4611130000000 1.0
C      1  0.5012540000000  0.5502510000000  0.5548400000000 1.0
C      1  0.4291980000000  0.4571890000000  0.4541030000000 1.0
C      1  0.5516730000000  0.5631880000000  0.4599920000000 1.0
C      1  0.5004430000000  0.4271070000000  0.5862760000000 1.0
C      1  0.5831210000000  0.5846700000000  0.4480990000000 1.0
C      1  0.4712390000000  0.4822310000000  0.5455590000000 1.0
C      1  0.5444210000000  0.4309510000000  0.4564890000000 1.0
C      1  0.5027480000000  0.4704090000000  0.4225750000000 1.0
C      1  0.5943590000000  0.5577150000000  0.4933380000000 1.0
C      1  0.5268450000000  0.4738530000000  0.4000110000000 1.0
C      1  0.4249870000000  0.5289540000000  0.5465490000000 1.0
C      1  0.4220510000000  0.4519810000000  0.5327940000000 1.0
C      1  0.5042480000000  0.4586470000000  0.4589150000000 1.0
C      1  0.5461490000000  0.5171280000000  0.5847240000000 1.0
C      1  0.4825950000000  0.5571940000000  0.5065550000000 1.0
C      1  0.4188090000000  0.5305670000000  0.4712400000000 1.0
C      1  0.4453650000000  0.5732940000000  0.5247260000000 1.0
C      1  0.5402950000000  0.4208790000000  0.4825520000000 1.0
C      1  0.4252570000000  0.4559110000000  0.4934900000000 1.0
C      1  0.4784080000000  0.4931620000000  0.4176650000000 1.0
C      1  0.4501950000000  0.5038980000000  0.5844060000000 1.0
C      1  0.4485450000000  0.4835730000000  0.4184600000000 1.0
C      1  0.5079530000000  0.5476640000000  0.5231430000000 1.0
C      1  0.5239910000000  0.4814380000000  0.5043230000000 1.0
C      1  0.4587860000000  0.5901900000000  0.4287000000000 1.0
C      1  0.4763000000000  0.5429010000000  0.4804230000000 1.0
C      1  0.4676230000000  0.4342870000000  0.4325630000000 1.0
C      1  0.4497120000000  0.5284770000000  0.4813750000000 1.0
C      1  0.5969520000000  0.5752450000000  0.4704280000000 1.0
C      1  0.5236700000000  0.5323170000000  0.4884620000000 1.0
C      1  0.4248780000000  0.4944400000000  0.4407490000000 1.0
C      1  0.4185260000000  0.5384450000000  0.5160340000000 1.0
C      1  0.4087150000000  0.5063340000000  0.5181040000000 1.0
C      1  0.4794310000000  0.4541490000000  0.4089940000000 1.0
C      1  0.6111180000000  0.5381560000000  0.5061590000000 1.0
C      1  0.5214550000000  0.5333850000000  0.5872620000000 1.0
C      1  0.5350900000000  0.5447530000000  0.5515650000000 1.0
C      1  0.5714340000000  0.5312780000000  0.5969610000000 1.0
C      1  0.5149350000000  0.4221030000000  0.5568540000000 1.0
C      1  0.4561570000000  0.5667470000000  0.5510450000000 1.0
C      1  0.4615430000000  0.4576470000000  0.5339210000000 1.0
C      1  0.4907670000000  0.5284800000000  0.4011570000000 1.0
C      1  0.4359760000000  0.5569210000000  0.4570320000000 1.0
C      1  0.4729420000000  0.4962230000000  0.4857760000000 1.0
C      1  0.5098260000000  0.4465510000000  0.4898550000000 1.0
C      1  0.5337790000000  0.5637320000000  0.4872530000000 1.0
C      1  0.4185610000000  0.4991080000000  0.5501480000000 1.0
C      1  0.5653520000000  0.5049490000000  0.4683320000000 1.0
C      1  0.5406870000000  0.4589130000000  0.4275040000000 1.0
C      1  0.4851720000000  0.5801670000000  0.5519120000000 1.0
C      1  0.4576100000000  0.4256070000000  0.5559900000000 1.0
C      1  0.4526810000000  0.5417540000000  0.5126370000000 1.0
C      1  0.5598700000000  0.5528270000000  0.5731250000000 1.0
C      1  0.4872150000000  0.5935560000000  0.5217380000000 1.0
C      1  0.5845980000000  0.4515900000000  0.5136640000000 1.0
C      1  0.4698580000000  0.4402770000000  0.5824710000000 1.0
C      1  0.4482810000000  0.4224580000000  0.4586790000000 1.0
C      1  0.4916960000000  0.4113440000000  0.4855210000000 1.0
C      1  0.4927220000000  0.4263270000000  0.4599960000000 1.0
C      1  0.5785420000000  0.5102380000000  0.5521530000000 1.0
C      1  0.5106140000000  0.5765550000000  0.5052160000000 1.0
C      1  0.4073000000000  0.5054590000000  0.4856820000000 1.0
C      1  0.5398250000000  0.4449490000000  0.5614390000000 1.0
C      1  0.5891200000000  0.4997520000000  0.5289890000000 1.0
C      1  0.4434830000000  0.4551860000000  0.5691910000000 1.0
C      1  0.5249520000000  0.4975610000000  0.5342130000000 1.0
C      1  0.4475410000000  0.5155700000000  0.4290770000000 1.0
C      1  0.5947010000000  0.4688570000000  0.4925200000000 1.0
C      1  0.5255440000000  0.5080360000000  0.4680530000000 1.0
C      1  0.6139780000000  0.4910960000000  0.4906390000000 1.0
C      1  0.4985750000000  0.5143800000000  0.5738750000000 1.0
C      1  0.6151310000000  0.5050920000000  0.4654270000000 1.0
C      1  0.4744080000000  0.4696930000000  0.3856360000000 1.0
C      1  0.5680980000000  0.4916940000000  0.5115100000000 1.0
C      1  0.4338930000000  0.4261910000000  0.4850150000000 1.0
C      1  0.5292350000000  0.4732030000000  0.5573080000000 1.0
C      1  0.5182570000000  0.4361410000000  0.4394060000000 1.0
C      1  0.4957380000000  0.5210670000000  0.4912120000000 1.0
C      1  0.4354690000000  0.4274010000000  0.5335910000000 1.0
C      1  0.5665160000000  0.4422800000000  0.5404220000000 1.0
C      1  0.5589980000000  0.5175140000000  0.4981000000000 1.0
C      1  0.4116660000000  0.4780790000000  0.4747690000000 1.0
C      1  0.5693740000000  0.4747830000000  0.4727520000000 1.0
C      1  0.4675320000000  0.5830590000000  0.4570470000000 1.0
C      1  0.4479850000000  0.5407640000000  0.5582470000000 1.0
C      1  0.5103190000000  0.4975810000000  0.4409030000000 1.0
C      1  0.5636470000000  0.5493350000000  0.4951500000000 1.0
C      1  0.4437440000000  0.4549280000000  0.4265530000000 1.0
C      1  0.5419790000000  0.5384110000000  0.4301440000000 1.0
C      1  0.4609430000000  0.5918900000000  0.5081280000000 1.0
C      1  0.5494220000000  0.5039370000000  0.5574460000000 1.0
C      1  0.4446040000000  0.4143080000000  0.5088750000000 1.0
C      1  0.5444870000000  0.4923330000000  0.4213950000000 1.0
C      1  0.5184200000000  0.4075320000000  0.4957080000000 1.0
C      1  0.4938690000000  0.5445390000000  0.4375520000000 1.0
C      1  0.5547290000000  0.5803550000000  0.4357390000000 1.0
C      1  0.4284630000000  0.4810600000000  0.5161330000000 1.0
C      1  0.4923930000000  0.4728920000000  0.5136370000000 1.0
C      1  0.5084700000000  0.5838530000000  0.5751470000000 1.0
C      1  0.5009240000000  0.4536210000000  0.5372680000000 1.0
C      1  0.4682390000000  0.5191120000000  0.5314540000000 1.0
C      1  0.4857430000000  0.4151510000000  0.5397250000000 1.0
C      1  0.5630970000000  0.4546160000000  0.4511980000000 1.0
C      1  0.4577120000000  0.4926060000000  0.5153270000000 1.0
C      1  0.4625080000000  0.4526450000000  0.4616310000000 1.0
END
