TITL C-2778423-5760-1173 0.0060768050791698 125000 -572.51255336111 0 0 100 (C1) n - 1
REM
REM in /home/nfs/bkarasulu/CARBON/AIRSS/Generating-Clusters/REBO/Only-C1/SD-CG/HFTN-CG
REM
REM
REM
REM
REM
REM ./C.cell (11c1c37f851c82e70ff6c80c92926a4b)
REM
REM compiler GCC version 9.2.1 20190827 (Red Hat 9.2.1-1)
REM options -cpp -mtune=generic -march=x86-64 -g -O0 -fpre-include=/usr/include/finclude/math-vector-fortran.h
REM seed 424555559 1600847513 -1743261645 1622062937 839255225 200245572 -1984469137 -52500870 -1666942043 -640308208 -2056955574 -2128103821 690959613 -616797809 468352768 640230877 1801866893 -561960235 -1257868541 -910022618 2058080518 462909983 1134877791 1633577767 -502640920 -920064389 354390712 1662347709 1474399091 -2078192780 2090326260 -1841470731 -1673884273
REM
CELL 1.54180   50.00000   50.00000   50.00000   90.00000   90.00000   90.00000
LATT -1
SFAC C  
C      1  0.4334410000000  0.5606690000000  0.5403790000000 1.0
C      1  0.4793650000000  0.5374250000000  0.4826250000000 1.0
C      1  0.4700910000000  0.5151050000000  0.4623560000000 1.0
C      1  0.5342000000000  0.5085380000000  0.5437930000000 1.0
C      1  0.5002180000000  0.5792120000000  0.5228500000000 1.0
C      1  0.5461980000000  0.5445050000000  0.5552950000000 1.0
C      1  0.4350160000000  0.5050230000000  0.4425200000000 1.0
C      1  0.5325130000000  0.5139290000000  0.5114940000000 1.0
C      1  0.4977260000000  0.4952790000000  0.5052810000000 1.0
C      1  0.5361510000000  0.4898650000000  0.4960360000000 1.0
C      1  0.5495930000000  0.4798300000000  0.3860870000000 1.0
C      1  0.5407000000000  0.4617520000000  0.4137880000000 1.0
C      1  0.4173090000000  0.5163870000000  0.5224240000000 1.0
C      1  0.4647060000000  0.4616380000000  0.5671200000000 1.0
C      1  0.4712030000000  0.4604770000000  0.4382620000000 1.0
C      1  0.5374100000000  0.4380890000000  0.5530330000000 1.0
C      1  0.4364680000000  0.4734820000000  0.5270210000000 1.0
C      1  0.5106060000000  0.4191940000000  0.5179660000000 1.0
C      1  0.5106190000000  0.4683430000000  0.4928910000000 1.0
C      1  0.5725450000000  0.4753070000000  0.5430670000000 1.0
C      1  0.5818150000000  0.5187990000000  0.5174070000000 1.0
C      1  0.4699310000000  0.4369530000000  0.5452810000000 1.0
C      1  0.4750620000000  0.4557610000000  0.4991040000000 1.0
C      1  0.5379290000000  0.5529900000000  0.4424270000000 1.0
C      1  0.5031010000000  0.5685070000000  0.4597570000000 1.0
C      1  0.5592190000000  0.5117730000000  0.4335650000000 1.0
C      1  0.5646400000000  0.5130780000000  0.4611440000000 1.0
C      1  0.5101650000000  0.5335110000000  0.5217620000000 1.0
C      1  0.4593660000000  0.4470790000000  0.4636660000000 1.0
C      1  0.4953850000000  0.5731200000000  0.5541420000000 1.0
C      1  0.5399160000000  0.4433690000000  0.4355910000000 1.0
C      1  0.4458640000000  0.5072330000000  0.5592320000000 1.0
C      1  0.4418360000000  0.4360790000000  0.4900160000000 1.0
C      1  0.5242330000000  0.4377180000000  0.4929150000000 1.0
C      1  0.5622710000000  0.4471480000000  0.4535510000000 1.0
C      1  0.5328610000000  0.4787250000000  0.5787750000000 1.0
C      1  0.5486830000000  0.4584950000000  0.4871440000000 1.0
C      1  0.4841400000000  0.4982730000000  0.5913710000000 1.0
C      1  0.5587800000000  0.4900050000000  0.5693300000000 1.0
C      1  0.4509020000000  0.4794970000000  0.4988130000000 1.0
C      1  0.4519300000000  0.4462020000000  0.5206590000000 1.0
C      1  0.5492150000000  0.5414000000000  0.5222500000000 1.0
C      1  0.5219330000000  0.4884910000000  0.4040330000000 1.0
C      1  0.4853540000000  0.5622930000000  0.5055900000000 1.0
C      1  0.5207380000000  0.4531100000000  0.5706880000000 1.0
C      1  0.4604350000000  0.4879110000000  0.5741030000000 1.0
C      1  0.4666810000000  0.5669980000000  0.5406490000000 1.0
C      1  0.5342890000000  0.5664370000000  0.5064500000000 1.0
C      1  0.5496900000000  0.4558610000000  0.5301620000000 1.0
C      1  0.4828520000000  0.4073880000000  0.4763160000000 1.0
C      1  0.4330380000000  0.5379360000000  0.5174770000000 1.0
C      1  0.4290310000000  0.4939300000000  0.4804090000000 1.0
C      1  0.4677020000000  0.4166020000000  0.4974370000000 1.0
C      1  0.4909530000000  0.5571770000000  0.4375540000000 1.0
C      1  0.4621880000000  0.5375350000000  0.5103230000000 1.0
C      1  0.4845050000000  0.5320120000000  0.5333940000000 1.0
C      1  0.4870550000000  0.5144140000000  0.5606960000000 1.0
C      1  0.4716320000000  0.4498870000000  0.4142430000000 1.0
C      1  0.5191710000000  0.5211800000000  0.4094010000000 1.0
C      1  0.5240350000000  0.5241290000000  0.5712870000000 1.0
C      1  0.5649320000000  0.5045730000000  0.5328330000000 1.0
C      1  0.4300860000000  0.4612630000000  0.4701690000000 1.0
C      1  0.5247290000000  0.4143990000000  0.4443770000000 1.0
C      1  0.4850670000000  0.5374270000000  0.5858300000000 1.0
C      1  0.5139000000000  0.4112010000000  0.4741440000000 1.0
C      1  0.4480450000000  0.5747020000000  0.5128320000000 1.0
C      1  0.5599080000000  0.4898410000000  0.4165020000000 1.0
C      1  0.5033980000000  0.4969310000000  0.5363500000000 1.0
C      1  0.4250810000000  0.4796090000000  0.4434100000000 1.0
C      1  0.4526100000000  0.5702920000000  0.4845490000000 1.0
C      1  0.5415480000000  0.5323770000000  0.4253210000000 1.0
C      1  0.4278160000000  0.4964460000000  0.5397580000000 1.0
C      1  0.5717670000000  0.5398210000000  0.4994750000000 1.0
C      1  0.4934540000000  0.4490260000000  0.5668480000000 1.0
C      1  0.4311340000000  0.5220480000000  0.4680320000000 1.0
C      1  0.5325260000000  0.5593840000000  0.4743290000000 1.0
C      1  0.5098970000000  0.4426060000000  0.4498610000000 1.0
C      1  0.5263250000000  0.5678080000000  0.5405130000000 1.0
C      1  0.5702600000000  0.4728720000000  0.5090560000000 1.0
C      1  0.4551400000000  0.5360580000000  0.5507310000000 1.0
C      1  0.4762470000000  0.4888680000000  0.4800270000000 1.0
C      1  0.5210380000000  0.4713240000000  0.5350940000000 1.0
C      1  0.4446800000000  0.5487990000000  0.4658210000000 1.0
C      1  0.5593350000000  0.5382160000000  0.4741690000000 1.0
C      1  0.4819420000000  0.4875450000000  0.4462900000000 1.0
C      1  0.4828430000000  0.5768670000000  0.4774990000000 1.0
C      1  0.4606750000000  0.5179920000000  0.4294550000000 1.0
C      1  0.4974090000000  0.4991600000000  0.4240590000000 1.0
C      1  0.5149980000000  0.4999370000000  0.5852790000000 1.0
C      1  0.4621510000000  0.5483370000000  0.4418730000000 1.0
C      1  0.5643110000000  0.4887030000000  0.4792520000000 1.0
C      1  0.5023860000000  0.5184160000000  0.4856850000000 1.0
C      1  0.4761400000000  0.5237760000000  0.6110410000000 1.0
C      1  0.5628990000000  0.5184960000000  0.5700570000000 1.0
C      1  0.4921850000000  0.4514120000000  0.4709990000000 1.0
C      1  0.5247270000000  0.5962960000000  0.5125370000000 1.0
C      1  0.5278270000000  0.3991300000000  0.5020920000000 1.0
C      1  0.4938930000000  0.5625870000000  0.5821690000000 1.0
C      1  0.4895050000000  0.5317580000000  0.4180210000000 1.0
C      1  0.4825850000000  0.4206430000000  0.5212620000000 1.0
END
