TITL C-2778429-3646-464 0.00200225585860953 125000 -815.924810036186 0 0 139 (C1) n - 1
REM
REM in /home/nfs/bkarasulu/CARBON/AIRSS/Generating-Clusters/REBO/Only-C1/SD-CG/HFTN-CG
REM
REM
REM
REM
REM
REM ./C.cell (11c1c37f851c82e70ff6c80c92926a4b)
REM
REM compiler GCC version 9.2.1 20190827 (Red Hat 9.2.1-1)
REM options -cpp -mtune=generic -march=x86-64 -g -O0 -fpre-include=/usr/include/finclude/math-vector-fortran.h
REM seed 1035226438 -1332464539 1612697512 2039878898 1106349264 -1920945861 -358653289 446811390 -1930605967 -508006432 -1935473151 1595280800 -427314077 1018385450 307493421 -1493536572 -2111730861 -1168191331 297006871 -1617813764 182337411 500088553 -1357494703 -671671542 1548730485 -1089326663 -549845288 913443130 742489226 -416400847 -1130549850 471057881 -656055548
REM
CELL 1.54180   50.00000   50.00000   50.00000   90.00000   90.00000   90.00000
LATT -1
SFAC C  
C      1  0.5421280000000  0.4000390000000  0.5102320000000 1.0
C      1  0.4462870000000  0.4387980000000  0.5567070000000 1.0
C      1  0.4832310000000  0.5825520000000  0.4382530000000 1.0
C      1  0.4553930000000  0.4255980000000  0.5331190000000 1.0
C      1  0.4805420000000  0.4404360000000  0.4036810000000 1.0
C      1  0.5392890000000  0.4933060000000  0.4067870000000 1.0
C      1  0.5415920000000  0.5442290000000  0.4086900000000 1.0
C      1  0.4975260000000  0.4084110000000  0.4954320000000 1.0
C      1  0.4731140000000  0.5043570000000  0.4671620000000 1.0
C      1  0.4770480000000  0.5532610000000  0.6042900000000 1.0
C      1  0.4363680000000  0.5071470000000  0.5056090000000 1.0
C      1  0.5091110000000  0.5686850000000  0.5433880000000 1.0
C      1  0.4881440000000  0.4418890000000  0.5173980000000 1.0
C      1  0.4983130000000  0.5260980000000  0.5121930000000 1.0
C      1  0.4725770000000  0.4924970000000  0.4068920000000 1.0
C      1  0.5806600000000  0.4519990000000  0.4661030000000 1.0
C      1  0.5555600000000  0.5670380000000  0.5496640000000 1.0
C      1  0.4006650000000  0.5077440000000  0.5234950000000 1.0
C      1  0.4147320000000  0.5012270000000  0.4290240000000 1.0
C      1  0.4166170000000  0.4626830000000  0.4932810000000 1.0
C      1  0.5223140000000  0.4475020000000  0.5376710000000 1.0
C      1  0.5497430000000  0.4626950000000  0.5926950000000 1.0
C      1  0.4806030000000  0.4546970000000  0.5439650000000 1.0
C      1  0.5869610000000  0.4830960000000  0.4711460000000 1.0
C      1  0.4037670000000  0.4808260000000  0.5144370000000 1.0
C      1  0.4920000000000  0.4928480000000  0.4340120000000 1.0
C      1  0.4781670000000  0.4252400000000  0.4269330000000 1.0
C      1  0.4657750000000  0.4100250000000  0.4495090000000 1.0
C      1  0.5375590000000  0.5406370000000  0.4639870000000 1.0
C      1  0.4869360000000  0.5232730000000  0.4093990000000 1.0
C      1  0.5335040000000  0.4576060000000  0.5636000000000 1.0
C      1  0.5108750000000  0.4193120000000  0.5773140000000 1.0
C      1  0.4926400000000  0.4389990000000  0.4532000000000 1.0
C      1  0.5827000000000  0.4831400000000  0.5535360000000 1.0
C      1  0.5513970000000  0.5103180000000  0.4408730000000 1.0
C      1  0.4882000000000  0.4420950000000  0.5675370000000 1.0
C      1  0.5590280000000  0.4835740000000  0.4545730000000 1.0
C      1  0.4560560000000  0.5718390000000  0.4212180000000 1.0
C      1  0.4847180000000  0.5561910000000  0.5546250000000 1.0
C      1  0.4317070000000  0.5488500000000  0.5076180000000 1.0
C      1  0.5144960000000  0.4696550000000  0.4273390000000 1.0
C      1  0.5817840000000  0.4902320000000  0.5024520000000 1.0
C      1  0.5575620000000  0.5442200000000  0.4909880000000 1.0
C      1  0.4746780000000  0.4751220000000  0.4943200000000 1.0
C      1  0.4211730000000  0.4580430000000  0.5322410000000 1.0
C      1  0.5352370000000  0.4499100000000  0.4836330000000 1.0
C      1  0.5729140000000  0.4410290000000  0.5148500000000 1.0
C      1  0.4445440000000  0.4918770000000  0.4184220000000 1.0
C      1  0.4579000000000  0.5703060000000  0.5457140000000 1.0
C      1  0.5702060000000  0.4694900000000  0.5265400000000 1.0
C      1  0.5019400000000  0.5577490000000  0.4410470000000 1.0
C      1  0.4906820000000  0.6298590000000  0.4891940000000 1.0
C      1  0.5259020000000  0.4390850000000  0.5982230000000 1.0
C      1  0.6252530000000  0.5040240000000  0.5293760000000 1.0
C      1  0.4985340000000  0.5213050000000  0.4820390000000 1.0
C      1  0.4690610000000  0.4921560000000  0.6044480000000 1.0
C      1  0.5489770000000  0.4920460000000  0.5019550000000 1.0
C      1  0.4097130000000  0.4962080000000  0.4576790000000 1.0
C      1  0.5065050000000  0.5680440000000  0.4941870000000 1.0
C      1  0.5446920000000  0.5743000000000  0.4840920000000 1.0
C      1  0.5422880000000  0.5517920000000  0.5733230000000 1.0
C      1  0.4542330000000  0.5742500000000  0.5147380000000 1.0
C      1  0.4794930000000  0.5182750000000  0.5677090000000 1.0
C      1  0.4079310000000  0.5110900000000  0.5512200000000 1.0
C      1  0.4859070000000  0.4111100000000  0.5272990000000 1.0
C      1  0.5204040000000  0.5163770000000  0.4492670000000 1.0
C      1  0.4645700000000  0.5426710000000  0.4648080000000 1.0
C      1  0.5415960000000  0.4125980000000  0.5357280000000 1.0
C      1  0.5321040000000  0.5797620000000  0.4587830000000 1.0
C      1  0.5578800000000  0.4999590000000  0.5927290000000 1.0
C      1  0.3985060000000  0.5192230000000  0.4736610000000 1.0
C      1  0.4784180000000  0.4231960000000  0.4773680000000 1.0
C      1  0.5222800000000  0.5413880000000  0.5889150000000 1.0
C      1  0.5546050000000  0.4426960000000  0.4494030000000 1.0
C      1  0.4040750000000  0.5293680000000  0.5035080000000 1.0
C      1  0.6009860000000  0.4942330000000  0.5284780000000 1.0
C      1  0.5342980000000  0.5069940000000  0.5384730000000 1.0
C      1  0.5609930000000  0.5329580000000  0.5529790000000 1.0
C      1  0.5170670000000  0.4507900000000  0.5063820000000 1.0
C      1  0.5119290000000  0.4183130000000  0.5458530000000 1.0
C      1  0.4357770000000  0.5504240000000  0.5405450000000 1.0
C      1  0.5137180000000  0.5045140000000  0.3990530000000 1.0
C      1  0.5021480000000  0.4776880000000  0.5065940000000 1.0
C      1  0.4852280000000  0.5017130000000  0.5462910000000 1.0
C      1  0.5697730000000  0.5067700000000  0.5678900000000 1.0
C      1  0.4265240000000  0.5706270000000  0.4641730000000 1.0
C      1  0.5080770000000  0.5479040000000  0.4712010000000 1.0
C      1  0.4380680000000  0.5217330000000  0.4746580000000 1.0
C      1  0.5219130000000  0.4499070000000  0.4526910000000 1.0
C      1  0.4674550000000  0.4797720000000  0.5410370000000 1.0
C      1  0.4581570000000  0.5065300000000  0.5826550000000 1.0
C      1  0.4909160000000  0.4657010000000  0.4052060000000 1.0
C      1  0.5155990000000  0.5369840000000  0.3988640000000 1.0
C      1  0.4324900000000  0.5284290000000  0.4216530000000 1.0
C      1  0.4944290000000  0.4801830000000  0.6018750000000 1.0
C      1  0.5253610000000  0.4062880000000  0.4878110000000 1.0
C      1  0.5187590000000  0.5492430000000  0.5185720000000 1.0
C      1  0.5386630000000  0.4759970000000  0.5286220000000 1.0
C      1  0.4491550000000  0.5109200000000  0.4462420000000 1.0
C      1  0.5615810000000  0.4321370000000  0.5407250000000 1.0
C      1  0.4920660000000  0.5435640000000  0.5825670000000 1.0
C      1  0.5353800000000  0.5813000000000  0.5355170000000 1.0
C      1  0.4441830000000  0.4809130000000  0.5246410000000 1.0
C      1  0.5976390000000  0.5138320000000  0.4746640000000 1.0
C      1  0.5671710000000  0.4558540000000  0.5639950000000 1.0
C      1  0.4369140000000  0.4397710000000  0.5081740000000 1.0
C      1  0.4875790000000  0.4698660000000  0.4570010000000 1.0
C      1  0.4269540000000  0.4750580000000  0.4699530000000 1.0
C      1  0.5070600000000  0.5006280000000  0.5252360000000 1.0
C      1  0.5809100000000  0.5352090000000  0.4705210000000 1.0
C      1  0.5061200000000  0.5928560000000  0.4591900000000 1.0
C      1  0.4441730000000  0.5188180000000  0.5366430000000 1.0
C      1  0.4921840000000  0.6034870000000  0.4828700000000 1.0
C      1  0.4727900000000  0.5363710000000  0.5309590000000 1.0
C      1  0.5321560000000  0.5154100000000  0.6009100000000 1.0
C      1  0.4365920000000  0.4977990000000  0.5624200000000 1.0
C      1  0.5474560000000  0.5336410000000  0.5217010000000 1.0
C      1  0.4974130000000  0.4514060000000  0.5957870000000 1.0
C      1  0.4559520000000  0.5705610000000  0.4539800000000 1.0
C      1  0.4662930000000  0.5051460000000  0.4983290000000 1.0
C      1  0.5107480000000  0.4919660000000  0.4690080000000 1.0
C      1  0.4878550000000  0.5271480000000  0.4436510000000 1.0
C      1  0.4413750000000  0.5521670000000  0.4100710000000 1.0
C      1  0.4770230000000  0.5818730000000  0.4991740000000 1.0
C      1  0.5459840000000  0.5593920000000  0.4366920000000 1.0
C      1  0.5471330000000  0.4684330000000  0.4280350000000 1.0
C      1  0.5279000000000  0.5080320000000  0.5679870000000 1.0
C      1  0.4549770000000  0.4698560000000  0.4669150000000 1.0
C      1  0.5375360000000  0.4801790000000  0.4765090000000 1.0
C      1  0.4158930000000  0.5464420000000  0.4698860000000 1.0
C      1  0.5217490000000  0.4808540000000  0.5841510000000 1.0
C      1  0.5322290000000  0.5857600000000  0.5077500000000 1.0
C      1  0.5637290000000  0.4395960000000  0.4882220000000 1.0
C      1  0.4352020000000  0.4663530000000  0.5605760000000 1.0
C      1  0.5708010000000  0.5369260000000  0.4430860000000 1.0
C      1  0.4648790000000  0.4440300000000  0.4957280000000 1.0
C      1  0.4633120000000  0.5391720000000  0.4987000000000 1.0
C      1  0.5568430000000  0.5186930000000  0.4102300000000 1.0
C      1  0.5391930000000  0.4157200000000  0.4636020000000 1.0
END
