TITL C-2778436-5916-1414 -0.00147198071194733 125000 -816.836652591149 0 0 141 (C1) n - 1
REM
REM in /home/nfs/bkarasulu/CARBON/AIRSS/Generating-Clusters/REBO/Only-C1/SD-CG/HFTN-CG
REM
REM
REM
REM
REM
REM ./C.cell (11c1c37f851c82e70ff6c80c92926a4b)
REM
REM compiler GCC version 9.2.1 20190827 (Red Hat 9.2.1-1)
REM options -cpp -mtune=generic -march=x86-64 -g -O0 -fpre-include=/usr/include/finclude/math-vector-fortran.h
REM seed -1136317962 -1741517705 -1303196937 -1294322054 1723844480 1203951300 387227225 -858638531 578902101 -571177164 -1006149438 1573037235 -1566511956 -1164293804 -969782380 -506537583 -291236979 162423175 -544854131 276028580 444633340 -1484949343 -178897055 -420095238 -256391964 -444111250 963873200 322521673 2039432602 -1111278709 -1844375176 -444938906 2103671917
REM
CELL 1.54180   50.00000   50.00000   50.00000   90.00000   90.00000   90.00000
LATT -1
SFAC C  
C      1  0.4484260000000  0.5759390000000  0.5590770000000 1.0
C      1  0.5048780000000  0.5140550000000  0.4604550000000 1.0
C      1  0.4935560000000  0.4019640000000  0.4839170000000 1.0
C      1  0.5927370000000  0.4698810000000  0.5291270000000 1.0
C      1  0.6024190000000  0.4622390000000  0.5079200000000 1.0
C      1  0.4663990000000  0.5371590000000  0.4223570000000 1.0
C      1  0.5696230000000  0.4815720000000  0.5504070000000 1.0
C      1  0.4907670000000  0.4516000000000  0.4477010000000 1.0
C      1  0.5155960000000  0.4916130000000  0.5997230000000 1.0
C      1  0.3911800000000  0.5073330000000  0.4981190000000 1.0
C      1  0.5760230000000  0.4617920000000  0.4272910000000 1.0
C      1  0.4612630000000  0.4479740000000  0.5049030000000 1.0
C      1  0.6055120000000  0.5350040000000  0.5009010000000 1.0
C      1  0.5316020000000  0.5275560000000  0.4575990000000 1.0
C      1  0.4018940000000  0.4902630000000  0.4641370000000 1.0
C      1  0.5712400000000  0.5362970000000  0.4504060000000 1.0
C      1  0.5063660000000  0.4321010000000  0.5644560000000 1.0
C      1  0.4716800000000  0.5272000000000  0.5579480000000 1.0
C      1  0.5763860000000  0.4479300000000  0.4508890000000 1.0
C      1  0.4948940000000  0.4706070000000  0.4213270000000 1.0
C      1  0.5482180000000  0.5170850000000  0.4815870000000 1.0
C      1  0.4318770000000  0.5033310000000  0.4745330000000 1.0
C      1  0.4725510000000  0.5300090000000  0.4980210000000 1.0
C      1  0.5657840000000  0.5181950000000  0.4219480000000 1.0
C      1  0.4803850000000  0.5041350000000  0.5425000000000 1.0
C      1  0.4603780000000  0.4510720000000  0.5368830000000 1.0
C      1  0.4776750000000  0.5260130000000  0.5892320000000 1.0
C      1  0.4266620000000  0.4352050000000  0.4688210000000 1.0
C      1  0.4685340000000  0.4309890000000  0.5541440000000 1.0
C      1  0.4913000000000  0.5238110000000  0.4138980000000 1.0
C      1  0.5095190000000  0.4635140000000  0.5403340000000 1.0
C      1  0.5485490000000  0.5736370000000  0.5497850000000 1.0
C      1  0.4966190000000  0.5855420000000  0.5457410000000 1.0
C      1  0.4837110000000  0.6135060000000  0.4915350000000 1.0
C      1  0.5358200000000  0.4769880000000  0.5852220000000 1.0
C      1  0.5126370000000  0.5429150000000  0.4124780000000 1.0
C      1  0.4446590000000  0.4795060000000  0.5844220000000 1.0
C      1  0.4450950000000  0.5398420000000  0.5010240000000 1.0
C      1  0.4782010000000  0.5017640000000  0.5087580000000 1.0
C      1  0.5471280000000  0.4418680000000  0.4673330000000 1.0
C      1  0.5192060000000  0.5800330000000  0.4937590000000 1.0
C      1  0.4167640000000  0.5506330000000  0.5522940000000 1.0
C      1  0.5923790000000  0.4903540000000  0.4813830000000 1.0
C      1  0.5251250000000  0.4053080000000  0.5551180000000 1.0
C      1  0.4279500000000  0.5829280000000  0.5126090000000 1.0
C      1  0.5201420000000  0.5436980000000  0.5103240000000 1.0
C      1  0.4208090000000  0.5771580000000  0.5395340000000 1.0
C      1  0.5485260000000  0.5616800000000  0.4464300000000 1.0
C      1  0.5666250000000  0.5594550000000  0.4741660000000 1.0
C      1  0.5969660000000  0.5096810000000  0.5061520000000 1.0
C      1  0.5680870000000  0.4592520000000  0.4877610000000 1.0
C      1  0.5163430000000  0.5832060000000  0.5711360000000 1.0
C      1  0.4872030000000  0.4540540000000  0.4873540000000 1.0
C      1  0.4381680000000  0.4101200000000  0.4879490000000 1.0
C      1  0.5186120000000  0.4572760000000  0.4058300000000 1.0
C      1  0.5616750000000  0.4915150000000  0.4943030000000 1.0
C      1  0.5288350000000  0.4563340000000  0.5677450000000 1.0
C      1  0.5392520000000  0.4741320000000  0.5107740000000 1.0
C      1  0.4663480000000  0.5993660000000  0.5442440000000 1.0
C      1  0.5621230000000  0.4256480000000  0.4925980000000 1.0
C      1  0.4126610000000  0.4602070000000  0.4568240000000 1.0
C      1  0.4675480000000  0.4573700000000  0.4134130000000 1.0
C      1  0.5068020000000  0.4246880000000  0.4378220000000 1.0
C      1  0.4250160000000  0.5629340000000  0.4924080000000 1.0
C      1  0.4731680000000  0.4108800000000  0.4686150000000 1.0
C      1  0.5709600000000  0.4373540000000  0.5210130000000 1.0
C      1  0.5309010000000  0.4010110000000  0.5228590000000 1.0
C      1  0.4723180000000  0.4783690000000  0.5879940000000 1.0
C      1  0.4385340000000  0.4930050000000  0.4250240000000 1.0
C      1  0.4940910000000  0.5488520000000  0.5098230000000 1.0
C      1  0.4380280000000  0.4795080000000  0.4523430000000 1.0
C      1  0.4681090000000  0.4686980000000  0.4633010000000 1.0
C      1  0.4882170000000  0.5004500000000  0.5972630000000 1.0
C      1  0.4996890000000  0.3734410000000  0.4523580000000 1.0
C      1  0.5238020000000  0.4319710000000  0.4158110000000 1.0
C      1  0.5251550000000  0.5083060000000  0.5627700000000 1.0
C      1  0.5986580000000  0.4587090000000  0.4742920000000 1.0
C      1  0.4026000000000  0.4859490000000  0.5155120000000 1.0
C      1  0.5390320000000  0.5355790000000  0.4269940000000 1.0
C      1  0.4997510000000  0.4994860000000  0.4301040000000 1.0
C      1  0.5739770000000  0.5783290000000  0.5084350000000 1.0
C      1  0.5317190000000  0.4954890000000  0.4337860000000 1.0
C      1  0.5288550000000  0.4756740000000  0.4783030000000 1.0
C      1  0.5140740000000  0.3972010000000  0.5008700000000 1.0
C      1  0.4533180000000  0.4242910000000  0.4537880000000 1.0
C      1  0.4269930000000  0.4967660000000  0.5351770000000 1.0
C      1  0.5491320000000  0.5156850000000  0.5464020000000 1.0
C      1  0.4699360000000  0.4994400000000  0.4646770000000 1.0
C      1  0.5464890000000  0.5759480000000  0.4961940000000 1.0
C      1  0.4224480000000  0.5175610000000  0.5015640000000 1.0
C      1  0.5527120000000  0.4583380000000  0.5330770000000 1.0
C      1  0.4583490000000  0.4081020000000  0.5056510000000 1.0
C      1  0.5461420000000  0.5366710000000  0.5036360000000 1.0
C      1  0.4168840000000  0.4600440000000  0.5171220000000 1.0
C      1  0.5439070000000  0.5982600000000  0.5690260000000 1.0
C      1  0.4849010000000  0.5379070000000  0.4693500000000 1.0
C      1  0.5259900000000  0.5761040000000  0.5329790000000 1.0
C      1  0.4551840000000  0.5472750000000  0.5419810000000 1.0
C      1  0.5188650000000  0.5713750000000  0.4483500000000 1.0
C      1  0.4282720000000  0.5283410000000  0.5333550000000 1.0
C      1  0.5231470000000  0.5570160000000  0.5787200000000 1.0
C      1  0.3979100000000  0.5234390000000  0.4704480000000 1.0
C      1  0.5055580000000  0.5647650000000  0.4727950000000 1.0
C      1  0.4335450000000  0.4488320000000  0.4965600000000 1.0
C      1  0.5025520000000  0.4904180000000  0.5561540000000 1.0
C      1  0.4803110000000  0.4157800000000  0.5190250000000 1.0
C      1  0.4576610000000  0.5913090000000  0.5121530000000 1.0
C      1  0.4271160000000  0.4789470000000  0.5629380000000 1.0
C      1  0.5774860000000  0.5068000000000  0.5308670000000 1.0
C      1  0.4572520000000  0.5516610000000  0.5815810000000 1.0
C      1  0.4644500000000  0.5796170000000  0.4554900000000 1.0
C      1  0.4437740000000  0.5205780000000  0.4239770000000 1.0
C      1  0.4261060000000  0.5489480000000  0.5783350000000 1.0
C      1  0.5929160000000  0.5589780000000  0.4949660000000 1.0
C      1  0.5248470000000  0.5281570000000  0.5865790000000 1.0
C      1  0.5069570000000  0.6039300000000  0.5024990000000 1.0
C      1  0.5024250000000  0.5668360000000  0.4257950000000 1.0
C      1  0.4524320000000  0.5283260000000  0.4635870000000 1.0
C      1  0.5523770000000  0.5450290000000  0.5633740000000 1.0
C      1  0.4478220000000  0.4756070000000  0.4049770000000 1.0
C      1  0.5586150000000  0.4916260000000  0.5769880000000 1.0
C      1  0.5462690000000  0.4907110000000  0.4576370000000 1.0
C      1  0.5768300000000  0.5040060000000  0.4573260000000 1.0
C      1  0.5687120000000  0.5368080000000  0.5191070000000 1.0
C      1  0.4595470000000  0.4352820000000  0.4287610000000 1.0
C      1  0.5746850000000  0.4895660000000  0.4267430000000 1.0
C      1  0.5066780000000  0.4682610000000  0.5104050000000 1.0
C      1  0.4216340000000  0.5415640000000  0.4696410000000 1.0
C      1  0.5031570000000  0.3984320000000  0.4452700000000 1.0
C      1  0.5157580000000  0.4478420000000  0.4692570000000 1.0
C      1  0.5019750000000  0.4933910000000  0.4874120000000 1.0
C      1  0.5641180000000  0.3960340000000  0.4895140000000 1.0
C      1  0.4896410000000  0.4614160000000  0.5689140000000 1.0
C      1  0.5564230000000  0.5189040000000  0.5852350000000 1.0
C      1  0.4644040000000  0.5940330000000  0.4796620000000 1.0
C      1  0.4764120000000  0.5666330000000  0.5262800000000 1.0
C      1  0.5344020000000  0.4325130000000  0.5361530000000 1.0
C      1  0.4572200000000  0.4842200000000  0.5293580000000 1.0
C      1  0.5010190000000  0.4257100000000  0.5316360000000 1.0
C      1  0.4735640000000  0.5639780000000  0.4330130000000 1.0
C      1  0.4302280000000  0.4576920000000  0.5422870000000 1.0
END
