TITL C-2778427-5640-233 -0.207931984719682 125000 -749.820706737626 0 0 130 (C1) n - 1
REM
REM in /home/nfs/bkarasulu/CARBON/AIRSS/Generating-Clusters/REBO/Only-C1/SD-CG/HFTN-CG
REM
REM
REM
REM
REM
REM ./C.cell (11c1c37f851c82e70ff6c80c92926a4b)
REM
REM compiler GCC version 9.2.1 20190827 (Red Hat 9.2.1-1)
REM options -cpp -mtune=generic -march=x86-64 -g -O0 -fpre-include=/usr/include/finclude/math-vector-fortran.h
REM seed 672522499 -2114001062 1340510736 1471054866 299850150 1288305001 -343863127 1973331859 -1913448106 1804400146 1151786941 -1937251431 -1753631630 988218340 195840766 923666020 2029436312 1258430386 -757420743 279330285 -303677474 -622031348 -1851328074 -541423371 1341938021 1267308058 1155416369 865641182 1674200278 -1213414536 1436523238 -478895906 -1637965115
REM
CELL 1.54180   50.00000   50.00000   50.00000   90.00000   90.00000   90.00000
LATT -1
SFAC C  
C      1  0.4458810000000  0.5692330000000  0.5462470000000 1.0
C      1  0.4821070000000  0.4949090000000  0.4939190000000 1.0
C      1  0.4745000000000  0.4144800000000  0.4530880000000 1.0
C      1  0.5095040000000  0.4251980000000  0.5345650000000 1.0
C      1  0.5470390000000  0.4791080000000  0.3989280000000 1.0
C      1  0.4599830000000  0.4797020000000  0.4726560000000 1.0
C      1  0.4954060000000  0.4768430000000  0.4041090000000 1.0
C      1  0.5464770000000  0.5780390000000  0.5416170000000 1.0
C      1  0.4772540000000  0.4082490000000  0.4864400000000 1.0
C      1  0.4509290000000  0.5082170000000  0.5149940000000 1.0
C      1  0.4294170000000  0.5144260000000  0.4443060000000 1.0
C      1  0.5197930000000  0.4951400000000  0.5312970000000 1.0
C      1  0.4833770000000  0.6010210000000  0.5089960000000 1.0
C      1  0.5442350000000  0.5355610000000  0.5638920000000 1.0
C      1  0.4446190000000  0.4814880000000  0.4998880000000 1.0
C      1  0.4785750000000  0.4770260000000  0.4265130000000 1.0
C      1  0.5012990000000  0.6004660000000  0.5317880000000 1.0
C      1  0.5289070000000  0.4074170000000  0.5046110000000 1.0
C      1  0.4792180000000  0.5661690000000  0.5278400000000 1.0
C      1  0.4727540000000  0.5694690000000  0.4717330000000 1.0
C      1  0.5857850000000  0.4561000000000  0.5174490000000 1.0
C      1  0.5248390000000  0.5956890000000  0.4708450000000 1.0
C      1  0.5518260000000  0.5100860000000  0.4908180000000 1.0
C      1  0.5213260000000  0.4994030000000  0.4999800000000 1.0
C      1  0.5116670000000  0.4981850000000  0.4336380000000 1.0
C      1  0.5090320000000  0.4378620000000  0.4840340000000 1.0
C      1  0.5557380000000  0.4871310000000  0.5158810000000 1.0
C      1  0.4852520000000  0.4268380000000  0.5141000000000 1.0
C      1  0.4996860000000  0.5943440000000  0.4863090000000 1.0
C      1  0.4731290000000  0.5271790000000  0.4630200000000 1.0
C      1  0.4429160000000  0.4766880000000  0.5813150000000 1.0
C      1  0.5186710000000  0.4659530000000  0.5434860000000 1.0
C      1  0.4518300000000  0.5260880000000  0.4895140000000 1.0
C      1  0.5955220000000  0.4725440000000  0.4957120000000 1.0
C      1  0.5388620000000  0.4320790000000  0.5234370000000 1.0
C      1  0.4411750000000  0.4607880000000  0.4515380000000 1.0
C      1  0.4734960000000  0.5731150000000  0.4378860000000 1.0
C      1  0.5812380000000  0.5070620000000  0.5237480000000 1.0
C      1  0.5516680000000  0.5510890000000  0.4395920000000 1.0
C      1  0.4672930000000  0.5271130000000  0.5354990000000 1.0
C      1  0.5255420000000  0.5063670000000  0.4609450000000 1.0
C      1  0.4934080000000  0.4638090000000  0.4579840000000 1.0
C      1  0.4125960000000  0.5013950000000  0.4707190000000 1.0
C      1  0.5089050000000  0.5632220000000  0.4875630000000 1.0
C      1  0.4149830000000  0.4826210000000  0.4919930000000 1.0
C      1  0.5123690000000  0.5248420000000  0.4160710000000 1.0
C      1  0.5421330000000  0.4497720000000  0.4518630000000 1.0
C      1  0.5412620000000  0.4439970000000  0.4853670000000 1.0
C      1  0.5065590000000  0.5127630000000  0.5834430000000 1.0
C      1  0.5072460000000  0.3985850000000  0.4964190000000 1.0
C      1  0.5353220000000  0.5388400000000  0.4670440000000 1.0
C      1  0.5412880000000  0.4635590000000  0.5106310000000 1.0
C      1  0.4812290000000  0.5008180000000  0.4489690000000 1.0
C      1  0.4479200000000  0.4866770000000  0.5391640000000 1.0
C      1  0.4946750000000  0.4365460000000  0.5828320000000 1.0
C      1  0.4499760000000  0.5014370000000  0.5896640000000 1.0
C      1  0.4437560000000  0.4299820000000  0.4844870000000 1.0
C      1  0.5439110000000  0.5209400000000  0.4290880000000 1.0
C      1  0.5730740000000  0.5511300000000  0.4655570000000 1.0
C      1  0.4633180000000  0.5453640000000  0.5612840000000 1.0
C      1  0.5728440000000  0.4459500000000  0.4611590000000 1.0
C      1  0.5069150000000  0.4173480000000  0.4612230000000 1.0
C      1  0.4918890000000  0.5819150000000  0.5535650000000 1.0
C      1  0.5490400000000  0.5002070000000  0.5458830000000 1.0
C      1  0.5079890000000  0.5570190000000  0.5191270000000 1.0
C      1  0.4991930000000  0.5205930000000  0.5327640000000 1.0
C      1  0.4414320000000  0.5725530000000  0.4701680000000 1.0
C      1  0.5291690000000  0.5974230000000  0.5249940000000 1.0
C      1  0.4980290000000  0.5746720000000  0.4263170000000 1.0
C      1  0.5662720000000  0.5636210000000  0.5179180000000 1.0
C      1  0.4918320000000  0.4558250000000  0.5548260000000 1.0
C      1  0.4373290000000  0.4383040000000  0.5168680000000 1.0
C      1  0.4657810000000  0.4544760000000  0.5070000000000 1.0
C      1  0.5072340000000  0.4632540000000  0.5908290000000 1.0
C      1  0.4611070000000  0.5254030000000  0.5874060000000 1.0
C      1  0.5889220000000  0.4685890000000  0.4678980000000 1.0
C      1  0.5860600000000  0.5505160000000  0.4960540000000 1.0
C      1  0.5508500000000  0.4871990000000  0.5751950000000 1.0
C      1  0.4236220000000  0.5487010000000  0.5063260000000 1.0
C      1  0.5864620000000  0.4952680000000  0.4566060000000 1.0
C      1  0.4711730000000  0.4474960000000  0.4740990000000 1.0
C      1  0.4795020000000  0.5159910000000  0.4181400000000 1.0
C      1  0.4348750000000  0.5394990000000  0.5339530000000 1.0
C      1  0.5288940000000  0.5371280000000  0.5335390000000 1.0
C      1  0.4865560000000  0.4757880000000  0.5206820000000 1.0
C      1  0.4640270000000  0.4180100000000  0.5380760000000 1.0
C      1  0.4634390000000  0.4411980000000  0.4347870000000 1.0
C      1  0.4580940000000  0.5470490000000  0.4424010000000 1.0
C      1  0.5095410000000  0.4574280000000  0.5055330000000 1.0
C      1  0.4274690000000  0.5477080000000  0.4519760000000 1.0
C      1  0.5966350000000  0.5012470000000  0.5002740000000 1.0
C      1  0.4258500000000  0.4610610000000  0.5354510000000 1.0
C      1  0.5463570000000  0.5846550000000  0.5026310000000 1.0
C      1  0.5471030000000  0.4587030000000  0.5564330000000 1.0
C      1  0.4724610000000  0.5507480000000  0.4982730000000 1.0
C      1  0.5340360000000  0.5639560000000  0.5627300000000 1.0
C      1  0.4509360000000  0.4078360000000  0.5083300000000 1.0
C      1  0.4249400000000  0.4422260000000  0.4661430000000 1.0
C      1  0.4979740000000  0.5500390000000  0.4593770000000 1.0
C      1  0.5352020000000  0.4031820000000  0.4596100000000 1.0
C      1  0.4892840000000  0.5231610000000  0.5024260000000 1.0
C      1  0.4762200000000  0.4837950000000  0.5521180000000 1.0
C      1  0.4334880000000  0.5744880000000  0.4979130000000 1.0
C      1  0.5565030000000  0.4180170000000  0.4706320000000 1.0
C      1  0.4167160000000  0.5250650000000  0.5497270000000 1.0
C      1  0.4415810000000  0.4553520000000  0.5629480000000 1.0
C      1  0.4909420000000  0.5404140000000  0.5804950000000 1.0
C      1  0.5177290000000  0.5308090000000  0.4912890000000 1.0
C      1  0.5347850000000  0.5137050000000  0.5806850000000 1.0
C      1  0.5063910000000  0.4839590000000  0.4749520000000 1.0
C      1  0.5537720000000  0.5333920000000  0.5117190000000 1.0
C      1  0.5182440000000  0.5510990000000  0.4331950000000 1.0
C      1  0.4538840000000  0.5863220000000  0.5178070000000 1.0
C      1  0.5049200000000  0.4185820000000  0.5607390000000 1.0
C      1  0.5235310000000  0.4494150000000  0.4313730000000 1.0
C      1  0.4488040000000  0.5034990000000  0.4258140000000 1.0
C      1  0.5460510000000  0.5706440000000  0.4734890000000 1.0
C      1  0.5674500000000  0.4462780000000  0.5351530000000 1.0
C      1  0.4218810000000  0.5307900000000  0.4797050000000 1.0
C      1  0.5899360000000  0.5231660000000  0.4759870000000 1.0
C      1  0.4964220000000  0.4327000000000  0.4333550000000 1.0
C      1  0.4641460000000  0.4386940000000  0.5576970000000 1.0
C      1  0.5668280000000  0.5285270000000  0.5427720000000 1.0
C      1  0.5580390000000  0.5077560000000  0.4574340000000 1.0
C      1  0.5069950000000  0.5656590000000  0.5704800000000 1.0
C      1  0.5247240000000  0.4744420000000  0.4145330000000 1.0
C      1  0.4033070000000  0.4714600000000  0.5150550000000 1.0
C      1  0.5356540000000  0.4618440000000  0.5883310000000 1.0
C      1  0.4944600000000  0.4873290000000  0.5793190000000 1.0
C      1  0.4485830000000  0.4696940000000  0.4219860000000 1.0
END
