TITL C-2778436-5916-177 -0.00156633628605069 125000 -835.336166259736 0 0 143 (C1) n - 1
REM
REM in /home/nfs/bkarasulu/CARBON/AIRSS/Generating-Clusters/REBO/Only-C1/SD-CG/HFTN-CG
REM
REM
REM
REM
REM
REM ./C.cell (11c1c37f851c82e70ff6c80c92926a4b)
REM
REM compiler GCC version 9.2.1 20190827 (Red Hat 9.2.1-1)
REM options -cpp -mtune=generic -march=x86-64 -g -O0 -fpre-include=/usr/include/finclude/math-vector-fortran.h
REM seed -1755994937 -1625851817 1718052588 69347251 676682433 -497765704 488621977 141856625 -1491456709 309061628 -1542166669 -1157562471 288160070 -2064061516 1268559607 1798468240 -1970456858 -505028826 -129991121 -1815348239 190721270 -85327419 -81347124 -624748351 -1355538579 -76801656 242757691 311917597 1576498755 60438813 -2019140493 -1097657831 1854672287
REM
CELL 1.54180   50.00000   50.00000   50.00000   90.00000   90.00000   90.00000
LATT -1
SFAC C  
C      1  0.4966090000000  0.4876150000000  0.4424450000000 1.0
C      1  0.4344820000000  0.4421900000000  0.5513530000000 1.0
C      1  0.5049970000000  0.5353060000000  0.4491650000000 1.0
C      1  0.4602710000000  0.4755550000000  0.5281350000000 1.0
C      1  0.4500970000000  0.4773690000000  0.5840390000000 1.0
C      1  0.5497090000000  0.5634440000000  0.5613980000000 1.0
C      1  0.4630790000000  0.4158370000000  0.4471500000000 1.0
C      1  0.5702260000000  0.5163030000000  0.5320660000000 1.0
C      1  0.5469010000000  0.5071920000000  0.4282620000000 1.0
C      1  0.4456790000000  0.5457130000000  0.4785600000000 1.0
C      1  0.4853400000000  0.5799680000000  0.4528270000000 1.0
C      1  0.5673310000000  0.4398570000000  0.4822640000000 1.0
C      1  0.4090920000000  0.4961580000000  0.4205470000000 1.0
C      1  0.5091130000000  0.5165310000000  0.5037920000000 1.0
C      1  0.4489800000000  0.4223280000000  0.5372950000000 1.0
C      1  0.4363600000000  0.4236600000000  0.4505540000000 1.0
C      1  0.5053390000000  0.4128690000000  0.4464960000000 1.0
C      1  0.4763120000000  0.5060540000000  0.5045270000000 1.0
C      1  0.4778370000000  0.4661400000000  0.4995970000000 1.0
C      1  0.4462250000000  0.5528700000000  0.5103770000000 1.0
C      1  0.4249840000000  0.4425230000000  0.4325020000000 1.0
C      1  0.5248140000000  0.5592420000000  0.5798660000000 1.0
C      1  0.4861330000000  0.4309520000000  0.5162520000000 1.0
C      1  0.5903680000000  0.4832930000000  0.5020040000000 1.0
C      1  0.4914390000000  0.5550350000000  0.4902140000000 1.0
C      1  0.5416450000000  0.5566860000000  0.4777900000000 1.0
C      1  0.4954560000000  0.4499380000000  0.5628770000000 1.0
C      1  0.4559770000000  0.3978190000000  0.4946840000000 1.0
C      1  0.4414970000000  0.5117540000000  0.4526830000000 1.0
C      1  0.5649740000000  0.4682060000000  0.5670310000000 1.0
C      1  0.4762350000000  0.4565630000000  0.5854860000000 1.0
C      1  0.4295070000000  0.4743530000000  0.4289090000000 1.0
C      1  0.4858560000000  0.4593110000000  0.4509780000000 1.0
C      1  0.4755900000000  0.4117980000000  0.4731400000000 1.0
C      1  0.5423840000000  0.5135060000000  0.5415030000000 1.0
C      1  0.5618640000000  0.5822370000000  0.4860270000000 1.0
C      1  0.4153970000000  0.5202040000000  0.4331990000000 1.0
C      1  0.4841650000000  0.5089290000000  0.4737440000000 1.0
C      1  0.5412270000000  0.4650870000000  0.5422600000000 1.0
C      1  0.5656780000000  0.4438440000000  0.5470200000000 1.0
C      1  0.4224210000000  0.4611040000000  0.5331220000000 1.0
C      1  0.5609310000000  0.5814200000000  0.5364390000000 1.0
C      1  0.5328990000000  0.4153550000000  0.5303630000000 1.0
C      1  0.4429530000000  0.5175080000000  0.5286980000000 1.0
C      1  0.4280270000000  0.4261770000000  0.4778010000000 1.0
C      1  0.6016290000000  0.5085880000000  0.5389750000000 1.0
C      1  0.5432960000000  0.5845380000000  0.4492950000000 1.0
C      1  0.4657190000000  0.5783350000000  0.5408400000000 1.0
C      1  0.4618620000000  0.4658910000000  0.4718130000000 1.0
C      1  0.5012800000000  0.5764380000000  0.5734660000000 1.0
C      1  0.4092600000000  0.4827000000000  0.4873390000000 1.0
C      1  0.4572840000000  0.4800740000000  0.4153840000000 1.0
C      1  0.5187670000000  0.5568560000000  0.4184970000000 1.0
C      1  0.5271910000000  0.5453550000000  0.5052700000000 1.0
C      1  0.5618390000000  0.4879720000000  0.4639350000000 1.0
C      1  0.4775740000000  0.5554620000000  0.5861300000000 1.0
C      1  0.5305470000000  0.5949990000000  0.4788970000000 1.0
C      1  0.4104080000000  0.4514690000000  0.4796990000000 1.0
C      1  0.4457470000000  0.4863460000000  0.5534040000000 1.0
C      1  0.5171100000000  0.4716330000000  0.5616170000000 1.0
C      1  0.5771030000000  0.5498240000000  0.5697320000000 1.0
C      1  0.4947740000000  0.5383590000000  0.5638540000000 1.0
C      1  0.4886640000000  0.3883910000000  0.4936260000000 1.0
C      1  0.4189450000000  0.5442660000000  0.4569920000000 1.0
C      1  0.6085150000000  0.4876640000000  0.5225600000000 1.0
C      1  0.5921010000000  0.5172600000000  0.4813360000000 1.0
C      1  0.4311090000000  0.4717440000000  0.4624040000000 1.0
C      1  0.5135230000000  0.5038470000000  0.5569770000000 1.0
C      1  0.5670860000000  0.5508710000000  0.4610100000000 1.0
C      1  0.4706950000000  0.5069930000000  0.4107990000000 1.0
C      1  0.4767370000000  0.4885370000000  0.5980900000000 1.0
C      1  0.5010050000000  0.5925820000000  0.4806960000000 1.0
C      1  0.5096940000000  0.4411540000000  0.4602060000000 1.0
C      1  0.4749060000000  0.4572340000000  0.4203790000000 1.0
C      1  0.5801310000000  0.5130280000000  0.4496340000000 1.0
C      1  0.5538500000000  0.4604000000000  0.4363530000000 1.0
C      1  0.5434540000000  0.5945120000000  0.5104200000000 1.0
C      1  0.4084600000000  0.5331810000000  0.4851130000000 1.0
C      1  0.4091750000000  0.4850130000000  0.5183690000000 1.0
C      1  0.4143470000000  0.5121590000000  0.5263620000000 1.0
C      1  0.4717810000000  0.4123450000000  0.5486210000000 1.0
C      1  0.5049870000000  0.4199350000000  0.5495530000000 1.0
C      1  0.4479000000000  0.5422910000000  0.4389910000000 1.0
C      1  0.5296940000000  0.5412170000000  0.5449000000000 1.0
C      1  0.5051860000000  0.5038880000000  0.6004310000000 1.0
C      1  0.5127760000000  0.4988870000000  0.4676330000000 1.0
C      1  0.4996300000000  0.5027990000000  0.4166460000000 1.0
C      1  0.4463450000000  0.4898330000000  0.5002700000000 1.0
C      1  0.5182380000000  0.5267500000000  0.5816780000000 1.0
C      1  0.5625170000000  0.5361990000000  0.4335750000000 1.0
C      1  0.5401160000000  0.5137320000000  0.4594460000000 1.0
C      1  0.5127050000000  0.5267350000000  0.4219220000000 1.0
C      1  0.5117670000000  0.3955030000000  0.4696900000000 1.0
C      1  0.4356560000000  0.4571790000000  0.5025770000000 1.0
C      1  0.5411570000000  0.5185730000000  0.4907900000000 1.0
C      1  0.5272300000000  0.4846780000000  0.5892190000000 1.0
C      1  0.5314400000000  0.5680200000000  0.5261930000000 1.0
C      1  0.4978550000000  0.5458220000000  0.5352510000000 1.0
C      1  0.4895160000000  0.5622710000000  0.4242710000000 1.0
C      1  0.4444880000000  0.4464640000000  0.5775170000000 1.0
C      1  0.4875620000000  0.4382790000000  0.4849500000000 1.0
C      1  0.5545070000000  0.4807750000000  0.5901100000000 1.0
C      1  0.5741450000000  0.4195910000000  0.5062180000000 1.0
C      1  0.5218930000000  0.4101250000000  0.4984060000000 1.0
C      1  0.4982960000000  0.4013890000000  0.5213790000000 1.0
C      1  0.4155020000000  0.5407370000000  0.5121000000000 1.0
C      1  0.4800580000000  0.5514530000000  0.5151610000000 1.0
C      1  0.5123190000000  0.5547130000000  0.4695530000000 1.0
C      1  0.4766740000000  0.5226130000000  0.5960660000000 1.0
C      1  0.5357640000000  0.4386590000000  0.4934400000000 1.0
C      1  0.5874810000000  0.5685800000000  0.4973400000000 1.0
C      1  0.5276310000000  0.4958290000000  0.5206400000000 1.0
C      1  0.4433830000000  0.4240630000000  0.5075010000000 1.0
C      1  0.5434540000000  0.5635690000000  0.4313960000000 1.0
C      1  0.5684160000000  0.5089550000000  0.5017250000000 1.0
C      1  0.5413650000000  0.4458260000000  0.4607330000000 1.0
C      1  0.5906450000000  0.5405310000000  0.5425710000000 1.0
C      1  0.4536660000000  0.5698500000000  0.4570240000000 1.0
C      1  0.4889960000000  0.5068670000000  0.5367670000000 1.0
C      1  0.5831790000000  0.4677450000000  0.4462810000000 1.0
C      1  0.4990700000000  0.4792970000000  0.5193400000000 1.0
C      1  0.4821490000000  0.4272880000000  0.4274230000000 1.0
C      1  0.4786600000000  0.4495070000000  0.5357170000000 1.0
C      1  0.5882320000000  0.4619770000000  0.4788490000000 1.0
C      1  0.5604710000000  0.4214520000000  0.5312300000000 1.0
C      1  0.6014990000000  0.4902180000000  0.4642850000000 1.0
C      1  0.4650170000000  0.4932470000000  0.4541480000000 1.0
C      1  0.4344050000000  0.5097310000000  0.5669130000000 1.0
C      1  0.4760040000000  0.5383700000000  0.4671640000000 1.0
C      1  0.4588450000000  0.5542770000000  0.5577420000000 1.0
C      1  0.4642750000000  0.5255600000000  0.5417700000000 1.0
C      1  0.4671310000000  0.5894760000000  0.4805960000000 1.0
C      1  0.5904320000000  0.5477880000000  0.4779080000000 1.0
C      1  0.4490810000000  0.5295280000000  0.5783750000000 1.0
C      1  0.5862500000000  0.5664510000000  0.5256900000000 1.0
C      1  0.5438440000000  0.4811620000000  0.4212760000000 1.0
C      1  0.5333520000000  0.4649290000000  0.5105560000000 1.0
C      1  0.4701170000000  0.5388990000000  0.4192410000000 1.0
C      1  0.4954900000000  0.5843440000000  0.5454630000000 1.0
C      1  0.5356440000000  0.4803420000000  0.4808830000000 1.0
C      1  0.4899660000000  0.5918290000000  0.5130340000000 1.0
C      1  0.4570530000000  0.5836970000000  0.5099940000000 1.0
C      1  0.4269080000000  0.5078800000000  0.4789510000000 1.0
END
