TITL C-2778437-8639-265 0.00667825872497148 125000 -1015.33256373048 0 0 177 (C1) n - 1
REM
REM in /home/nfs/bkarasulu/CARBON/AIRSS/Generating-Clusters/REBO/Only-C1/SD-CG/HFTN-CG
REM
REM
REM
REM
REM
REM ./C.cell (11c1c37f851c82e70ff6c80c92926a4b)
REM
REM compiler GCC version 9.2.1 20190827 (Red Hat 9.2.1-1)
REM options -cpp -mtune=generic -march=x86-64 -g -O0 -fpre-include=/usr/include/finclude/math-vector-fortran.h
REM seed -991547354 -350640300 -1207851428 -1292520403 877122981 -782279280 -261894898 -609910445 -1605481516 -1061809848 -112180994 -1659336646 935516224 895158548 -903202688 -978573635 -354528584 -828585041 593361388 1533388502 -227447543 -1127963188 -346032738 -1515843041 1519181724 -207633366 1884167134 -521270673 177477665 900236291 1151090851 -1037039541 -1553133448
REM
CELL 1.54180   50.00000   50.00000   50.00000   90.00000   90.00000   90.00000
LATT -1
SFAC C  
C      1  0.4455490000000  0.5131880000000  0.5949970000000 1.0
C      1  0.5836070000000  0.5103320000000  0.5599550000000 1.0
C      1  0.4504500000000  0.5706040000000  0.4246470000000 1.0
C      1  0.5597570000000  0.5201020000000  0.5819740000000 1.0
C      1  0.5749130000000  0.4586140000000  0.5134620000000 1.0
C      1  0.5250090000000  0.4930240000000  0.4542770000000 1.0
C      1  0.4599160000000  0.4823390000000  0.5973370000000 1.0
C      1  0.4647380000000  0.4612730000000  0.5067280000000 1.0
C      1  0.4076930000000  0.4434670000000  0.5149330000000 1.0
C      1  0.4748550000000  0.5533190000000  0.5364740000000 1.0
C      1  0.5502420000000  0.5245550000000  0.5084530000000 1.0
C      1  0.5089380000000  0.4290470000000  0.5129930000000 1.0
C      1  0.5649080000000  0.4899830000000  0.5222020000000 1.0
C      1  0.5213690000000  0.5906770000000  0.4471790000000 1.0
C      1  0.4420310000000  0.4042860000000  0.5103990000000 1.0
C      1  0.5391710000000  0.5615670000000  0.4733540000000 1.0
C      1  0.4777530000000  0.4352670000000  0.4655860000000 1.0
C      1  0.5178590000000  0.5721570000000  0.4971140000000 1.0
C      1  0.4896550000000  0.5965990000000  0.4815370000000 1.0
C      1  0.4720570000000  0.5118620000000  0.4381370000000 1.0
C      1  0.5098630000000  0.5203470000000  0.4322580000000 1.0
C      1  0.6059020000000  0.5133970000000  0.5358600000000 1.0
C      1  0.4615690000000  0.6082910000000  0.5261230000000 1.0
C      1  0.5867900000000  0.5408230000000  0.5429780000000 1.0
C      1  0.4927240000000  0.6012810000000  0.5379710000000 1.0
C      1  0.5322470000000  0.4437260000000  0.5982020000000 1.0
C      1  0.5010690000000  0.4696110000000  0.4058860000000 1.0
C      1  0.4770820000000  0.3957480000000  0.4647340000000 1.0
C      1  0.4305060000000  0.4269030000000  0.5333480000000 1.0
C      1  0.5356510000000  0.4577680000000  0.5206790000000 1.0
C      1  0.4934260000000  0.5540500000000  0.4000690000000 1.0
C      1  0.5183380000000  0.4856370000000  0.5251460000000 1.0
C      1  0.6051560000000  0.4651750000000  0.5204710000000 1.0
C      1  0.5764840000000  0.5469900000000  0.5723620000000 1.0
C      1  0.4152080000000  0.4720480000000  0.5752490000000 1.0
C      1  0.5224920000000  0.4333750000000  0.5680340000000 1.0
C      1  0.5205030000000  0.5348450000000  0.4837890000000 1.0
C      1  0.5013650000000  0.4692580000000  0.4929460000000 1.0
C      1  0.4518960000000  0.5636050000000  0.5710320000000 1.0
C      1  0.4664130000000  0.5393660000000  0.3927320000000 1.0
C      1  0.5745470000000  0.3902220000000  0.4418570000000 1.0
C      1  0.5217880000000  0.3943930000000  0.5297160000000 1.0
C      1  0.4813720000000  0.4577390000000  0.5933450000000 1.0
C      1  0.5432430000000  0.4296360000000  0.4339030000000 1.0
C      1  0.4715230000000  0.4585080000000  0.4166480000000 1.0
C      1  0.5551080000000  0.5875590000000  0.5285350000000 1.0
C      1  0.4624660000000  0.5460280000000  0.5088870000000 1.0
C      1  0.5222770000000  0.5556290000000  0.5906100000000 1.0
C      1  0.5327730000000  0.5089290000000  0.4102510000000 1.0
C      1  0.4251230000000  0.4835730000000  0.4841100000000 1.0
C      1  0.4619340000000  0.4792190000000  0.4391200000000 1.0
C      1  0.5660910000000  0.4239180000000  0.4778230000000 1.0
C      1  0.4116660000000  0.5048810000000  0.5046090000000 1.0
C      1  0.4012530000000  0.5298610000000  0.5339870000000 1.0
C      1  0.5622420000000  0.5205180000000  0.4788130000000 1.0
C      1  0.4399270000000  0.4786390000000  0.5146280000000 1.0
C      1  0.4125990000000  0.5057950000000  0.5443820000000 1.0
C      1  0.5299200000000  0.5113510000000  0.5262840000000 1.0
C      1  0.4819100000000  0.4189370000000  0.5290450000000 1.0
C      1  0.4270390000000  0.4985900000000  0.4388730000000 1.0
C      1  0.4191840000000  0.5555710000000  0.4908240000000 1.0
C      1  0.4544040000000  0.5728640000000  0.4972760000000 1.0
C      1  0.5266840000000  0.5034250000000  0.4840370000000 1.0
C      1  0.5037180000000  0.5384160000000  0.5132230000000 1.0
C      1  0.5827720000000  0.5153870000000  0.5123980000000 1.0
C      1  0.4862040000000  0.6089800000000  0.5053870000000 1.0
C      1  0.5275870000000  0.4591170000000  0.4752610000000 1.0
C      1  0.4930270000000  0.5962100000000  0.4505220000000 1.0
C      1  0.4323120000000  0.4359730000000  0.4651130000000 1.0
C      1  0.4709010000000  0.5862940000000  0.4346250000000 1.0
C      1  0.4077850000000  0.5304490000000  0.4718630000000 1.0
C      1  0.5016390000000  0.3899010000000  0.5104470000000 1.0
C      1  0.5619840000000  0.4280420000000  0.5172970000000 1.0
C      1  0.5034130000000  0.4224550000000  0.4337630000000 1.0
C      1  0.4490270000000  0.5110140000000  0.4595990000000 1.0
C      1  0.5110580000000  0.4466280000000  0.5410430000000 1.0
C      1  0.5961680000000  0.5140130000000  0.4586660000000 1.0
C      1  0.4995340000000  0.5007270000000  0.4063910000000 1.0
C      1  0.4569140000000  0.5766030000000  0.4707810000000 1.0
C      1  0.4337910000000  0.4673300000000  0.4506420000000 1.0
C      1  0.5343470000000  0.4808570000000  0.4247640000000 1.0
C      1  0.4670750000000  0.5074650000000  0.3987950000000 1.0
C      1  0.4405250000000  0.5403220000000  0.4690040000000 1.0
C      1  0.4718550000000  0.5302820000000  0.5568730000000 1.0
C      1  0.5452910000000  0.4793210000000  0.4963390000000 1.0
C      1  0.5472310000000  0.5800210000000  0.5582700000000 1.0
C      1  0.4887550000000  0.4751620000000  0.5246900000000 1.0
C      1  0.5861850000000  0.5772840000000  0.4741880000000 1.0
C      1  0.5735930000000  0.4883350000000  0.4793750000000 1.0
C      1  0.5444360000000  0.4590000000000  0.4470160000000 1.0
C      1  0.5519670000000  0.6056020000000  0.5023210000000 1.0
C      1  0.4946700000000  0.5637420000000  0.4736320000000 1.0
C      1  0.3991480000000  0.4680740000000  0.4964010000000 1.0
C      1  0.5050540000000  0.5635630000000  0.5338000000000 1.0
C      1  0.4969590000000  0.5012210000000  0.4952050000000 1.0
C      1  0.4425520000000  0.5893820000000  0.5187420000000 1.0
C      1  0.4411420000000  0.5257910000000  0.5633860000000 1.0
C      1  0.4864700000000  0.4189060000000  0.5592510000000 1.0
C      1  0.5937510000000  0.5594580000000  0.4966650000000 1.0
C      1  0.5063870000000  0.4544820000000  0.4357650000000 1.0
C      1  0.4822990000000  0.5269780000000  0.5875960000000 1.0
C      1  0.5358000000000  0.4273820000000  0.4974770000000 1.0
C      1  0.4425180000000  0.4889040000000  0.5462910000000 1.0
C      1  0.4288240000000  0.5534950000000  0.5536800000000 1.0
C      1  0.4744120000000  0.4428980000000  0.5699470000000 1.0
C      1  0.4719370000000  0.5813620000000  0.5545250000000 1.0
C      1  0.4682950000000  0.3937200000000  0.5151150000000 1.0
C      1  0.5388640000000  0.5955900000000  0.4725580000000 1.0
C      1  0.5064510000000  0.4025430000000  0.4553820000000 1.0
C      1  0.3974200000000  0.5345450000000  0.5042600000000 1.0
C      1  0.4077380000000  0.4469560000000  0.4459440000000 1.0
C      1  0.5285010000000  0.4267720000000  0.4645220000000 1.0
C      1  0.5732910000000  0.4709780000000  0.4515640000000 1.0
C      1  0.6092880000000  0.4996510000000  0.4869740000000 1.0
C      1  0.4651110000000  0.4630960000000  0.5463530000000 1.0
C      1  0.4692890000000  0.5514870000000  0.4542480000000 1.0
C      1  0.5673210000000  0.5523870000000  0.4675900000000 1.0
C      1  0.5380500000000  0.5297980000000  0.6015840000000 1.0
C      1  0.5147710000000  0.4041050000000  0.5591160000000 1.0
C      1  0.4579310000000  0.5452350000000  0.5935980000000 1.0
C      1  0.5062050000000  0.5301850000000  0.6000900000000 1.0
C      1  0.5095700000000  0.4626170000000  0.5919540000000 1.0
C      1  0.5195510000000  0.5596580000000  0.4039830000000 1.0
C      1  0.5274390000000  0.5639870000000  0.4352350000000 1.0
C      1  0.5725430000000  0.4539370000000  0.4810630000000 1.0
C      1  0.4731300000000  0.4329030000000  0.4312250000000 1.0
C      1  0.4355560000000  0.5272240000000  0.5136000000000 1.0
C      1  0.4908340000000  0.5109970000000  0.4640620000000 1.0
C      1  0.4015490000000  0.5112800000000  0.4524690000000 1.0
C      1  0.4277350000000  0.5591120000000  0.5235540000000 1.0
C      1  0.4577400000000  0.4914010000000  0.4816090000000 1.0
C      1  0.5617630000000  0.4400330000000  0.5993300000000 1.0
C      1  0.5292890000000  0.4506650000000  0.4110570000000 1.0
C      1  0.5449300000000  0.4641740000000  0.5524570000000 1.0
C      1  0.4903310000000  0.4145420000000  0.4895150000000 1.0
C      1  0.3848930000000  0.4428370000000  0.4351170000000 1.0
C      1  0.4371550000000  0.5469070000000  0.4188440000000 1.0
C      1  0.5673330000000  0.5725010000000  0.5752950000000 1.0
C      1  0.4532910000000  0.4164210000000  0.4518770000000 1.0
C      1  0.4589710000000  0.4379010000000  0.5265230000000 1.0
C      1  0.5755720000000  0.5609680000000  0.5218610000000 1.0
C      1  0.4262140000000  0.4259230000000  0.4938820000000 1.0
C      1  0.5714990000000  0.6009770000000  0.4769540000000 1.0
C      1  0.4019830000000  0.4810010000000  0.5272030000000 1.0
C      1  0.5232190000000  0.5612350000000  0.5605700000000 1.0
C      1  0.5214840000000  0.5899790000000  0.5239430000000 1.0
C      1  0.4068770000000  0.4561190000000  0.5466350000000 1.0
C      1  0.5554450000000  0.4368620000000  0.5664270000000 1.0
C      1  0.4393040000000  0.4574880000000  0.5885810000000 1.0
C      1  0.5734190000000  0.5341390000000  0.4431710000000 1.0
C      1  0.4946150000000  0.4807940000000  0.4485240000000 1.0
C      1  0.4758200000000  0.5397450000000  0.4255500000000 1.0
C      1  0.4742190000000  0.4619980000000  0.4770670000000 1.0
C      1  0.5483780000000  0.5484280000000  0.4134240000000 1.0
C      1  0.4679350000000  0.4940850000000  0.5684070000000 1.0
C      1  0.4613120000000  0.5050380000000  0.5128390000000 1.0
C      1  0.5458530000000  0.4149690000000  0.5421570000000 1.0
C      1  0.6139600000000  0.4905570000000  0.5143540000000 1.0
C      1  0.4638390000000  0.4763010000000  0.3929670000000 1.0
C      1  0.4290580000000  0.4376470000000  0.5647470000000 1.0
C      1  0.5808060000000  0.4968050000000  0.4331870000000 1.0
C      1  0.5317760000000  0.5078790000000  0.5665930000000 1.0
C      1  0.5111460000000  0.5432740000000  0.4520410000000 1.0
C      1  0.5144440000000  0.4721780000000  0.5632510000000 1.0
C      1  0.5630140000000  0.4120970000000  0.4507980000000 1.0
C      1  0.5629210000000  0.5193310000000  0.4143740000000 1.0
C      1  0.5530910000000  0.5066880000000  0.4506760000000 1.0
C      1  0.4995990000000  0.4998130000000  0.5574180000000 1.0
C      1  0.5993670000000  0.5310650000000  0.4881510000000 1.0
C      1  0.5221260000000  0.5312420000000  0.5478030000000 1.0
C      1  0.4855380000000  0.5152950000000  0.5303990000000 1.0
C      1  0.4812970000000  0.5302240000000  0.4895660000000 1.0
C      1  0.4195160000000  0.5025010000000  0.5758900000000 1.0
C      1  0.5578090000000  0.4926800000000  0.5529940000000 1.0
C      1  0.5435160000000  0.5551360000000  0.5119680000000 1.0
C      1  0.5806190000000  0.4069640000000  0.5020400000000 1.0
C      1  0.4400400000000  0.5193110000000  0.4157310000000 1.0
END
