TITL C-2778423-5760-111 0.00202748837391308 125000 -757.994762686328 0 0 132 (C1) n - 1
REM
REM in /home/nfs/bkarasulu/CARBON/AIRSS/Generating-Clusters/REBO/Only-C1/SD-CG/HFTN-CG
REM
REM
REM
REM
REM
REM ./C.cell (11c1c37f851c82e70ff6c80c92926a4b)
REM
REM compiler GCC version 9.2.1 20190827 (Red Hat 9.2.1-1)
REM options -cpp -mtune=generic -march=x86-64 -g -O0 -fpre-include=/usr/include/finclude/math-vector-fortran.h
REM seed -1021170525 -1889834106 689248409 2144765829 -737415490 -564989347 -970537860 -1850127511 1326681861 143664231 -1997209829 -15747307 808656727 -615644743 -190869479 2092291169 673745523 160762999 1468642222 445960286 -1565223132 895182185 2022601665 -1516079517 1120419602 -286849241 1875977870 -542944807 605224599 1109796185 1601526936 1147668706 -410890837
REM
CELL 1.54180   50.00000   50.00000   50.00000   90.00000   90.00000   90.00000
LATT -1
SFAC C  
C      1  0.4784750000000  0.5605210000000  0.5689860000000 1.0
C      1  0.5018660000000  0.5262560000000  0.5168840000000 1.0
C      1  0.5229320000000  0.5089410000000  0.5843240000000 1.0
C      1  0.5559490000000  0.5778400000000  0.4742100000000 1.0
C      1  0.4422050000000  0.4702710000000  0.4336070000000 1.0
C      1  0.5685320000000  0.4799620000000  0.4247050000000 1.0
C      1  0.5143790000000  0.4049460000000  0.4629850000000 1.0
C      1  0.5611650000000  0.5028300000000  0.5522200000000 1.0
C      1  0.4198380000000  0.5521320000000  0.4818340000000 1.0
C      1  0.4152150000000  0.5276100000000  0.4582490000000 1.0
C      1  0.5612010000000  0.5687300000000  0.5053970000000 1.0
C      1  0.4826900000000  0.4561860000000  0.3813630000000 1.0
C      1  0.4542790000000  0.4995120000000  0.4314080000000 1.0
C      1  0.5650640000000  0.5513690000000  0.4541580000000 1.0
C      1  0.5999040000000  0.4796800000000  0.4894770000000 1.0
C      1  0.4367080000000  0.5240180000000  0.4914510000000 1.0
C      1  0.5004060000000  0.4556620000000  0.4880460000000 1.0
C      1  0.4785660000000  0.5308970000000  0.4842370000000 1.0
C      1  0.4879400000000  0.5738460000000  0.5214360000000 1.0
C      1  0.4692360000000  0.4668560000000  0.4964880000000 1.0
C      1  0.4698310000000  0.4651430000000  0.4444540000000 1.0
C      1  0.5479070000000  0.4372200000000  0.5152570000000 1.0
C      1  0.4355680000000  0.5814570000000  0.4894100000000 1.0
C      1  0.4636310000000  0.5372190000000  0.4330320000000 1.0
C      1  0.5456610000000  0.4358300000000  0.4388490000000 1.0
C      1  0.5515280000000  0.5412460000000  0.4272680000000 1.0
C      1  0.5314090000000  0.4716920000000  0.5034670000000 1.0
C      1  0.4920350000000  0.4199610000000  0.4472440000000 1.0
C      1  0.3976340000000  0.4981280000000  0.4916930000000 1.0
C      1  0.4285500000000  0.4712690000000  0.5206280000000 1.0
C      1  0.5331210000000  0.5883230000000  0.4981930000000 1.0
C      1  0.5074700000000  0.5187070000000  0.5480410000000 1.0
C      1  0.4748690000000  0.4872720000000  0.4628300000000 1.0
C      1  0.5091330000000  0.5131600000000  0.4095570000000 1.0
C      1  0.4225610000000  0.4528940000000  0.4941710000000 1.0
C      1  0.4651800000000  0.5958860000000  0.4979530000000 1.0
C      1  0.4939300000000  0.4942840000000  0.4815220000000 1.0
C      1  0.5404350000000  0.4191040000000  0.4668940000000 1.0
C      1  0.5443280000000  0.4899050000000  0.4557010000000 1.0
C      1  0.5292390000000  0.5680970000000  0.4611390000000 1.0
C      1  0.4478410000000  0.4398130000000  0.5956100000000 1.0
C      1  0.6079500000000  0.5563970000000  0.5374230000000 1.0
C      1  0.4743930000000  0.4665060000000  0.5524450000000 1.0
C      1  0.5331210000000  0.4501870000000  0.4788610000000 1.0
C      1  0.5242780000000  0.4143570000000  0.5245980000000 1.0
C      1  0.4404990000000  0.4423240000000  0.4691790000000 1.0
C      1  0.5801000000000  0.5490100000000  0.5501590000000 1.0
C      1  0.4587830000000  0.4365860000000  0.4981430000000 1.0
C      1  0.4818990000000  0.5257240000000  0.4545150000000 1.0
C      1  0.4583770000000  0.5571320000000  0.4910180000000 1.0
C      1  0.5403200000000  0.5872290000000  0.5315300000000 1.0
C      1  0.4228930000000  0.4698140000000  0.4579650000000 1.0
C      1  0.4839100000000  0.4809630000000  0.5817910000000 1.0
C      1  0.5503430000000  0.5390980000000  0.4812670000000 1.0
C      1  0.4475670000000  0.5273150000000  0.5862170000000 1.0
C      1  0.4752250000000  0.5099800000000  0.5887950000000 1.0
C      1  0.4670660000000  0.4210280000000  0.4697970000000 1.0
C      1  0.4880820000000  0.4619820000000  0.4078770000000 1.0
C      1  0.4205090000000  0.4933740000000  0.5677620000000 1.0
C      1  0.5790570000000  0.4798700000000  0.5346280000000 1.0
C      1  0.4733690000000  0.4125230000000  0.5264580000000 1.0
C      1  0.4586430000000  0.4857300000000  0.5211520000000 1.0
C      1  0.4082740000000  0.4931870000000  0.5198620000000 1.0
C      1  0.5397580000000  0.5189940000000  0.4040240000000 1.0
C      1  0.5229000000000  0.4456230000000  0.5355990000000 1.0
C      1  0.5652560000000  0.4289570000000  0.4884900000000 1.0
C      1  0.4484800000000  0.5065820000000  0.4646670000000 1.0
C      1  0.5545660000000  0.5023940000000  0.5127090000000 1.0
C      1  0.4092280000000  0.4999020000000  0.4665870000000 1.0
C      1  0.4552830000000  0.5650550000000  0.4603410000000 1.0
C      1  0.5270410000000  0.5371450000000  0.4580640000000 1.0
C      1  0.5144940000000  0.4814190000000  0.5804710000000 1.0
C      1  0.4893400000000  0.5550570000000  0.4272060000000 1.0
C      1  0.4445250000000  0.4902840000000  0.5517490000000 1.0
C      1  0.4173970000000  0.5432720000000  0.5140510000000 1.0
C      1  0.4561530000000  0.5364650000000  0.5165080000000 1.0
C      1  0.5295670000000  0.4650430000000  0.5599460000000 1.0
C      1  0.5593400000000  0.4722640000000  0.5592660000000 1.0
C      1  0.3983780000000  0.5016630000000  0.5496550000000 1.0
C      1  0.4626690000000  0.4558990000000  0.5823130000000 1.0
C      1  0.5023330000000  0.5068730000000  0.4416180000000 1.0
C      1  0.4248280000000  0.5108950000000  0.5896940000000 1.0
C      1  0.4566580000000  0.5782840000000  0.5248440000000 1.0
C      1  0.4365980000000  0.5453750000000  0.4451400000000 1.0
C      1  0.5391540000000  0.5222830000000  0.5604020000000 1.0
C      1  0.5798060000000  0.4726870000000  0.4492830000000 1.0
C      1  0.4800730000000  0.5274080000000  0.5614870000000 1.0
C      1  0.5010480000000  0.4578290000000  0.4562580000000 1.0
C      1  0.4933370000000  0.4052340000000  0.4841680000000 1.0
C      1  0.5014470000000  0.5523120000000  0.5915880000000 1.0
C      1  0.4482460000000  0.5504730000000  0.5676130000000 1.0
C      1  0.5637010000000  0.4509010000000  0.4625640000000 1.0
C      1  0.5211470000000  0.5076140000000  0.4704460000000 1.0
C      1  0.5024300000000  0.5246170000000  0.5958780000000 1.0
C      1  0.4987570000000  0.4589210000000  0.5218630000000 1.0
C      1  0.5362390000000  0.3920590000000  0.5414630000000 1.0
C      1  0.5816830000000  0.5494150000000  0.5168630000000 1.0
C      1  0.4974220000000  0.5538830000000  0.4973540000000 1.0
C      1  0.4420060000000  0.4793940000000  0.4839930000000 1.0
C      1  0.4993580000000  0.5936820000000  0.4964650000000 1.0
C      1  0.4707430000000  0.4446220000000  0.5292760000000 1.0
C      1  0.5938490000000  0.4950410000000  0.5122940000000 1.0
C      1  0.5462770000000  0.3733470000000  0.5556170000000 1.0
C      1  0.4792530000000  0.5054780000000  0.5070050000000 1.0
C      1  0.5005240000000  0.4862040000000  0.5423860000000 1.0
C      1  0.5567870000000  0.5077550000000  0.4294530000000 1.0
C      1  0.4278420000000  0.4373390000000  0.5233080000000 1.0
C      1  0.5154270000000  0.5627920000000  0.5317510000000 1.0
C      1  0.5799630000000  0.5226100000000  0.5040300000000 1.0
C      1  0.5101370000000  0.5690480000000  0.5646250000000 1.0
C      1  0.4966030000000  0.4422540000000  0.4267620000000 1.0
C      1  0.5169250000000  0.5412350000000  0.4273610000000 1.0
C      1  0.5693400000000  0.4628770000000  0.5089530000000 1.0
C      1  0.4383980000000  0.5559190000000  0.5380930000000 1.0
C      1  0.5276790000000  0.5154250000000  0.5028960000000 1.0
C      1  0.5792030000000  0.5245160000000  0.4705720000000 1.0
C      1  0.5487410000000  0.4594010000000  0.4152980000000 1.0
C      1  0.5562410000000  0.4831800000000  0.4845740000000 1.0
C      1  0.4809800000000  0.5714060000000  0.4501240000000 1.0
C      1  0.5324850000000  0.4842070000000  0.5315710000000 1.0
C      1  0.5288210000000  0.4652390000000  0.4423090000000 1.0
C      1  0.5903000000000  0.4927140000000  0.4658940000000 1.0
C      1  0.5929750000000  0.4489530000000  0.4902640000000 1.0
C      1  0.5346810000000  0.5480570000000  0.5102080000000 1.0
C      1  0.4562630000000  0.5195850000000  0.5435070000000 1.0
C      1  0.5409060000000  0.5735070000000  0.5600890000000 1.0
C      1  0.4967370000000  0.4062920000000  0.5118530000000 1.0
C      1  0.4431380000000  0.4158160000000  0.5287900000000 1.0
C      1  0.4844490000000  0.4912800000000  0.4179610000000 1.0
C      1  0.5021960000000  0.5744020000000  0.4711520000000 1.0
C      1  0.5550110000000  0.5491630000000  0.5615580000000 1.0
C      1  0.4234120000000  0.5191900000000  0.5340180000000 1.0
END
