TITL C-2778430-5657-583 -0.000596608673942697 125000 -1112.54621658478 0 0 187 (C1) n - 1
REM
REM in /home/nfs/bkarasulu/CARBON/AIRSS/Generating-Clusters/REBO/Only-C1/SD-CG/HFTN-CG
REM
REM
REM
REM
REM
REM ./C.cell (11c1c37f851c82e70ff6c80c92926a4b)
REM
REM compiler GCC version 9.2.1 20190827 (Red Hat 9.2.1-1)
REM options -cpp -mtune=generic -march=x86-64 -g -O0 -fpre-include=/usr/include/finclude/math-vector-fortran.h
REM seed 1885175147 1786660923 -1465960303 -1444198449 377220104 -1898940246 -2019552845 -815961277 862932508 1915577021 -1120050792 -39839335 1371421346 -1652622648 1012747868 164459332 1903691835 61165189 -1870837619 -1180403432 -1192526263 1627972144 -1737128077 -718921458 1928113935 -1600191632 -211774838 -2099015925 -852140341 -1926451212 -794498517 627641039 993286909
REM
CELL 1.54180   50.00000   50.00000   50.00000   90.00000   90.00000   90.00000
LATT -1
SFAC C  
C      1  0.5126390000000  0.4425570000000  0.4071350000000 1.0
C      1  0.5981130000000  0.5435710000000  0.5144930000000 1.0
C      1  0.6270290000000  0.4990020000000  0.4927080000000 1.0
C      1  0.4549750000000  0.5118960000000  0.4410530000000 1.0
C      1  0.5855050000000  0.5335030000000  0.4308840000000 1.0
C      1  0.4189750000000  0.4800780000000  0.5577690000000 1.0
C      1  0.5592450000000  0.4670100000000  0.6019220000000 1.0
C      1  0.5421900000000  0.4787090000000  0.4759630000000 1.0
C      1  0.4504230000000  0.5220720000000  0.5042630000000 1.0
C      1  0.5097580000000  0.4000830000000  0.4879330000000 1.0
C      1  0.5219960000000  0.4788860000000  0.5249480000000 1.0
C      1  0.4454560000000  0.5197540000000  0.4135940000000 1.0
C      1  0.5970970000000  0.4887530000000  0.5301330000000 1.0
C      1  0.4597070000000  0.4595150000000  0.4552910000000 1.0
C      1  0.4183470000000  0.4950480000000  0.5821020000000 1.0
C      1  0.4383530000000  0.4852270000000  0.6001370000000 1.0
C      1  0.5242670000000  0.3929720000000  0.5105810000000 1.0
C      1  0.4116110000000  0.5229960000000  0.5759980000000 1.0
C      1  0.4971280000000  0.4866580000000  0.5332840000000 1.0
C      1  0.4900540000000  0.4479560000000  0.5804260000000 1.0
C      1  0.4070360000000  0.4919130000000  0.4279390000000 1.0
C      1  0.5177230000000  0.4899190000000  0.6024390000000 1.0
C      1  0.5054450000000  0.4259000000000  0.4697310000000 1.0
C      1  0.5034930000000  0.5433340000000  0.5159890000000 1.0
C      1  0.5023760000000  0.4981220000000  0.4580240000000 1.0
C      1  0.4522460000000  0.5580630000000  0.5718310000000 1.0
C      1  0.5632230000000  0.5337760000000  0.4095000000000 1.0
C      1  0.5683980000000  0.5607600000000  0.5741110000000 1.0
C      1  0.5503220000000  0.4089710000000  0.5478540000000 1.0
C      1  0.4159220000000  0.5129900000000  0.4111350000000 1.0
C      1  0.4347800000000  0.4398600000000  0.5015020000000 1.0
C      1  0.4062740000000  0.4662840000000  0.4674490000000 1.0
C      1  0.4701610000000  0.6065770000000  0.4659010000000 1.0
C      1  0.4321660000000  0.5784170000000  0.5397120000000 1.0
C      1  0.5241720000000  0.5025370000000  0.4764690000000 1.0
C      1  0.5466530000000  0.4917130000000  0.6017220000000 1.0
C      1  0.4861220000000  0.4819720000000  0.3875560000000 1.0
C      1  0.5846150000000  0.5077600000000  0.5629180000000 1.0
C      1  0.5135930000000  0.5922650000000  0.4407240000000 1.0
C      1  0.5114260000000  0.3865420000000  0.5354170000000 1.0
C      1  0.5882190000000  0.4291520000000  0.4882960000000 1.0
C      1  0.4084970000000  0.4931090000000  0.4570390000000 1.0
C      1  0.4243940000000  0.5464190000000  0.5330220000000 1.0
C      1  0.4608270000000  0.4606680000000  0.5929470000000 1.0
C      1  0.5328350000000  0.5345610000000  0.4808670000000 1.0
C      1  0.6219650000000  0.4821840000000  0.4683280000000 1.0
C      1  0.4699760000000  0.4371240000000  0.4238050000000 1.0
C      1  0.5332630000000  0.5564900000000  0.5068630000000 1.0
C      1  0.4998010000000  0.4589150000000  0.3904030000000 1.0
C      1  0.4955100000000  0.5791030000000  0.5473010000000 1.0
C      1  0.5777180000000  0.5530140000000  0.5474370000000 1.0
C      1  0.4652720000000  0.6052470000000  0.5180290000000 1.0
C      1  0.4852750000000  0.6116540000000  0.4929470000000 1.0
C      1  0.4935270000000  0.5403310000000  0.4836100000000 1.0
C      1  0.5346970000000  0.4496510000000  0.4313520000000 1.0
C      1  0.5773240000000  0.4226910000000  0.4600580000000 1.0
C      1  0.4034460000000  0.5636260000000  0.4914180000000 1.0
C      1  0.5277690000000  0.5534450000000  0.5912790000000 1.0
C      1  0.4403810000000  0.4138240000000  0.5499110000000 1.0
C      1  0.4961520000000  0.5149820000000  0.6415650000000 1.0
C      1  0.5210590000000  0.5622040000000  0.5622720000000 1.0
C      1  0.5088500000000  0.4235500000000  0.5704780000000 1.0
C      1  0.5557750000000  0.5816150000000  0.4855950000000 1.0
C      1  0.5016180000000  0.4826930000000  0.4283060000000 1.0
C      1  0.4575350000000  0.5355220000000  0.5964680000000 1.0
C      1  0.4342180000000  0.5055710000000  0.4673320000000 1.0
C      1  0.5376080000000  0.5205860000000  0.4410370000000 1.0
C      1  0.4271240000000  0.5431190000000  0.5882950000000 1.0
C      1  0.5567910000000  0.4705050000000  0.4192280000000 1.0
C      1  0.5319200000000  0.5898970000000  0.5085770000000 1.0
C      1  0.5672860000000  0.4975420000000  0.5226110000000 1.0
C      1  0.5735170000000  0.4718690000000  0.4465110000000 1.0
C      1  0.5262510000000  0.5863650000000  0.4693690000000 1.0
C      1  0.4272430000000  0.4518540000000  0.4481670000000 1.0
C      1  0.5937640000000  0.4794960000000  0.5585190000000 1.0
C      1  0.4561860000000  0.5926200000000  0.5418440000000 1.0
C      1  0.5091340000000  0.4732170000000  0.5785630000000 1.0
C      1  0.4480680000000  0.4651900000000  0.5149260000000 1.0
C      1  0.5482990000000  0.4961040000000  0.5509140000000 1.0
C      1  0.5475840000000  0.5629000000000  0.4189520000000 1.0
C      1  0.4854140000000  0.5243140000000  0.4435910000000 1.0
C      1  0.5527980000000  0.5208870000000  0.5035800000000 1.0
C      1  0.4677830000000  0.4126150000000  0.4714160000000 1.0
C      1  0.4850870000000  0.5422310000000  0.3921430000000 1.0
C      1  0.5711040000000  0.4856790000000  0.4907280000000 1.0
C      1  0.5487240000000  0.5464040000000  0.4444960000000 1.0
C      1  0.5269210000000  0.4400600000000  0.5180340000000 1.0
C      1  0.4814990000000  0.3963640000000  0.4894810000000 1.0
C      1  0.4943770000000  0.5222640000000  0.5639160000000 1.0
C      1  0.5574730000000  0.4503200000000  0.5753460000000 1.0
C      1  0.4707940000000  0.5122550000000  0.3920090000000 1.0
C      1  0.4250390000000  0.5417480000000  0.5028640000000 1.0
C      1  0.5921440000000  0.5008590000000  0.4737990000000 1.0
C      1  0.4336970000000  0.5357810000000  0.4709170000000 1.0
C      1  0.5406830000000  0.4243870000000  0.5688050000000 1.0
C      1  0.5269230000000  0.4814890000000  0.4089850000000 1.0
C      1  0.5458660000000  0.4655570000000  0.5135480000000 1.0
C      1  0.4211320000000  0.4081410000000  0.4677590000000 1.0
C      1  0.4821590000000  0.4492190000000  0.4787050000000 1.0
C      1  0.4607420000000  0.4456480000000  0.5625010000000 1.0
C      1  0.5634610000000  0.4530110000000  0.4688650000000 1.0
C      1  0.4306870000000  0.5743250000000  0.4804880000000 1.0
C      1  0.4934040000000  0.4843120000000  0.4941960000000 1.0
C      1  0.5553720000000  0.5004780000000  0.4449910000000 1.0
C      1  0.4584760000000  0.5478740000000  0.4053990000000 1.0
C      1  0.4679570000000  0.5189590000000  0.5462590000000 1.0
C      1  0.4175020000000  0.4658970000000  0.4216790000000 1.0
C      1  0.5793360000000  0.4182760000000  0.5148690000000 1.0
C      1  0.5143270000000  0.4457770000000  0.5459600000000 1.0
C      1  0.4571370000000  0.4830320000000  0.4029060000000 1.0
C      1  0.3646660000000  0.4601570000000  0.4919700000000 1.0
C      1  0.5143660000000  0.5365260000000  0.5472710000000 1.0
C      1  0.5676230000000  0.5566460000000  0.4704530000000 1.0
C      1  0.4456160000000  0.4905630000000  0.4957230000000 1.0
C      1  0.4822710000000  0.5870810000000  0.4439780000000 1.0
C      1  0.5098010000000  0.5490620000000  0.4038530000000 1.0
C      1  0.3885220000000  0.5072250000000  0.5353980000000 1.0
C      1  0.5106900000000  0.5537970000000  0.4313970000000 1.0
C      1  0.4768790000000  0.5127100000000  0.4850000000000 1.0
C      1  0.4423140000000  0.4200470000000  0.4826240000000 1.0
C      1  0.4920640000000  0.4913530000000  0.5620420000000 1.0
C      1  0.4581600000000  0.5686190000000  0.4281160000000 1.0
C      1  0.4776570000000  0.4589550000000  0.5110130000000 1.0
C      1  0.5908980000000  0.5275660000000  0.5436260000000 1.0
C      1  0.5574310000000  0.5116090000000  0.5800120000000 1.0
C      1  0.5114770000000  0.6048030000000  0.4911680000000 1.0
C      1  0.6220680000000  0.4868320000000  0.5176680000000 1.0
C      1  0.5872850000000  0.5569440000000  0.4452040000000 1.0
C      1  0.4478020000000  0.5997040000000  0.4892580000000 1.0
C      1  0.4834220000000  0.4430230000000  0.5372070000000 1.0
C      1  0.4361260000000  0.5630210000000  0.4507480000000 1.0
C      1  0.4286560000000  0.4406940000000  0.5519110000000 1.0
C      1  0.5247620000000  0.4527830000000  0.4616010000000 1.0
C      1  0.4728630000000  0.5830500000000  0.5698990000000 1.0
C      1  0.4897200000000  0.5332290000000  0.5915180000000 1.0
C      1  0.4695620000000  0.4119340000000  0.5398710000000 1.0
C      1  0.4361800000000  0.4609570000000  0.4013870000000 1.0
C      1  0.4960680000000  0.4013220000000  0.5530580000000 1.0
C      1  0.4824940000000  0.5663170000000  0.5963290000000 1.0
C      1  0.4700580000000  0.3932410000000  0.5147820000000 1.0
C      1  0.4443510000000  0.4774400000000  0.5456230000000 1.0
C      1  0.3952110000000  0.4795130000000  0.5400250000000 1.0
C      1  0.4495480000000  0.4354000000000  0.4049390000000 1.0
C      1  0.5447130000000  0.4171000000000  0.4521220000000 1.0
C      1  0.4756390000000  0.4688090000000  0.4264640000000 1.0
C      1  0.5762000000000  0.5355920000000  0.4900340000000 1.0
C      1  0.4164770000000  0.4225360000000  0.4450830000000 1.0
C      1  0.4069250000000  0.4421650000000  0.5083240000000 1.0
C      1  0.5176720000000  0.4201410000000  0.4324020000000 1.0
C      1  0.4621150000000  0.5497380000000  0.4779870000000 1.0
C      1  0.4763140000000  0.5541320000000  0.4506550000000 1.0
C      1  0.5312590000000  0.5861030000000  0.4201390000000 1.0
C      1  0.4854430000000  0.4202910000000  0.4433970000000 1.0
C      1  0.5829120000000  0.5722270000000  0.5039670000000 1.0
C      1  0.5318640000000  0.5268910000000  0.3993670000000 1.0
C      1  0.5112250000000  0.5114300000000  0.5052240000000 1.0
C      1  0.4648970000000  0.5030680000000  0.5985940000000 1.0
C      1  0.4682310000000  0.4988830000000  0.5213340000000 1.0
C      1  0.5469830000000  0.4137320000000  0.5146670000000 1.0
C      1  0.5481570000000  0.5786280000000  0.5540080000000 1.0
C      1  0.5778690000000  0.4569150000000  0.5059690000000 1.0
C      1  0.4703570000000  0.4904710000000  0.4600930000000 1.0
C      1  0.5349380000000  0.4676580000000  0.5609000000000 1.0
C      1  0.6085250000000  0.5245120000000  0.4902990000000 1.0
C      1  0.4052350000000  0.4497230000000  0.5359800000000 1.0
C      1  0.5242800000000  0.5929010000000  0.5377710000000 1.0
C      1  0.4762480000000  0.5618590000000  0.5253570000000 1.0
C      1  0.5113240000000  0.5147610000000  0.4236590000000 1.0
C      1  0.5086150000000  0.5637670000000  0.6089350000000 1.0
C      1  0.5463820000000  0.4270870000000  0.4832980000000 1.0
C      1  0.5332370000000  0.5167240000000  0.5306710000000 1.0
C      1  0.6043700000000  0.4737790000000  0.4470700000000 1.0
C      1  0.3781740000000  0.5687110000000  0.4916100000000 1.0
C      1  0.5831790000000  0.4533020000000  0.5593540000000 1.0
C      1  0.5828350000000  0.5106690000000  0.4473230000000 1.0
C      1  0.5537050000000  0.5013270000000  0.4046050000000 1.0
C      1  0.5588640000000  0.5652020000000  0.5245660000000 1.0
C      1  0.5146700000000  0.5559670000000  0.4629860000000 1.0
C      1  0.4635630000000  0.4849360000000  0.5692640000000 1.0
C      1  0.5537600000000  0.5412670000000  0.5891370000000 1.0
C      1  0.5128900000000  0.4572430000000  0.4926750000000 1.0
C      1  0.4045890000000  0.5278870000000  0.5481510000000 1.0
C      1  0.4956990000000  0.5084240000000  0.6119850000000 1.0
C      1  0.4581250000000  0.5696950000000  0.5014800000000 1.0
C      1  0.5852650000000  0.4400240000000  0.5350650000000 1.0
C      1  0.3911160000000  0.4550570000000  0.4883710000000 1.0
C      1  0.4548400000000  0.5458520000000  0.5437730000000 1.0
END
