TITL C-2778434-4341-1032 -0.000449669923607055 125000 -715.213112057232 0 0 124 (C1) n - 1
REM
REM in /home/nfs/bkarasulu/CARBON/AIRSS/Generating-Clusters/REBO/Only-C1/SD-CG/HFTN-CG
REM
REM
REM
REM
REM
REM ./C.cell (11c1c37f851c82e70ff6c80c92926a4b)
REM
REM compiler GCC version 9.2.1 20190827 (Red Hat 9.2.1-1)
REM options -cpp -mtune=generic -march=x86-64 -g -O0 -fpre-include=/usr/include/finclude/math-vector-fortran.h
REM seed 1432992355 -1532968748 432184132 -1581414356 394118243 -666752638 473059392 998451552 -657991313 156144644 58554642 191970823 -1167677978 716245518 -759773345 -1603963074 11559712 -631660266 1258061124 -423323539 166148812 1210287485 1211933799 -260436518 -1293600765 -654412965 1286959827 -151597475 81273321 1567159983 1694207990 1615183655 -197535463
REM
CELL 1.54180   50.00000   50.00000   50.00000   90.00000   90.00000   90.00000
LATT -1
SFAC C  
C      1  0.4176890000000  0.4545640000000  0.4686210000000 1.0
C      1  0.4627900000000  0.5076720000000  0.4404090000000 1.0
C      1  0.4621220000000  0.5514850000000  0.4553050000000 1.0
C      1  0.4488980000000  0.4977180000000  0.5023560000000 1.0
C      1  0.5059380000000  0.5044510000000  0.5497810000000 1.0
C      1  0.5843200000000  0.4708970000000  0.4941370000000 1.0
C      1  0.5002100000000  0.4053260000000  0.5086870000000 1.0
C      1  0.5443370000000  0.5157660000000  0.4554330000000 1.0
C      1  0.4952180000000  0.4588450000000  0.4288400000000 1.0
C      1  0.4807220000000  0.5072280000000  0.5098790000000 1.0
C      1  0.5093330000000  0.5222700000000  0.4991320000000 1.0
C      1  0.4879930000000  0.5756170000000  0.5477620000000 1.0
C      1  0.5727040000000  0.4814080000000  0.4657610000000 1.0
C      1  0.5728720000000  0.5311050000000  0.5555230000000 1.0
C      1  0.5298570000000  0.4407100000000  0.4806950000000 1.0
C      1  0.5232350000000  0.5131030000000  0.4114460000000 1.0
C      1  0.4375740000000  0.5376110000000  0.5430730000000 1.0
C      1  0.4672280000000  0.5775060000000  0.5282980000000 1.0
C      1  0.5601940000000  0.5117640000000  0.5050600000000 1.0
C      1  0.4172020000000  0.5281280000000  0.4470240000000 1.0
C      1  0.4465710000000  0.5689800000000  0.4768240000000 1.0
C      1  0.4037930000000  0.4987480000000  0.5340030000000 1.0
C      1  0.4763420000000  0.4668520000000  0.5613240000000 1.0
C      1  0.5188430000000  0.4893470000000  0.5262790000000 1.0
C      1  0.4984870000000  0.5234120000000  0.4321010000000 1.0
C      1  0.4731810000000  0.4791840000000  0.4663010000000 1.0
C      1  0.5785010000000  0.5531910000000  0.5348560000000 1.0
C      1  0.5403740000000  0.5358730000000  0.5779600000000 1.0
C      1  0.4954950000000  0.3998190000000  0.4767130000000 1.0
C      1  0.5104160000000  0.4927060000000  0.4431330000000 1.0
C      1  0.5110580000000  0.5513960000000  0.4815280000000 1.0
C      1  0.5836140000000  0.5493650000000  0.4715410000000 1.0
C      1  0.4977570000000  0.4589190000000  0.4903160000000 1.0
C      1  0.4535510000000  0.4266140000000  0.5288200000000 1.0
C      1  0.5491730000000  0.5012070000000  0.4259240000000 1.0
C      1  0.5497780000000  0.4746320000000  0.4415240000000 1.0
C      1  0.5428180000000  0.5197330000000  0.5504750000000 1.0
C      1  0.4443820000000  0.5601950000000  0.5251940000000 1.0
C      1  0.4126420000000  0.5184760000000  0.4724660000000 1.0
C      1  0.4674840000000  0.4835560000000  0.5882680000000 1.0
C      1  0.5607820000000  0.4938750000000  0.5264010000000 1.0
C      1  0.4515240000000  0.5088680000000  0.5800800000000 1.0
C      1  0.5487230000000  0.5855700000000  0.5102190000000 1.0
C      1  0.4838560000000  0.5494890000000  0.5669130000000 1.0
C      1  0.5592730000000  0.5438070000000  0.4525010000000 1.0
C      1  0.4530660000000  0.5396450000000  0.5701770000000 1.0
C      1  0.4787860000000  0.5469050000000  0.5054260000000 1.0
C      1  0.4769410000000  0.4831710000000  0.5327350000000 1.0
C      1  0.4349800000000  0.5243240000000  0.4916200000000 1.0
C      1  0.5306690000000  0.4294430000000  0.4500550000000 1.0
C      1  0.5666290000000  0.4525680000000  0.5064080000000 1.0
C      1  0.5125620000000  0.5449970000000  0.5490640000000 1.0
C      1  0.4035690000000  0.4837950000000  0.5078250000000 1.0
C      1  0.4612440000000  0.4593060000000  0.4268720000000 1.0
C      1  0.4380490000000  0.4805190000000  0.5276040000000 1.0
C      1  0.5178910000000  0.5773810000000  0.5024270000000 1.0
C      1  0.4674220000000  0.4056600000000  0.4861160000000 1.0
C      1  0.5020060000000  0.4138040000000  0.5511700000000 1.0
C      1  0.5257900000000  0.5251370000000  0.5993190000000 1.0
C      1  0.4078760000000  0.5276980000000  0.5383950000000 1.0
C      1  0.5286700000000  0.4218850000000  0.5091610000000 1.0
C      1  0.4852380000000  0.4480000000000  0.4602360000000 1.0
C      1  0.4938190000000  0.5455160000000  0.4527120000000 1.0
C      1  0.4992700000000  0.5784370000000  0.4537000000000 1.0
C      1  0.5979860000000  0.4897790000000  0.5125510000000 1.0
C      1  0.4508110000000  0.4543130000000  0.5458390000000 1.0
C      1  0.5132900000000  0.4569240000000  0.5205010000000 1.0
C      1  0.4377350000000  0.5549560000000  0.4986720000000 1.0
C      1  0.5534520000000  0.5754940000000  0.5412530000000 1.0
C      1  0.4437340000000  0.4368960000000  0.4298820000000 1.0
C      1  0.5597950000000  0.4265470000000  0.5026730000000 1.0
C      1  0.5531400000000  0.4917250000000  0.5770610000000 1.0
C      1  0.5012120000000  0.4871740000000  0.4108620000000 1.0
C      1  0.5198420000000  0.5747060000000  0.5354600000000 1.0
C      1  0.5593760000000  0.5590560000000  0.5690600000000 1.0
C      1  0.6050810000000  0.5158360000000  0.5027770000000 1.0
C      1  0.4212220000000  0.4675780000000  0.5542440000000 1.0
C      1  0.4781690000000  0.5780100000000  0.5001850000000 1.0
C      1  0.4455820000000  0.5351780000000  0.4344470000000 1.0
C      1  0.4700350000000  0.5240110000000  0.4133590000000 1.0
C      1  0.5039740000000  0.4196460000000  0.4588070000000 1.0
C      1  0.4590820000000  0.4293340000000  0.4720020000000 1.0
C      1  0.5283140000000  0.4507880000000  0.4300490000000 1.0
C      1  0.4740030000000  0.4574390000000  0.5135650000000 1.0
C      1  0.5798400000000  0.5390990000000  0.5038630000000 1.0
C      1  0.4464550000000  0.4810980000000  0.4767780000000 1.0
C      1  0.5039810000000  0.5093650000000  0.5973310000000 1.0
C      1  0.5593500000000  0.5687950000000  0.4833740000000 1.0
C      1  0.5861970000000  0.4901740000000  0.5420980000000 1.0
C      1  0.5279130000000  0.5469800000000  0.4139140000000 1.0
C      1  0.4243470000000  0.4801700000000  0.4540600000000 1.0
C      1  0.4910440000000  0.3976680000000  0.5698600000000 1.0
C      1  0.5204900000000  0.5671220000000  0.4323540000000 1.0
C      1  0.5473410000000  0.5514150000000  0.5099290000000 1.0
C      1  0.5266440000000  0.4807200000000  0.5644620000000 1.0
C      1  0.4927830000000  0.4335860000000  0.5258900000000 1.0
C      1  0.5480860000000  0.4983560000000  0.4813220000000 1.0
C      1  0.4891360000000  0.5294020000000  0.5327300000000 1.0
C      1  0.5209690000000  0.4842560000000  0.4929660000000 1.0
C      1  0.5327970000000  0.4511580000000  0.5548920000000 1.0
C      1  0.5352780000000  0.5634100000000  0.4616070000000 1.0
C      1  0.5282870000000  0.4272340000000  0.5425060000000 1.0
C      1  0.5000860000000  0.4807040000000  0.5813610000000 1.0
C      1  0.4659430000000  0.5319380000000  0.4822110000000 1.0
C      1  0.5796090000000  0.4923090000000  0.5695890000000 1.0
C      1  0.4541720000000  0.5078870000000  0.5403700000000 1.0
C      1  0.5288650000000  0.5316310000000  0.5225410000000 1.0
C      1  0.4430660000000  0.4469550000000  0.5074290000000 1.0
C      1  0.3948560000000  0.5000620000000  0.4850180000000 1.0
C      1  0.5450060000000  0.4679100000000  0.5208850000000 1.0
C      1  0.4666540000000  0.4050600000000  0.5166890000000 1.0
C      1  0.5140080000000  0.5142820000000  0.4677790000000 1.0
C      1  0.4266090000000  0.5000350000000  0.5600910000000 1.0
C      1  0.5551470000000  0.5341060000000  0.4219520000000 1.0
C      1  0.5254030000000  0.4703730000000  0.4641680000000 1.0
C      1  0.5948440000000  0.5022920000000  0.4569810000000 1.0
C      1  0.4842280000000  0.5163190000000  0.5727360000000 1.0
C      1  0.4348460000000  0.4333400000000  0.4573420000000 1.0
C      1  0.4191440000000  0.4594300000000  0.4978600000000 1.0
C      1  0.6010680000000  0.5231850000000  0.4739550000000 1.0
C      1  0.4969100000000  0.5887000000000  0.4794800000000 1.0
C      1  0.4480990000000  0.4827820000000  0.4354710000000 1.0
C      1  0.4822590000000  0.5095900000000  0.4658770000000 1.0
C      1  0.4790760000000  0.5005290000000  0.3971270000000 1.0
END
