TITL C-2778425-5191-1080 0.000908164461400779 125000 -706.729351856007 0 0 119 (C1) n - 1
REM
REM in /home/nfs/bkarasulu/CARBON/AIRSS/Generating-Clusters/REBO/Only-C1/SD-CG/HFTN-CG
REM
REM
REM
REM
REM
REM ./C.cell (11c1c37f851c82e70ff6c80c92926a4b)
REM
REM compiler GCC version 9.2.1 20190827 (Red Hat 9.2.1-1)
REM options -cpp -mtune=generic -march=x86-64 -g -O0 -fpre-include=/usr/include/finclude/math-vector-fortran.h
REM seed -1974643285 -467965200 -2129090048 2083530210 1265032722 1680971209 -1850240995 -337750447 1948134715 1950464140 1315111488 -920304693 1435779624 99634830 433764199 742648925 610657447 -1718407406 -1122680995 898820551 -707933083 -729985995 1930178061 -1277702070 -1584360974 739882084 763262752 52114200 2135049635 1096251971 -1832037900 -850605526 -1045313494
REM
CELL 1.54180   50.00000   50.00000   50.00000   90.00000   90.00000   90.00000
LATT -1
SFAC C  
C      1  0.4026370000000  0.5049280000000  0.5189450000000 1.0
C      1  0.4806710000000  0.4876870000000  0.4366320000000 1.0
C      1  0.4990170000000  0.5690070000000  0.5243520000000 1.0
C      1  0.5241050000000  0.4646520000000  0.4457260000000 1.0
C      1  0.5917660000000  0.5370020000000  0.5320610000000 1.0
C      1  0.4300990000000  0.4662730000000  0.5724650000000 1.0
C      1  0.4916990000000  0.5148120000000  0.5419090000000 1.0
C      1  0.5879910000000  0.5058820000000  0.4673830000000 1.0
C      1  0.4660990000000  0.5030080000000  0.5597550000000 1.0
C      1  0.4949250000000  0.4824160000000  0.5412950000000 1.0
C      1  0.5236880000000  0.5905450000000  0.4871240000000 1.0
C      1  0.5794950000000  0.5443570000000  0.5041310000000 1.0
C      1  0.4782110000000  0.5758270000000  0.4792420000000 1.0
C      1  0.4405630000000  0.5122290000000  0.5292390000000 1.0
C      1  0.4456220000000  0.4882080000000  0.4182320000000 1.0
C      1  0.4503720000000  0.4677420000000  0.4733890000000 1.0
C      1  0.5293880000000  0.4173200000000  0.4460540000000 1.0
C      1  0.4055350000000  0.5313780000000  0.5297050000000 1.0
C      1  0.4658670000000  0.5462060000000  0.4369170000000 1.0
C      1  0.4938940000000  0.5630830000000  0.5775250000000 1.0
C      1  0.5534680000000  0.4978680000000  0.5417300000000 1.0
C      1  0.5969140000000  0.5353920000000  0.4600460000000 1.0
C      1  0.5253410000000  0.4221290000000  0.5249460000000 1.0
C      1  0.5432690000000  0.5617400000000  0.5314430000000 1.0
C      1  0.5384840000000  0.4945490000000  0.5785240000000 1.0
C      1  0.4735260000000  0.5050430000000  0.4080620000000 1.0
C      1  0.4554990000000  0.4299620000000  0.5498360000000 1.0
C      1  0.4302930000000  0.4443080000000  0.5531320000000 1.0
C      1  0.4143000000000  0.4568630000000  0.5304820000000 1.0
C      1  0.5441860000000  0.5715920000000  0.4843150000000 1.0
C      1  0.5438930000000  0.5574590000000  0.4160860000000 1.0
C      1  0.4931010000000  0.4983120000000  0.4730920000000 1.0
C      1  0.4297390000000  0.5392160000000  0.5466520000000 1.0
C      1  0.5674820000000  0.5170830000000  0.4921610000000 1.0
C      1  0.4009580000000  0.5178640000000  0.4665970000000 1.0
C      1  0.4810790000000  0.4450920000000  0.5623200000000 1.0
C      1  0.5485580000000  0.5744710000000  0.3967050000000 1.0
C      1  0.5332040000000  0.5104890000000  0.4315130000000 1.0
C      1  0.4508880000000  0.5745130000000  0.4903480000000 1.0
C      1  0.3919980000000  0.4995080000000  0.4463740000000 1.0
C      1  0.5701230000000  0.4899560000000  0.4029440000000 1.0
C      1  0.4692540000000  0.4731910000000  0.5745230000000 1.0
C      1  0.4453220000000  0.5463290000000  0.5700000000000 1.0
C      1  0.4831340000000  0.5488710000000  0.4629590000000 1.0
C      1  0.5156690000000  0.5042930000000  0.5053160000000 1.0
C      1  0.4604700000000  0.5607250000000  0.5180940000000 1.0
C      1  0.4986450000000  0.4497010000000  0.4726030000000 1.0
C      1  0.5570870000000  0.5640530000000  0.5079280000000 1.0
C      1  0.5048330000000  0.5381150000000  0.5860930000000 1.0
C      1  0.5430130000000  0.4253260000000  0.4986830000000 1.0
C      1  0.5245070000000  0.5111190000000  0.5357510000000 1.0
C      1  0.5441330000000  0.4691160000000  0.5286080000000 1.0
C      1  0.5430270000000  0.4442460000000  0.4481700000000 1.0
C      1  0.4108690000000  0.4996230000000  0.4894250000000 1.0
C      1  0.5201080000000  0.4255790000000  0.4750490000000 1.0
C      1  0.4334820000000  0.4946010000000  0.5576290000000 1.0
C      1  0.5432980000000  0.5359320000000  0.5484340000000 1.0
C      1  0.5594310000000  0.4945800000000  0.4264890000000 1.0
C      1  0.5803440000000  0.4523930000000  0.5214880000000 1.0
C      1  0.5998770000000  0.4800780000000  0.5217340000000 1.0
C      1  0.5343890000000  0.5204130000000  0.4846130000000 1.0
C      1  0.4899460000000  0.4354560000000  0.4230510000000 1.0
C      1  0.4198290000000  0.5389790000000  0.4632970000000 1.0
C      1  0.5106730000000  0.5327000000000  0.4628340000000 1.0
C      1  0.5023360000000  0.4747470000000  0.4937830000000 1.0
C      1  0.4392030000000  0.5135870000000  0.4952130000000 1.0
C      1  0.5671130000000  0.4527280000000  0.4619400000000 1.0
C      1  0.5391490000000  0.5401610000000  0.4357920000000 1.0
C      1  0.4929390000000  0.4610660000000  0.4410580000000 1.0
C      1  0.5073440000000  0.5044080000000  0.4119610000000 1.0
C      1  0.4683930000000  0.4387070000000  0.4763630000000 1.0
C      1  0.4705500000000  0.4696920000000  0.5011810000000 1.0
C      1  0.4732480000000  0.5372140000000  0.4117030000000 1.0
C      1  0.4498360000000  0.4428280000000  0.5041630000000 1.0
C      1  0.4695810000000  0.5393030000000  0.4926830000000 1.0
C      1  0.5784260000000  0.4754170000000  0.5477410000000 1.0
C      1  0.4781590000000  0.4156590000000  0.4998460000000 1.0
C      1  0.6141190000000  0.4927790000000  0.4781680000000 1.0
C      1  0.4827760000000  0.5124650000000  0.5015720000000 1.0
C      1  0.4925710000000  0.4895870000000  0.5869470000000 1.0
C      1  0.4636620000000  0.5683810000000  0.5683500000000 1.0
C      1  0.4178050000000  0.4702890000000  0.4773350000000 1.0
C      1  0.5969280000000  0.5520200000000  0.4792270000000 1.0
C      1  0.5671610000000  0.4435590000000  0.4936150000000 1.0
C      1  0.4595350000000  0.4986070000000  0.4722910000000 1.0
C      1  0.4989200000000  0.5823330000000  0.4980770000000 1.0
C      1  0.4857490000000  0.5411870000000  0.5288780000000 1.0
C      1  0.5148080000000  0.4679210000000  0.5308790000000 1.0
C      1  0.4949960000000  0.5187190000000  0.4393410000000 1.0
C      1  0.4638690000000  0.4943690000000  0.5197140000000 1.0
C      1  0.4384930000000  0.5361400000000  0.4427860000000 1.0
C      1  0.4579360000000  0.5242750000000  0.5822710000000 1.0
C      1  0.4649080000000  0.5814040000000  0.5409690000000 1.0
C      1  0.5602850000000  0.4466630000000  0.5483910000000 1.0
C      1  0.5124410000000  0.4497870000000  0.5663780000000 1.0
C      1  0.5307590000000  0.4361150000000  0.5490660000000 1.0
C      1  0.5085960000000  0.4151990000000  0.4265320000000 1.0
C      1  0.5056220000000  0.4141220000000  0.5021300000000 1.0
C      1  0.4360590000000  0.5453760000000  0.4888070000000 1.0
C      1  0.5757820000000  0.5288780000000  0.5523040000000 1.0
C      1  0.5313970000000  0.5279470000000  0.5785680000000 1.0
C      1  0.5453720000000  0.4839270000000  0.4732870000000 1.0
C      1  0.4598420000000  0.4209340000000  0.5239290000000 1.0
C      1  0.6205570000000  0.4840360000000  0.5006260000000 1.0
C      1  0.5173110000000  0.4764330000000  0.5796720000000 1.0
C      1  0.5705490000000  0.4853180000000  0.4534450000000 1.0
C      1  0.4967720000000  0.5829850000000  0.5518930000000 1.0
C      1  0.4537700000000  0.5085730000000  0.4425950000000 1.0
C      1  0.5710200000000  0.4945390000000  0.5136850000000 1.0
C      1  0.5539810000000  0.4720460000000  0.4987940000000 1.0
C      1  0.4253190000000  0.4715470000000  0.4250030000000 1.0
C      1  0.5207700000000  0.4944780000000  0.4574450000000 1.0
C      1  0.4070900000000  0.4747290000000  0.4469630000000 1.0
C      1  0.5630900000000  0.5154330000000  0.5762140000000 1.0
C      1  0.4860530000000  0.5173000000000  0.5912390000000 1.0
C      1  0.5391500000000  0.5485610000000  0.4662460000000 1.0
C      1  0.4660970000000  0.4678460000000  0.5408890000000 1.0
C      1  0.4217120000000  0.4515130000000  0.5034910000000 1.0
C      1  0.4108000000000  0.4847680000000  0.5364050000000 1.0
END
