TITL C-2778423-5760-1258 0.000146848148674551 125000 -447.327765554579 0 0 77 (C1) n - 1
REM
REM in /home/nfs/bkarasulu/CARBON/AIRSS/Generating-Clusters/REBO/Only-C1/SD-CG/HFTN-CG
REM
REM
REM
REM
REM
REM ./C.cell (11c1c37f851c82e70ff6c80c92926a4b)
REM
REM compiler GCC version 9.2.1 20190827 (Red Hat 9.2.1-1)
REM options -cpp -mtune=generic -march=x86-64 -g -O0 -fpre-include=/usr/include/finclude/math-vector-fortran.h
REM seed -405097355 1898396850 -499964311 -2114521470 -96328317 -1986622047 -930199697 -692339350 100970459 2124555967 -756478709 1673806432 1541425234 -691536158 -78459584 -763047131 -1516755827 -882800600 498895177 625782040 -420923985 1910196317 911274149 -638609510 408878504 1684988298 -703881770 -29487996 -1217019777 -1354445635 -768768700 -1559602859 -288072059
REM
CELL 1.54180   50.00000   50.00000   50.00000   90.00000   90.00000   90.00000
LATT -1
SFAC C  
C      1  0.4480580000000  0.4943200000000  0.4772210000000 1.0
C      1  0.5144660000000  0.4383080000000  0.5606370000000 1.0
C      1  0.5348740000000  0.5347870000000  0.5720670000000 1.0
C      1  0.4587820000000  0.4808950000000  0.5409030000000 1.0
C      1  0.5401770000000  0.4812480000000  0.5718600000000 1.0
C      1  0.5058640000000  0.4806950000000  0.4161500000000 1.0
C      1  0.4710650000000  0.5665140000000  0.4515650000000 1.0
C      1  0.5139330000000  0.5227720000000  0.5862990000000 1.0
C      1  0.4851750000000  0.5480430000000  0.4910680000000 1.0
C      1  0.5080730000000  0.5050650000000  0.4621180000000 1.0
C      1  0.5336700000000  0.5026270000000  0.4987930000000 1.0
C      1  0.5133060000000  0.5291540000000  0.4933490000000 1.0
C      1  0.5185550000000  0.4881800000000  0.5465090000000 1.0
C      1  0.4849200000000  0.5070680000000  0.4376400000000 1.0
C      1  0.5049620000000  0.4095350000000  0.5446790000000 1.0
C      1  0.4466140000000  0.4630830000000  0.4862330000000 1.0
C      1  0.4531690000000  0.4594340000000  0.5189820000000 1.0
C      1  0.5023750000000  0.4934340000000  0.5754070000000 1.0
C      1  0.4639700000000  0.5282700000000  0.5586640000000 1.0
C      1  0.5283090000000  0.4717110000000  0.4387720000000 1.0
C      1  0.5040620000000  0.5769920000000  0.4917180000000 1.0
C      1  0.5357880000000  0.5379400000000  0.5437410000000 1.0
C      1  0.4800590000000  0.5714140000000  0.5149660000000 1.0
C      1  0.5275310000000  0.4482480000000  0.5143450000000 1.0
C      1  0.4365700000000  0.5121640000000  0.5519540000000 1.0
C      1  0.4771140000000  0.5053230000000  0.4767420000000 1.0
C      1  0.5009830000000  0.4832300000000  0.4867560000000 1.0
C      1  0.4117460000000  0.5574800000000  0.5250420000000 1.0
C      1  0.5148130000000  0.4630120000000  0.5773430000000 1.0
C      1  0.5019110000000  0.5691620000000  0.4616310000000 1.0
C      1  0.5050840000000  0.4627980000000  0.4620750000000 1.0
C      1  0.4938380000000  0.5209280000000  0.5190910000000 1.0
C      1  0.4869500000000  0.5344950000000  0.4086950000000 1.0
C      1  0.4967160000000  0.3987560000000  0.5186560000000 1.0
C      1  0.5412390000000  0.5080210000000  0.4579110000000 1.0
C      1  0.5317140000000  0.5505790000000  0.4805860000000 1.0
C      1  0.5279000000000  0.5634890000000  0.5337290000000 1.0
C      1  0.4820900000000  0.5197790000000  0.5815760000000 1.0
C      1  0.4373120000000  0.4879300000000  0.5080390000000 1.0
C      1  0.5334320000000  0.5728930000000  0.5049570000000 1.0
C      1  0.4630340000000  0.5348280000000  0.4757010000000 1.0
C      1  0.5561940000000  0.4923340000000  0.4804460000000 1.0
C      1  0.4724060000000  0.5050320000000  0.5359070000000 1.0
C      1  0.4677310000000  0.4198550000000  0.4795290000000 1.0
C      1  0.5378780000000  0.4402510000000  0.5393340000000 1.0
C      1  0.5309260000000  0.4327510000000  0.4913870000000 1.0
C      1  0.4778850000000  0.4573840000000  0.4495240000000 1.0
C      1  0.5274620000000  0.5039050000000  0.4273620000000 1.0
C      1  0.5641350000000  0.4508810000000  0.5441070000000 1.0
C      1  0.5524140000000  0.5366730000000  0.4589390000000 1.0
C      1  0.4789960000000  0.5443660000000  0.5356460000000 1.0
C      1  0.5704230000000  0.4661310000000  0.4659780000000 1.0
C      1  0.5240300000000  0.5139120000000  0.5286010000000 1.0
C      1  0.5520600000000  0.4528670000000  0.4498670000000 1.0
C      1  0.5279950000000  0.5547030000000  0.4465130000000 1.0
C      1  0.4290070000000  0.5158730000000  0.4667870000000 1.0
C      1  0.4519720000000  0.5429290000000  0.4445700000000 1.0
C      1  0.4295470000000  0.5122430000000  0.5242570000000 1.0
C      1  0.5787660000000  0.4583860000000  0.5209580000000 1.0
C      1  0.5155030000000  0.5321440000000  0.4248560000000 1.0
C      1  0.4837170000000  0.4329090000000  0.5484910000000 1.0
C      1  0.5172220000000  0.4772220000000  0.5143250000000 1.0
C      1  0.5634800000000  0.5707620000000  0.4940730000000 1.0
C      1  0.5283990000000  0.4419080000000  0.4651440000000 1.0
C      1  0.4230110000000  0.5367670000000  0.5114610000000 1.0
C      1  0.4380910000000  0.4836760000000  0.5632480000000 1.0
C      1  0.4781860000000  0.4769340000000  0.4282770000000 1.0
C      1  0.4309090000000  0.5392300000000  0.4842950000000 1.0
C      1  0.4673600000000  0.4344960000000  0.5255690000000 1.0
C      1  0.4915840000000  0.5391790000000  0.4480840000000 1.0
C      1  0.4755740000000  0.4147490000000  0.5062220000000 1.0
C      1  0.4604240000000  0.4446020000000  0.4676970000000 1.0
C      1  0.4625460000000  0.5269100000000  0.4237200000000 1.0
C      1  0.5718180000000  0.5546910000000  0.4766780000000 1.0
C      1  0.5005210000000  0.5694800000000  0.5410940000000 1.0
C      1  0.5647360000000  0.4686210000000  0.5663650000000 1.0
C      1  0.5768910000000  0.4706460000000  0.4965140000000 1.0
END
