TITL C-2778433-5640-23 0.00548303895802678 125000 -923.380146625326 0 0 159 (C1) n - 1
REM
REM in /home/nfs/bkarasulu/CARBON/AIRSS/Generating-Clusters/REBO/Only-C1/SD-CG/HFTN-CG
REM
REM
REM
REM
REM
REM ./C.cell (11c1c37f851c82e70ff6c80c92926a4b)
REM
REM compiler GCC version 9.2.1 20190827 (Red Hat 9.2.1-1)
REM options -cpp -mtune=generic -march=x86-64 -g -O0 -fpre-include=/usr/include/finclude/math-vector-fortran.h
REM seed 2139891829 1599812485 -764558419 598873238 -42432179 -258716895 696490769 101835412 -595428818 -2139192259 -539638529 250991013 2050915971 -1539197859 1209777550 -617550421 -1868923196 -931241607 -2070339167 -850498004 1980854194 -1997135463 -1125756017 -200317465 1558750947 1160260946 1456108506 -1949688698 1506098027 1493239151 1967739524 -668536935 1432137735
REM
CELL 1.54180   50.00000   50.00000   50.00000   90.00000   90.00000   90.00000
LATT -1
SFAC C  
C      1  0.4222240000000  0.4796660000000  0.5696390000000 1.0
C      1  0.4460220000000  0.4534330000000  0.5319890000000 1.0
C      1  0.5711860000000  0.5149190000000  0.5358060000000 1.0
C      1  0.4509220000000  0.5062490000000  0.5821360000000 1.0
C      1  0.5115090000000  0.4045940000000  0.4760270000000 1.0
C      1  0.4670210000000  0.4525170000000  0.4084310000000 1.0
C      1  0.4608130000000  0.4306500000000  0.4244070000000 1.0
C      1  0.4905170000000  0.5511380000000  0.4075280000000 1.0
C      1  0.5260540000000  0.5366590000000  0.5706860000000 1.0
C      1  0.5577620000000  0.4928090000000  0.5526400000000 1.0
C      1  0.5639840000000  0.4535070000000  0.4362090000000 1.0
C      1  0.4618650000000  0.5184030000000  0.5160950000000 1.0
C      1  0.5088340000000  0.5395080000000  0.4922880000000 1.0
C      1  0.4887190000000  0.4051980000000  0.4993390000000 1.0
C      1  0.5591300000000  0.5364280000000  0.5786390000000 1.0
C      1  0.5224980000000  0.4883400000000  0.5898680000000 1.0
C      1  0.5356220000000  0.4675620000000  0.4994970000000 1.0
C      1  0.5653620000000  0.5630920000000  0.4351290000000 1.0
C      1  0.5471690000000  0.4878520000000  0.4675920000000 1.0
C      1  0.5607110000000  0.4072700000000  0.4669330000000 1.0
C      1  0.5530620000000  0.4243300000000  0.5586060000000 1.0
C      1  0.4000470000000  0.4957280000000  0.5531110000000 1.0
C      1  0.5357960000000  0.4942030000000  0.3986340000000 1.0
C      1  0.4322580000000  0.5561140000000  0.4489580000000 1.0
C      1  0.4125220000000  0.4972500000000  0.4796210000000 1.0
C      1  0.4117630000000  0.5374440000000  0.5245840000000 1.0
C      1  0.5022930000000  0.4934720000000  0.4064930000000 1.0
C      1  0.5248490000000  0.5744140000000  0.5865920000000 1.0
C      1  0.5001920000000  0.4808490000000  0.5577530000000 1.0
C      1  0.5889210000000  0.5398300000000  0.4683490000000 1.0
C      1  0.5221450000000  0.5467940000000  0.4440230000000 1.0
C      1  0.4716390000000  0.4177270000000  0.4468480000000 1.0
C      1  0.5281920000000  0.4287380000000  0.5183780000000 1.0
C      1  0.4359120000000  0.5934100000000  0.4681860000000 1.0
C      1  0.4890400000000  0.5846200000000  0.4559860000000 1.0
C      1  0.5958010000000  0.4735280000000  0.4893930000000 1.0
C      1  0.4781430000000  0.5414110000000  0.5056250000000 1.0
C      1  0.5107170000000  0.5201720000000  0.5876640000000 1.0
C      1  0.5313700000000  0.5914590000000  0.5371730000000 1.0
C      1  0.4064370000000  0.4882090000000  0.5241720000000 1.0
C      1  0.5532710000000  0.4505780000000  0.5714000000000 1.0
C      1  0.5441780000000  0.4879210000000  0.4368930000000 1.0
C      1  0.5101510000000  0.5319640000000  0.4002620000000 1.0
C      1  0.5198940000000  0.5158920000000  0.3787160000000 1.0
C      1  0.5373760000000  0.3961060000000  0.4762790000000 1.0
C      1  0.5544410000000  0.4214700000000  0.5117150000000 1.0
C      1  0.5639000000000  0.5106760000000  0.4948030000000 1.0
C      1  0.5258510000000  0.5230230000000  0.5167480000000 1.0
C      1  0.4346350000000  0.4980590000000  0.5128010000000 1.0
C      1  0.4217320000000  0.4729350000000  0.4457960000000 1.0
C      1  0.5319450000000  0.4466360000000  0.4757590000000 1.0
C      1  0.4727600000000  0.5113550000000  0.4595140000000 1.0
C      1  0.5787050000000  0.4695630000000  0.5591320000000 1.0
C      1  0.5480100000000  0.5047600000000  0.5793260000000 1.0
C      1  0.5542850000000  0.5767630000000  0.4564580000000 1.0
C      1  0.4407500000000  0.5285700000000  0.5372960000000 1.0
C      1  0.5079180000000  0.4334980000000  0.5708050000000 1.0
C      1  0.4406190000000  0.4591400000000  0.5766280000000 1.0
C      1  0.4530340000000  0.4556890000000  0.4739950000000 1.0
C      1  0.5100700000000  0.5074120000000  0.5387340000000 1.0
C      1  0.4739750000000  0.5414180000000  0.4730420000000 1.0
C      1  0.5767520000000  0.4403150000000  0.5009150000000 1.0
C      1  0.4479260000000  0.4797440000000  0.4303700000000 1.0
C      1  0.4786960000000  0.4105610000000  0.5317320000000 1.0
C      1  0.4724640000000  0.4402630000000  0.5216790000000 1.0
C      1  0.4893210000000  0.4548010000000  0.5425960000000 1.0
C      1  0.4589710000000  0.5484820000000  0.5538930000000 1.0
C      1  0.4858980000000  0.5307230000000  0.5462000000000 1.0
C      1  0.4772190000000  0.5025760000000  0.5604820000000 1.0
C      1  0.4943010000000  0.4483400000000  0.4369060000000 1.0
C      1  0.5847090000000  0.5487730000000  0.5013030000000 1.0
C      1  0.6020500000000  0.5033100000000  0.5282870000000 1.0
C      1  0.4136710000000  0.5379750000000  0.4703000000000 1.0
C      1  0.5718340000000  0.5318350000000  0.4397030000000 1.0
C      1  0.4920370000000  0.4766130000000  0.4625170000000 1.0
C      1  0.4808020000000  0.5718770000000  0.5199460000000 1.0
C      1  0.4775930000000  0.5835360000000  0.5499460000000 1.0
C      1  0.5552130000000  0.5133220000000  0.4199280000000 1.0
C      1  0.5098420000000  0.4046700000000  0.5268700000000 1.0
C      1  0.4742850000000  0.4549260000000  0.5733090000000 1.0
C      1  0.5874670000000  0.4505940000000  0.5322930000000 1.0
C      1  0.5255480000000  0.4565540000000  0.5796360000000 1.0
C      1  0.4463180000000  0.5747330000000  0.5392020000000 1.0
C      1  0.4598720000000  0.5930070000000  0.4607450000000 1.0
C      1  0.5354070000000  0.5443140000000  0.4711360000000 1.0
C      1  0.5073810000000  0.5725540000000  0.4818090000000 1.0
C      1  0.5783350000000  0.5541180000000  0.5345560000000 1.0
C      1  0.5780680000000  0.4845980000000  0.4427530000000 1.0
C      1  0.5909680000000  0.5064020000000  0.4657930000000 1.0
C      1  0.4258360000000  0.5243920000000  0.4402430000000 1.0
C      1  0.4192250000000  0.4517850000000  0.4723710000000 1.0
C      1  0.4388290000000  0.5024210000000  0.5521630000000 1.0
C      1  0.5330960000000  0.4400510000000  0.4438420000000 1.0
C      1  0.5645300000000  0.4395790000000  0.4684990000000 1.0
C      1  0.4098980000000  0.5001070000000  0.4504150000000 1.0
C      1  0.4234260000000  0.5341780000000  0.5746500000000 1.0
C      1  0.4640330000000  0.4155190000000  0.4779370000000 1.0
C      1  0.4031640000000  0.5230110000000  0.4988380000000 1.0
C      1  0.4054540000000  0.5248600000000  0.5553550000000 1.0
C      1  0.5650810000000  0.5688000000000  0.4818020000000 1.0
C      1  0.4686680000000  0.4866750000000  0.4054960000000 1.0
C      1  0.5747800000000  0.4703780000000  0.4715600000000 1.0
C      1  0.5291720000000  0.5042700000000  0.4910940000000 1.0
C      1  0.4466970000000  0.5627990000000  0.4226020000000 1.0
C      1  0.4600930000000  0.4817630000000  0.5383940000000 1.0
C      1  0.5138920000000  0.5462300000000  0.5470450000000 1.0
C      1  0.4836530000000  0.5236950000000  0.5960700000000 1.0
C      1  0.5561140000000  0.4673390000000  0.4055350000000 1.0
C      1  0.5946240000000  0.5161140000000  0.4987590000000 1.0
C      1  0.4995720000000  0.4615460000000  0.4082320000000 1.0
C      1  0.5020280000000  0.4556820000000  0.4832770000000 1.0
C      1  0.4695240000000  0.4907210000000  0.4834820000000 1.0
C      1  0.4905540000000  0.5424580000000  0.4462670000000 1.0
C      1  0.5335140000000  0.4831250000000  0.5360940000000 1.0
C      1  0.5055080000000  0.5729570000000  0.4289660000000 1.0
C      1  0.5253810000000  0.4148340000000  0.5555310000000 1.0
C      1  0.5566350000000  0.5761740000000  0.5488220000000 1.0
C      1  0.5008690000000  0.5839780000000  0.5749310000000 1.0
C      1  0.5005370000000  0.5864460000000  0.5055580000000 1.0
C      1  0.5041740000000  0.4737790000000  0.5107330000000 1.0
C      1  0.5710650000000  0.4233670000000  0.5364790000000 1.0
C      1  0.5570440000000  0.4855910000000  0.5127870000000 1.0
C      1  0.5051470000000  0.4219100000000  0.4516810000000 1.0
C      1  0.5033530000000  0.5126190000000  0.4747790000000 1.0
C      1  0.5506840000000  0.5674200000000  0.5758410000000 1.0
C      1  0.4334890000000  0.4232300000000  0.4846770000000 1.0
C      1  0.5069920000000  0.6011320000000  0.5494310000000 1.0
C      1  0.4512180000000  0.5708690000000  0.5054440000000 1.0
C      1  0.4732560000000  0.4952170000000  0.6032210000000 1.0
C      1  0.5198530000000  0.4544900000000  0.5332670000000 1.0
C      1  0.4206530000000  0.5668390000000  0.5179240000000 1.0
C      1  0.4917710000000  0.4749960000000  0.5905230000000 1.0
C      1  0.5080370000000  0.4990920000000  0.4456340000000 1.0
C      1  0.4767030000000  0.4226780000000  0.5624690000000 1.0
C      1  0.5540300000000  0.5213280000000  0.4652600000000 1.0
C      1  0.5962380000000  0.4988850000000  0.5616020000000 1.0
C      1  0.4627580000000  0.5427590000000  0.4120100000000 1.0
C      1  0.4227500000000  0.4409000000000  0.5105730000000 1.0
C      1  0.4212650000000  0.4231130000000  0.5383200000000 1.0
C      1  0.4556830000000  0.5394830000000  0.5845630000000 1.0
C      1  0.4394590000000  0.4830970000000  0.4861750000000 1.0
C      1  0.4755010000000  0.4422930000000  0.4925030000000 1.0
C      1  0.5253310000000  0.5638140000000  0.5272120000000 1.0
C      1  0.3857630000000  0.4933960000000  0.4988820000000 1.0
C      1  0.5872380000000  0.4776180000000  0.5161320000000 1.0
C      1  0.4666090000000  0.4627410000000  0.4475470000000 1.0
C      1  0.5855770000000  0.5315810000000  0.5596920000000 1.0
C      1  0.5431850000000  0.5571040000000  0.5017980000000 1.0
C      1  0.4858750000000  0.5145420000000  0.4278930000000 1.0
C      1  0.4179020000000  0.5691440000000  0.4839180000000 1.0
C      1  0.5244400000000  0.5846990000000  0.4553310000000 1.0
C      1  0.4451400000000  0.4321990000000  0.5587050000000 1.0
C      1  0.5528350000000  0.5353900000000  0.5235670000000 1.0
C      1  0.4489480000000  0.5120570000000  0.4182860000000 1.0
C      1  0.4498040000000  0.5571370000000  0.4767460000000 1.0
C      1  0.4798460000000  0.4900960000000  0.5134710000000 1.0
C      1  0.5279500000000  0.4636390000000  0.4231130000000 1.0
C      1  0.4035920000000  0.4641420000000  0.5000260000000 1.0
C      1  0.5249860000000  0.5212880000000  0.4260240000000 1.0
END
