TITL C-2778434-4341-1136 0.00782608942747062 125000 -1065.97894351244 0 0 181 (C1) n - 1
REM
REM in /home/nfs/bkarasulu/CARBON/AIRSS/Generating-Clusters/REBO/Only-C1/SD-CG/HFTN-CG
REM
REM
REM
REM
REM
REM ./C.cell (11c1c37f851c82e70ff6c80c92926a4b)
REM
REM compiler GCC version 9.2.1 20190827 (Red Hat 9.2.1-1)
REM options -cpp -mtune=generic -march=x86-64 -g -O0 -fpre-include=/usr/include/finclude/math-vector-fortran.h
REM seed -989409032 -513047275 2017044381 544692520 1936099329 -414102211 -1813137134 560534079 -924012558 1378779365 -1812693922 18794627 266960863 -379946842 -1614150851 -1803168039 1105774432 -407822637 -944175218 -487153616 -1196079973 2008771202 1066220314 954878024 -110013563 -1905845617 1515740869 -486959364 1576451284 -367272060 -1670444024 1498009481 1429559334
REM
CELL 1.54180   50.00000   50.00000   50.00000   90.00000   90.00000   90.00000
LATT -1
SFAC C  
C      1  0.5096380000000  0.5918280000000  0.5054010000000 1.0
C      1  0.4295520000000  0.4232130000000  0.5297750000000 1.0
C      1  0.4753760000000  0.4045210000000  0.4658430000000 1.0
C      1  0.5624580000000  0.5013880000000  0.5854820000000 1.0
C      1  0.4862110000000  0.4751220000000  0.5826560000000 1.0
C      1  0.4454760000000  0.5998110000000  0.4902520000000 1.0
C      1  0.5269440000000  0.4614610000000  0.4272570000000 1.0
C      1  0.5925670000000  0.4244260000000  0.4406450000000 1.0
C      1  0.5200150000000  0.5375520000000  0.5959670000000 1.0
C      1  0.5117470000000  0.4238970000000  0.5814670000000 1.0
C      1  0.5056990000000  0.4096370000000  0.4568310000000 1.0
C      1  0.5629040000000  0.6404470000000  0.4855380000000 1.0
C      1  0.4708950000000  0.5696150000000  0.4838870000000 1.0
C      1  0.4839650000000  0.5073610000000  0.5767850000000 1.0
C      1  0.5093290000000  0.5752580000000  0.4413330000000 1.0
C      1  0.4645490000000  0.5167280000000  0.4700570000000 1.0
C      1  0.5774570000000  0.4364970000000  0.4902280000000 1.0
C      1  0.4547480000000  0.5934940000000  0.5155620000000 1.0
C      1  0.5794740000000  0.5231070000000  0.5888670000000 1.0
C      1  0.5269580000000  0.4936720000000  0.6193280000000 1.0
C      1  0.4547860000000  0.5179720000000  0.5659710000000 1.0
C      1  0.4992570000000  0.4317920000000  0.4820320000000 1.0
C      1  0.5522750000000  0.4576170000000  0.4051260000000 1.0
C      1  0.3954530000000  0.5081070000000  0.4808860000000 1.0
C      1  0.5127730000000  0.5019010000000  0.4915580000000 1.0
C      1  0.4071610000000  0.5000380000000  0.5588100000000 1.0
C      1  0.4585220000000  0.4718430000000  0.4755060000000 1.0
C      1  0.4358910000000  0.4515530000000  0.4865850000000 1.0
C      1  0.6076370000000  0.5206800000000  0.4551950000000 1.0
C      1  0.4900460000000  0.5499620000000  0.5584380000000 1.0
C      1  0.4904690000000  0.4867940000000  0.4460740000000 1.0
C      1  0.5421350000000  0.5604670000000  0.4104670000000 1.0
C      1  0.5110890000000  0.6121950000000  0.4808350000000 1.0
C      1  0.5275330000000  0.5059780000000  0.4124380000000 1.0
C      1  0.4698960000000  0.5258750000000  0.6017890000000 1.0
C      1  0.4490580000000  0.4030900000000  0.5095000000000 1.0
C      1  0.4154430000000  0.5502990000000  0.5281820000000 1.0
C      1  0.5317170000000  0.5056540000000  0.5935550000000 1.0
C      1  0.5293940000000  0.4139450000000  0.5628140000000 1.0
C      1  0.4823700000000  0.5556160000000  0.5907540000000 1.0
C      1  0.5810430000000  0.4624970000000  0.4123190000000 1.0
C      1  0.3950290000000  0.4727630000000  0.5512690000000 1.0
C      1  0.5379270000000  0.4855840000000  0.3974580000000 1.0
C      1  0.5063490000000  0.4517240000000  0.4028850000000 1.0
C      1  0.4847620000000  0.4246170000000  0.5428020000000 1.0
C      1  0.4847990000000  0.5194330000000  0.4906610000000 1.0
C      1  0.4516870000000  0.5320570000000  0.4458920000000 1.0
C      1  0.5650120000000  0.5372730000000  0.5432200000000 1.0
C      1  0.4290180000000  0.5833800000000  0.4754120000000 1.0
C      1  0.4278050000000  0.5541290000000  0.4586220000000 1.0
C      1  0.4964380000000  0.4378390000000  0.5149650000000 1.0
C      1  0.5548180000000  0.4263680000000  0.5661720000000 1.0
C      1  0.4858370000000  0.5484070000000  0.5055690000000 1.0
C      1  0.5226700000000  0.4220870000000  0.4322020000000 1.0
C      1  0.4570960000000  0.5399970000000  0.5225460000000 1.0
C      1  0.4720150000000  0.5033030000000  0.3991690000000 1.0
C      1  0.5246680000000  0.5140610000000  0.5178940000000 1.0
C      1  0.4843510000000  0.5975170000000  0.5249570000000 1.0
C      1  0.5243870000000  0.5652960000000  0.5201730000000 1.0
C      1  0.4989100000000  0.3924700000000  0.5087230000000 1.0
C      1  0.4041790000000  0.4786300000000  0.4949110000000 1.0
C      1  0.4907060000000  0.4825810000000  0.4772220000000 1.0
C      1  0.4296590000000  0.4978700000000  0.4982020000000 1.0
C      1  0.4024380000000  0.4743470000000  0.4611470000000 1.0
C      1  0.4123020000000  0.5047620000000  0.4509340000000 1.0
C      1  0.5885770000000  0.4511280000000  0.4375250000000 1.0
C      1  0.5924660000000  0.5593970000000  0.5244870000000 1.0
C      1  0.5936970000000  0.4876510000000  0.4062830000000 1.0
C      1  0.4933590000000  0.4593530000000  0.4329380000000 1.0
C      1  0.4525390000000  0.4715150000000  0.5873780000000 1.0
C      1  0.4358330000000  0.5348120000000  0.4094930000000 1.0
C      1  0.5610110000000  0.6093100000000  0.4991090000000 1.0
C      1  0.4564890000000  0.4199480000000  0.4517010000000 1.0
C      1  0.5838900000000  0.4981070000000  0.4535570000000 1.0
C      1  0.5553160000000  0.4549890000000  0.5660860000000 1.0
C      1  0.4784170000000  0.4805850000000  0.5354850000000 1.0
C      1  0.5399830000000  0.5763580000000  0.4335820000000 1.0
C      1  0.5903870000000  0.4624620000000  0.4862610000000 1.0
C      1  0.4640130000000  0.4438290000000  0.4341530000000 1.0
C      1  0.5433760000000  0.4736360000000  0.4920940000000 1.0
C      1  0.4969340000000  0.5380860000000  0.6159980000000 1.0
C      1  0.4935440000000  0.5841600000000  0.5779920000000 1.0
C      1  0.5181610000000  0.4878940000000  0.5707570000000 1.0
C      1  0.5605170000000  0.4595960000000  0.5179360000000 1.0
C      1  0.5254720000000  0.4442000000000  0.4545740000000 1.0
C      1  0.4526620000000  0.4740390000000  0.4448580000000 1.0
C      1  0.4031360000000  0.4219710000000  0.4999210000000 1.0
C      1  0.5747330000000  0.4303860000000  0.5294890000000 1.0
C      1  0.5623190000000  0.5081600000000  0.5295390000000 1.0
C      1  0.4994770000000  0.6005400000000  0.4583970000000 1.0
C      1  0.5908280000000  0.4563140000000  0.5334560000000 1.0
C      1  0.5162420000000  0.5019040000000  0.4424750000000 1.0
C      1  0.4214640000000  0.5134780000000  0.4214860000000 1.0
C      1  0.4562850000000  0.4640120000000  0.5376660000000 1.0
C      1  0.5729520000000  0.4767500000000  0.5742710000000 1.0
C      1  0.4898130000000  0.5559820000000  0.4212300000000 1.0
C      1  0.4658580000000  0.4352580000000  0.4895790000000 1.0
C      1  0.5063730000000  0.5239000000000  0.5588990000000 1.0
C      1  0.4906780000000  0.5264300000000  0.3944980000000 1.0
C      1  0.4675910000000  0.4444760000000  0.5906180000000 1.0
C      1  0.5711810000000  0.5343070000000  0.4971600000000 1.0
C      1  0.5883810000000  0.5430130000000  0.4688330000000 1.0
C      1  0.4750340000000  0.5838220000000  0.4600070000000 1.0
C      1  0.4812220000000  0.4626570000000  0.4997600000000 1.0
C      1  0.4263680000000  0.5443440000000  0.5755830000000 1.0
C      1  0.4302330000000  0.4205070000000  0.4622050000000 1.0
C      1  0.5361460000000  0.4948300000000  0.5423280000000 1.0
C      1  0.5986570000000  0.5060390000000  0.4257310000000 1.0
C      1  0.4103940000000  0.4514540000000  0.5090740000000 1.0
C      1  0.4538660000000  0.4422320000000  0.5205260000000 1.0
C      1  0.5203740000000  0.5627990000000  0.5809810000000 1.0
C      1  0.4523690000000  0.4192860000000  0.5914670000000 1.0
C      1  0.5042420000000  0.6015070000000  0.5518880000000 1.0
C      1  0.5099420000000  0.5328710000000  0.4359540000000 1.0
C      1  0.4371550000000  0.5060320000000  0.4724310000000 1.0
C      1  0.5215750000000  0.3846760000000  0.4664260000000 1.0
C      1  0.5396400000000  0.5555170000000  0.4847190000000 1.0
C      1  0.5604860000000  0.5107940000000  0.4661380000000 1.0
C      1  0.6043020000000  0.5349930000000  0.5045850000000 1.0
C      1  0.5656970000000  0.4057390000000  0.5263040000000 1.0
C      1  0.5408210000000  0.5390020000000  0.5114990000000 1.0
C      1  0.4449230000000  0.5105350000000  0.5194870000000 1.0
C      1  0.4479500000000  0.5577690000000  0.4990530000000 1.0
C      1  0.4137530000000  0.4515200000000  0.5401670000000 1.0
C      1  0.4611560000000  0.4523460000000  0.4024890000000 1.0
C      1  0.4046800000000  0.5380280000000  0.4680330000000 1.0
C      1  0.4162460000000  0.4480660000000  0.4609250000000 1.0
C      1  0.4975410000000  0.5255100000000  0.5278590000000 1.0
C      1  0.5534480000000  0.5816990000000  0.4579990000000 1.0
C      1  0.4649910000000  0.5035130000000  0.4325870000000 1.0
C      1  0.5332480000000  0.4955780000000  0.4675860000000 1.0
C      1  0.5751930000000  0.5720230000000  0.4768210000000 1.0
C      1  0.5924160000000  0.4959780000000  0.5305370000000 1.0
C      1  0.5067060000000  0.5701390000000  0.5431980000000 1.0
C      1  0.5421390000000  0.5645100000000  0.5605460000000 1.0
C      1  0.4368790000000  0.5039430000000  0.5467250000000 1.0
C      1  0.4577630000000  0.4089930000000  0.5420950000000 1.0
C      1  0.4501170000000  0.4032720000000  0.5719850000000 1.0
C      1  0.4408160000000  0.5597010000000  0.4299780000000 1.0
C      1  0.5559490000000  0.5408720000000  0.4608820000000 1.0
C      1  0.4001390000000  0.5346850000000  0.5017140000000 1.0
C      1  0.5026790000000  0.4736050000000  0.5466070000000 1.0
C      1  0.4384170000000  0.5223130000000  0.5954170000000 1.0
C      1  0.5996060000000  0.4858610000000  0.5015500000000 1.0
C      1  0.4753630000000  0.5046670000000  0.5190520000000 1.0
C      1  0.5238400000000  0.5491360000000  0.4577140000000 1.0
C      1  0.4902240000000  0.4407900000000  0.5700770000000 1.0
C      1  0.5227490000000  0.3817980000000  0.4932550000000 1.0
C      1  0.5964240000000  0.5276050000000  0.5361360000000 1.0
C      1  0.5517400000000  0.4269550000000  0.4954560000000 1.0
C      1  0.5750090000000  0.5816770000000  0.5072080000000 1.0
C      1  0.4337070000000  0.4685460000000  0.5605110000000 1.0
C      1  0.5149510000000  0.4498140000000  0.5358310000000 1.0
C      1  0.5300490000000  0.4460900000000  0.4847210000000 1.0
C      1  0.4673270000000  0.5736150000000  0.4346990000000 1.0
C      1  0.4530270000000  0.4798170000000  0.4024710000000 1.0
C      1  0.5576630000000  0.5032850000000  0.4981320000000 1.0
C      1  0.4289090000000  0.4935390000000  0.5841550000000 1.0
C      1  0.5204040000000  0.5368680000000  0.4039560000000 1.0
C      1  0.5887130000000  0.4692690000000  0.4588890000000 1.0
C      1  0.4696540000000  0.5838900000000  0.5528990000000 1.0
C      1  0.4648970000000  0.5423200000000  0.4032610000000 1.0
C      1  0.5135700000000  0.4080000000000  0.5352850000000 1.0
C      1  0.4395470000000  0.5738610000000  0.5345410000000 1.0
C      1  0.4113500000000  0.5334930000000  0.5542030000000 1.0
C      1  0.5411750000000  0.4643760000000  0.5410850000000 1.0
C      1  0.5633700000000  0.5704350000000  0.5371840000000 1.0
C      1  0.5947920000000  0.4765870000000  0.5549350000000 1.0
C      1  0.4607600000000  0.5449130000000  0.5521060000000 1.0
C      1  0.6085930000000  0.5098790000000  0.4866480000000 1.0
C      1  0.4247130000000  0.4089490000000  0.4883940000000 1.0
C      1  0.4845890000000  0.4460230000000  0.3874910000000 1.0
C      1  0.5353410000000  0.6254570000000  0.4825170000000 1.0
C      1  0.4311770000000  0.4856710000000  0.4213750000000 1.0
C      1  0.4428560000000  0.5690890000000  0.5668050000000 1.0
C      1  0.5394970000000  0.5858920000000  0.4895490000000 1.0
C      1  0.5373600000000  0.4021840000000  0.5126630000000 1.0
C      1  0.5361050000000  0.5321300000000  0.5600460000000 1.0
C      1  0.5374640000000  0.4273080000000  0.4096390000000 1.0
C      1  0.4744830000000  0.3965850000000  0.4939540000000 1.0
C      1  0.4166070000000  0.5625800000000  0.4965460000000 1.0
END
