TITL C-2778437-8639-1347 0.00111508667101385 125000 -1003.72466445228 0 0 172 (C1) n - 1
REM
REM in /home/nfs/bkarasulu/CARBON/AIRSS/Generating-Clusters/REBO/Only-C1/SD-CG/HFTN-CG
REM
REM
REM
REM
REM
REM ./C.cell (11c1c37f851c82e70ff6c80c92926a4b)
REM
REM compiler GCC version 9.2.1 20190827 (Red Hat 9.2.1-1)
REM options -cpp -mtune=generic -march=x86-64 -g -O0 -fpre-include=/usr/include/finclude/math-vector-fortran.h
REM seed 2059701497 -839004566 -1772974220 2118930411 -747813014 1232967863 2147224723 1180797584 -256208418 1843014250 1157306649 1729400307 -1024045089 2000196277 645220813 -304913167 -1777226904 1070587989 1387078316 -1026290055 1578750411 -2013020218 -1954696376 -1574352548 789726855 2144560757 332277470 -478715979 1096666108 -1541852211 1607131063 263028142 -1950460463
REM
CELL 1.54180   50.00000   50.00000   50.00000   90.00000   90.00000   90.00000
LATT -1
SFAC C  
C      1  0.5432080000000  0.5582100000000  0.5133950000000 1.0
C      1  0.5100260000000  0.5156170000000  0.5187980000000 1.0
C      1  0.5385330000000  0.4656180000000  0.5480170000000 1.0
C      1  0.5021070000000  0.5914840000000  0.4268280000000 1.0
C      1  0.4896940000000  0.5465810000000  0.4135540000000 1.0
C      1  0.5077970000000  0.4610050000000  0.6071890000000 1.0
C      1  0.4907120000000  0.5218340000000  0.5462650000000 1.0
C      1  0.4564150000000  0.4369140000000  0.4732900000000 1.0
C      1  0.5736080000000  0.5584800000000  0.4217830000000 1.0
C      1  0.4771830000000  0.5446620000000  0.4860070000000 1.0
C      1  0.4167490000000  0.4328580000000  0.4733940000000 1.0
C      1  0.4052270000000  0.4932910000000  0.4348890000000 1.0
C      1  0.5477300000000  0.4669990000000  0.4451990000000 1.0
C      1  0.5208600000000  0.5505300000000  0.4897720000000 1.0
C      1  0.5263930000000  0.5941180000000  0.5169880000000 1.0
C      1  0.5506820000000  0.4728820000000  0.4918010000000 1.0
C      1  0.4940670000000  0.5391200000000  0.3875360000000 1.0
C      1  0.4488890000000  0.5070410000000  0.5802940000000 1.0
C      1  0.4405810000000  0.4242870000000  0.5489280000000 1.0
C      1  0.5844330000000  0.5310590000000  0.5995960000000 1.0
C      1  0.4980720000000  0.5149290000000  0.4693600000000 1.0
C      1  0.4544370000000  0.4360450000000  0.5064560000000 1.0
C      1  0.5737920000000  0.4639380000000  0.4750110000000 1.0
C      1  0.4019240000000  0.5190080000000  0.4445110000000 1.0
C      1  0.5537760000000  0.4710460000000  0.4059550000000 1.0
C      1  0.4498910000000  0.5241610000000  0.5211400000000 1.0
C      1  0.4646150000000  0.3981740000000  0.4756060000000 1.0
C      1  0.4826420000000  0.4767660000000  0.4823010000000 1.0
C      1  0.4624360000000  0.4082530000000  0.5348330000000 1.0
C      1  0.4447880000000  0.4641040000000  0.4653280000000 1.0
C      1  0.5559030000000  0.5243870000000  0.5957890000000 1.0
C      1  0.5552130000000  0.4516920000000  0.5818230000000 1.0
C      1  0.5302480000000  0.5448300000000  0.5490110000000 1.0
C      1  0.5194700000000  0.5905690000000  0.4898780000000 1.0
C      1  0.5302950000000  0.5043870000000  0.5394820000000 1.0
C      1  0.4917120000000  0.3890750000000  0.4934080000000 1.0
C      1  0.4372760000000  0.4868120000000  0.5260830000000 1.0
C      1  0.4005900000000  0.5006630000000  0.5265590000000 1.0
C      1  0.4456160000000  0.5380830000000  0.4629530000000 1.0
C      1  0.4448970000000  0.5261020000000  0.4252300000000 1.0
C      1  0.4678400000000  0.5256880000000  0.5703320000000 1.0
C      1  0.5174080000000  0.4156290000000  0.5401870000000 1.0
C      1  0.5220460000000  0.5621730000000  0.5955650000000 1.0
C      1  0.4865590000000  0.4076350000000  0.5521130000000 1.0
C      1  0.5068970000000  0.5340200000000  0.5713650000000 1.0
C      1  0.4191380000000  0.4434160000000  0.5417640000000 1.0
C      1  0.5115540000000  0.5554100000000  0.5221770000000 1.0
C      1  0.6114990000000  0.4971200000000  0.5131260000000 1.0
C      1  0.4674510000000  0.5846840000000  0.4875960000000 1.0
C      1  0.4449060000000  0.5004790000000  0.6068530000000 1.0
C      1  0.4509280000000  0.4562540000000  0.5840520000000 1.0
C      1  0.5525010000000  0.4318010000000  0.5306510000000 1.0
C      1  0.5789110000000  0.5627970000000  0.4545120000000 1.0
C      1  0.5542360000000  0.4290480000000  0.4365070000000 1.0
C      1  0.5347260000000  0.4521690000000  0.5106700000000 1.0
C      1  0.4366270000000  0.5766590000000  0.5320680000000 1.0
C      1  0.5234550000000  0.5104170000000  0.4901940000000 1.0
C      1  0.4700400000000  0.6166540000000  0.5277710000000 1.0
C      1  0.5322160000000  0.5840230000000  0.4158710000000 1.0
C      1  0.4205180000000  0.5323050000000  0.4117570000000 1.0
C      1  0.5276290000000  0.4623040000000  0.4021380000000 1.0
C      1  0.5673760000000  0.5819910000000  0.4750960000000 1.0
C      1  0.5072810000000  0.4876780000000  0.5585360000000 1.0
C      1  0.4112880000000  0.4695140000000  0.5359810000000 1.0
C      1  0.5321240000000  0.5053230000000  0.6080430000000 1.0
C      1  0.4432000000000  0.4719660000000  0.5620580000000 1.0
C      1  0.4913000000000  0.5068040000000  0.4162120000000 1.0
C      1  0.4379640000000  0.5240840000000  0.4912490000000 1.0
C      1  0.5330390000000  0.4124240000000  0.5099470000000 1.0
C      1  0.5830870000000  0.5023860000000  0.4316800000000 1.0
C      1  0.5237070000000  0.5064930000000  0.3711080000000 1.0
C      1  0.5056790000000  0.4576390000000  0.5732460000000 1.0
C      1  0.4258440000000  0.4454970000000  0.4974340000000 1.0
C      1  0.4634210000000  0.5109060000000  0.4059680000000 1.0
C      1  0.5297930000000  0.5105850000000  0.4262440000000 1.0
C      1  0.5388620000000  0.4337350000000  0.5598220000000 1.0
C      1  0.5135630000000  0.5731280000000  0.5718240000000 1.0
C      1  0.4486660000000  0.5715590000000  0.4684130000000 1.0
C      1  0.4857010000000  0.4915380000000  0.5803470000000 1.0
C      1  0.4414250000000  0.5066240000000  0.4532700000000 1.0
C      1  0.5771860000000  0.5750810000000  0.5009360000000 1.0
C      1  0.5793800000000  0.5002220000000  0.4903470000000 1.0
C      1  0.5916680000000  0.5470630000000  0.5021230000000 1.0
C      1  0.5569930000000  0.4977270000000  0.4157840000000 1.0
C      1  0.4947010000000  0.5798420000000  0.4792310000000 1.0
C      1  0.4698410000000  0.5142400000000  0.4837220000000 1.0
C      1  0.4589900000000  0.5525480000000  0.5097810000000 1.0
C      1  0.5074310000000  0.4488240000000  0.4683800000000 1.0
C      1  0.4968610000000  0.4329960000000  0.5928240000000 1.0
C      1  0.4808310000000  0.5732140000000  0.4237120000000 1.0
C      1  0.5125920000000  0.4664830000000  0.5251490000000 1.0
C      1  0.4249840000000  0.4751810000000  0.4988550000000 1.0
C      1  0.4789140000000  0.4376950000000  0.4169790000000 1.0
C      1  0.4787430000000  0.4166110000000  0.5788330000000 1.0
C      1  0.5171500000000  0.5075820000000  0.3959870000000 1.0
C      1  0.5407610000000  0.5930240000000  0.4700100000000 1.0
C      1  0.5582590000000  0.5853880000000  0.5249680000000 1.0
C      1  0.4562750000000  0.5525760000000  0.5679590000000 1.0
C      1  0.4698260000000  0.4702590000000  0.5988240000000 1.0
C      1  0.4924810000000  0.4885860000000  0.6162870000000 1.0
C      1  0.5297070000000  0.5983870000000  0.4442460000000 1.0
C      1  0.4644950000000  0.4741440000000  0.5370590000000 1.0
C      1  0.4585170000000  0.5551200000000  0.4370370000000 1.0
C      1  0.4378630000000  0.4089930000000  0.4629980000000 1.0
C      1  0.5892400000000  0.4742100000000  0.5100400000000 1.0
C      1  0.5017550000000  0.4439580000000  0.5454530000000 1.0
C      1  0.4165610000000  0.5638760000000  0.4713600000000 1.0
C      1  0.5454180000000  0.5587050000000  0.4169970000000 1.0
C      1  0.4941410000000  0.4691930000000  0.4448170000000 1.0
C      1  0.5716850000000  0.4529630000000  0.4247790000000 1.0
C      1  0.4895260000000  0.4493060000000  0.4974770000000 1.0
C      1  0.5995080000000  0.5270730000000  0.5800790000000 1.0
C      1  0.5139900000000  0.4952820000000  0.4475580000000 1.0
C      1  0.4852040000000  0.4226670000000  0.4636530000000 1.0
C      1  0.5834650000000  0.5318560000000  0.4404780000000 1.0
C      1  0.4228090000000  0.5239090000000  0.5389370000000 1.0
C      1  0.5635060000000  0.5362460000000  0.5130030000000 1.0
C      1  0.4924120000000  0.5538480000000  0.4620790000000 1.0
C      1  0.4274690000000  0.4993060000000  0.5588760000000 1.0
C      1  0.5742940000000  0.4866460000000  0.5496100000000 1.0
C      1  0.5403100000000  0.4406820000000  0.4649360000000 1.0
C      1  0.5528390000000  0.4914740000000  0.4550360000000 1.0
C      1  0.5752910000000  0.4489560000000  0.5119890000000 1.0
C      1  0.4641550000000  0.5907800000000  0.5192690000000 1.0
C      1  0.5145350000000  0.4109550000000  0.4578320000000 1.0
C      1  0.5218520000000  0.4793260000000  0.4768500000000 1.0
C      1  0.4530060000000  0.4873340000000  0.4894600000000 1.0
C      1  0.4946450000000  0.5292390000000  0.4397720000000 1.0
C      1  0.3912290000000  0.4958370000000  0.4941280000000 1.0
C      1  0.5616230000000  0.5358950000000  0.4652370000000 1.0
C      1  0.4671190000000  0.4843360000000  0.4525850000000 1.0
C      1  0.4862470000000  0.5598020000000  0.5605730000000 1.0
C      1  0.5312200000000  0.5450870000000  0.4644610000000 1.0
C      1  0.4087610000000  0.5226880000000  0.5015370000000 1.0
C      1  0.4181000000000  0.4954970000000  0.4724490000000 1.0
C      1  0.5537500000000  0.5173980000000  0.4899530000000 1.0
C      1  0.5162600000000  0.4002850000000  0.4861760000000 1.0
C      1  0.4057080000000  0.5430790000000  0.4572630000000 1.0
C      1  0.5308320000000  0.5400100000000  0.6081860000000 1.0
C      1  0.4727160000000  0.5047690000000  0.5273190000000 1.0
C      1  0.6146520000000  0.5076430000000  0.5378610000000 1.0
C      1  0.4552110000000  0.5022940000000  0.3824200000000 1.0
C      1  0.5531840000000  0.4329690000000  0.4911090000000 1.0
C      1  0.5368420000000  0.4720800000000  0.6020850000000 1.0
C      1  0.5532130000000  0.4847990000000  0.5237210000000 1.0
C      1  0.5605020000000  0.5302780000000  0.5426600000000 1.0
C      1  0.5365100000000  0.4855830000000  0.5735550000000 1.0
C      1  0.5093390000000  0.4396390000000  0.4163390000000 1.0
C      1  0.4165300000000  0.4640410000000  0.4481840000000 1.0
C      1  0.5973770000000  0.5015650000000  0.4625170000000 1.0
C      1  0.4955770000000  0.4866850000000  0.5101310000000 1.0
C      1  0.5743340000000  0.4669690000000  0.5684560000000 1.0
C      1  0.5326250000000  0.5395970000000  0.4345610000000 1.0
C      1  0.5888440000000  0.5150480000000  0.5537870000000 1.0
C      1  0.4411300000000  0.4942600000000  0.6320300000000 1.0
C      1  0.3910450000000  0.4751560000000  0.4674450000000 1.0
C      1  0.4837320000000  0.5649150000000  0.5295950000000 1.0
C      1  0.5871890000000  0.4724200000000  0.4479590000000 1.0
C      1  0.5019880000000  0.4757820000000  0.4148000000000 1.0
C      1  0.4308350000000  0.4348450000000  0.4420550000000 1.0
C      1  0.5253980000000  0.4209890000000  0.4337100000000 1.0
C      1  0.5328070000000  0.5786790000000  0.5466760000000 1.0
C      1  0.4661140000000  0.3980140000000  0.5095870000000 1.0
C      1  0.4521370000000  0.4286260000000  0.5763390000000 1.0
C      1  0.4346280000000  0.5540320000000  0.5498980000000 1.0
C      1  0.4020210000000  0.5499920000000  0.5057780000000 1.0
C      1  0.5480650000000  0.5137360000000  0.5677000000000 1.0
C      1  0.4766960000000  0.4490100000000  0.5266000000000 1.0
C      1  0.4551760000000  0.4371120000000  0.4233970000000 1.0
C      1  0.5026760000000  0.5147000000000  0.5963420000000 1.0
C      1  0.6060700000000  0.5203800000000  0.4896550000000 1.0
C      1  0.4290340000000  0.5677200000000  0.5028320000000 1.0
END
