TITL C-2778429-3646-547 0.00030789361872831 125000 -1143.21572503945 0 0 196 (C1) n - 1
REM
REM in /home/nfs/bkarasulu/CARBON/AIRSS/Generating-Clusters/REBO/Only-C1/SD-CG/HFTN-CG
REM
REM
REM
REM
REM
REM ./C.cell (11c1c37f851c82e70ff6c80c92926a4b)
REM
REM compiler GCC version 9.2.1 20190827 (Red Hat 9.2.1-1)
REM options -cpp -mtune=generic -march=x86-64 -g -O0 -fpre-include=/usr/include/finclude/math-vector-fortran.h
REM seed -583766871 -447114510 -1776490846 1649260312 1827227207 -1083207487 1945251236 925373172 165069439 1660654672 -1344648445 -1242453314 1685242982 -747002802 -374318834 -56361322 101385861 -1925756549 2102368516 977920380 1124249157 391611627 702809850 327241440 1076948047 -1961526139 -1438144174 -1569155974 -832034886 -581430816 -1392031480 -1022995697 -1269752366
REM
CELL 1.54180   50.00000   50.00000   50.00000   90.00000   90.00000   90.00000
LATT -1
SFAC C  
C      1  0.4693540000000  0.3907480000000  0.4665240000000 1.0
C      1  0.4606690000000  0.4289130000000  0.5803020000000 1.0
C      1  0.5966540000000  0.5126220000000  0.4530800000000 1.0
C      1  0.3901840000000  0.4706620000000  0.5031680000000 1.0
C      1  0.5569080000000  0.5423810000000  0.6004540000000 1.0
C      1  0.4939900000000  0.3942510000000  0.5293460000000 1.0
C      1  0.5916880000000  0.4382230000000  0.4761320000000 1.0
C      1  0.4267300000000  0.4115610000000  0.4812180000000 1.0
C      1  0.4488700000000  0.5522080000000  0.4106110000000 1.0
C      1  0.5581670000000  0.4742180000000  0.4614260000000 1.0
C      1  0.4983490000000  0.5352470000000  0.4239980000000 1.0
C      1  0.5226960000000  0.5411670000000  0.3928360000000 1.0
C      1  0.4018290000000  0.4627690000000  0.5342430000000 1.0
C      1  0.4646220000000  0.4681450000000  0.4815590000000 1.0
C      1  0.5262190000000  0.4709820000000  0.5974450000000 1.0
C      1  0.5705370000000  0.5591920000000  0.4482100000000 1.0
C      1  0.5291140000000  0.4829970000000  0.4777150000000 1.0
C      1  0.5757680000000  0.4884840000000  0.4122370000000 1.0
C      1  0.5605050000000  0.4944340000000  0.5825000000000 1.0
C      1  0.4186050000000  0.4840320000000  0.4282530000000 1.0
C      1  0.5271150000000  0.5989300000000  0.4965730000000 1.0
C      1  0.6196580000000  0.5120090000000  0.5249280000000 1.0
C      1  0.4544560000000  0.4967090000000  0.4883510000000 1.0
C      1  0.4252320000000  0.4579340000000  0.4102330000000 1.0
C      1  0.5463550000000  0.4511670000000  0.5597620000000 1.0
C      1  0.5915300000000  0.4664410000000  0.5521890000000 1.0
C      1  0.5502600000000  0.5840470000000  0.5255400000000 1.0
C      1  0.5289240000000  0.6095700000000  0.4018040000000 1.0
C      1  0.5706570000000  0.5218800000000  0.4113120000000 1.0
C      1  0.4741550000000  0.5861000000000  0.5571490000000 1.0
C      1  0.4753520000000  0.5661720000000  0.4133460000000 1.0
C      1  0.5607780000000  0.4400090000000  0.4367380000000 1.0
C      1  0.5847630000000  0.5353140000000  0.4376620000000 1.0
C      1  0.4975790000000  0.5202800000000  0.5135390000000 1.0
C      1  0.5114500000000  0.4647110000000  0.5671140000000 1.0
C      1  0.5473700000000  0.5835370000000  0.4421130000000 1.0
C      1  0.5782290000000  0.5363940000000  0.4956930000000 1.0
C      1  0.5271800000000  0.5445690000000  0.4875500000000 1.0
C      1  0.5356470000000  0.4345870000000  0.4531760000000 1.0
C      1  0.4830210000000  0.4797830000000  0.5981140000000 1.0
C      1  0.4471160000000  0.4032530000000  0.5066490000000 1.0
C      1  0.5541500000000  0.5356340000000  0.4733920000000 1.0
C      1  0.5628450000000  0.4860870000000  0.4986240000000 1.0
C      1  0.5093180000000  0.4533370000000  0.4596290000000 1.0
C      1  0.5984240000000  0.5246330000000  0.5807860000000 1.0
C      1  0.4790320000000  0.5111680000000  0.6068290000000 1.0
C      1  0.5376620000000  0.6044560000000  0.4671240000000 1.0
C      1  0.4998800000000  0.5637790000000  0.5197520000000 1.0
C      1  0.4180940000000  0.4805980000000  0.4860820000000 1.0
C      1  0.4216280000000  0.5394810000000  0.5182120000000 1.0
C      1  0.5147200000000  0.4126740000000  0.4379840000000 1.0
C      1  0.4672190000000  0.4518700000000  0.5328450000000 1.0
C      1  0.5217110000000  0.4996400000000  0.5258450000000 1.0
C      1  0.4979390000000  0.5723550000000  0.5683090000000 1.0
C      1  0.4923770000000  0.3994280000000  0.4798380000000 1.0
C      1  0.5229270000000  0.5422520000000  0.5776950000000 1.0
C      1  0.4713880000000  0.4686740000000  0.4130200000000 1.0
C      1  0.4911220000000  0.4145090000000  0.5052040000000 1.0
C      1  0.4631990000000  0.6049410000000  0.5146190000000 1.0
C      1  0.5531000000000  0.4609380000000  0.5143980000000 1.0
C      1  0.6415820000000  0.5541230000000  0.5361320000000 1.0
C      1  0.5221080000000  0.4887420000000  0.4466340000000 1.0
C      1  0.5056650000000  0.5059220000000  0.4145290000000 1.0
C      1  0.4872550000000  0.5134950000000  0.5580830000000 1.0
C      1  0.4298540000000  0.4689700000000  0.5827470000000 1.0
C      1  0.3845740000000  0.5018730000000  0.4906770000000 1.0
C      1  0.4260140000000  0.5785170000000  0.5353970000000 1.0
C      1  0.5623620000000  0.4447360000000  0.5957320000000 1.0
C      1  0.4494250000000  0.5333160000000  0.5308660000000 1.0
C      1  0.4292030000000  0.4056100000000  0.5343390000000 1.0
C      1  0.3997150000000  0.4489680000000  0.4271280000000 1.0
C      1  0.5032750000000  0.5366180000000  0.4545300000000 1.0
C      1  0.5354570000000  0.4914590000000  0.6133400000000 1.0
C      1  0.5389440000000  0.4188380000000  0.4829520000000 1.0
C      1  0.5800600000000  0.4401680000000  0.5070300000000 1.0
C      1  0.3889660000000  0.4451550000000  0.4849650000000 1.0
C      1  0.5305510000000  0.4410340000000  0.5058050000000 1.0
C      1  0.5027700000000  0.5804750000000  0.4945700000000 1.0
C      1  0.4027400000000  0.4238420000000  0.4975270000000 1.0
C      1  0.5529810000000  0.5270960000000  0.5164830000000 1.0
C      1  0.4536790000000  0.5942670000000  0.4680060000000 1.0
C      1  0.5247770000000  0.5863830000000  0.4207560000000 1.0
C      1  0.4560200000000  0.5806150000000  0.4373730000000 1.0
C      1  0.5143440000000  0.4415520000000  0.4040030000000 1.0
C      1  0.5284620000000  0.5210090000000  0.4552970000000 1.0
C      1  0.4367140000000  0.4423250000000  0.5717020000000 1.0
C      1  0.4977660000000  0.5274770000000  0.6175260000000 1.0
C      1  0.4970190000000  0.5401910000000  0.5620900000000 1.0
C      1  0.4271560000000  0.4933020000000  0.5172480000000 1.0
C      1  0.3940090000000  0.4474020000000  0.4581570000000 1.0
C      1  0.5313490000000  0.5112430000000  0.4953200000000 1.0
C      1  0.4277780000000  0.4606420000000  0.5120500000000 1.0
C      1  0.5981420000000  0.5163460000000  0.4813660000000 1.0
C      1  0.5945890000000  0.4813360000000  0.4466940000000 1.0
C      1  0.5374600000000  0.4996210000000  0.4115870000000 1.0
C      1  0.5095210000000  0.4590020000000  0.4921430000000 1.0
C      1  0.4106960000000  0.5671710000000  0.4619100000000 1.0
C      1  0.4987400000000  0.4632480000000  0.5387450000000 1.0
C      1  0.4162210000000  0.5580090000000  0.4921770000000 1.0
C      1  0.5619350000000  0.5602160000000  0.5754580000000 1.0
C      1  0.3965930000000  0.5322490000000  0.5363850000000 1.0
C      1  0.4688970000000  0.4644730000000  0.5644750000000 1.0
C      1  0.5115930000000  0.4668960000000  0.3841700000000 1.0
C      1  0.4245140000000  0.4585400000000  0.4500220000000 1.0
C      1  0.5382210000000  0.4225870000000  0.3973990000000 1.0
C      1  0.4906320000000  0.4838360000000  0.4344260000000 1.0
C      1  0.4894750000000  0.5323680000000  0.4824410000000 1.0
C      1  0.5034580000000  0.4953810000000  0.5758610000000 1.0
C      1  0.4914790000000  0.5338300000000  0.3901730000000 1.0
C      1  0.4544600000000  0.4298480000000  0.4868010000000 1.0
C      1  0.4718130000000  0.5273330000000  0.3728760000000 1.0
C      1  0.5383400000000  0.4758350000000  0.5391920000000 1.0
C      1  0.5877280000000  0.4495870000000  0.4511150000000 1.0
C      1  0.5085490000000  0.5643790000000  0.4681590000000 1.0
C      1  0.4143050000000  0.4836290000000  0.5562740000000 1.0
C      1  0.5222840000000  0.3984920000000  0.5404710000000 1.0
C      1  0.6097890000000  0.4927470000000  0.4998530000000 1.0
C      1  0.4620020000000  0.3976920000000  0.5364920000000 1.0
C      1  0.5126580000000  0.4362870000000  0.5829890000000 1.0
C      1  0.4659530000000  0.5461980000000  0.4963400000000 1.0
C      1  0.5041780000000  0.4190510000000  0.5586480000000 1.0
C      1  0.4905490000000  0.4835070000000  0.3947650000000 1.0
C      1  0.5933610000000  0.4961590000000  0.5359380000000 1.0
C      1  0.4790480000000  0.6020770000000  0.4478350000000 1.0
C      1  0.5591560000000  0.4133140000000  0.5064950000000 1.0
C      1  0.5227520000000  0.5391510000000  0.5264440000000 1.0
C      1  0.5968880000000  0.4676370000000  0.5181600000000 1.0
C      1  0.4484770000000  0.4055880000000  0.4556950000000 1.0
C      1  0.4014200000000  0.5658150000000  0.5400180000000 1.0
C      1  0.5075970000000  0.5739080000000  0.5976680000000 1.0
C      1  0.4705810000000  0.5572790000000  0.5270500000000 1.0
C      1  0.5311700000000  0.6083860000000  0.5238580000000 1.0
C      1  0.5477740000000  0.4080920000000  0.5327230000000 1.0
C      1  0.5484700000000  0.5342300000000  0.3932390000000 1.0
C      1  0.5161090000000  0.5467260000000  0.6074610000000 1.0
C      1  0.4171230000000  0.5309500000000  0.5790260000000 1.0
C      1  0.5044950000000  0.6131420000000  0.4675090000000 1.0
C      1  0.4409700000000  0.5478520000000  0.5747620000000 1.0
C      1  0.5504700000000  0.5740500000000  0.5546590000000 1.0
C      1  0.4797220000000  0.6058400000000  0.5378630000000 1.0
C      1  0.4592470000000  0.4230450000000  0.4323410000000 1.0
C      1  0.5708900000000  0.5159400000000  0.5398300000000 1.0
C      1  0.4835810000000  0.4489740000000  0.5909790000000 1.0
C      1  0.3987010000000  0.5069840000000  0.5171470000000 1.0
C      1  0.5432230000000  0.5262640000000  0.5665240000000 1.0
C      1  0.5068660000000  0.6152680000000  0.5369970000000 1.0
C      1  0.5067790000000  0.5646600000000  0.4099070000000 1.0
C      1  0.3985160000000  0.5133490000000  0.4684060000000 1.0
C      1  0.4801940000000  0.4465800000000  0.4452240000000 1.0
C      1  0.5547300000000  0.5142480000000  0.6054600000000 1.0
C      1  0.5599120000000  0.4715820000000  0.4293120000000 1.0
C      1  0.5355930000000  0.4816400000000  0.3840660000000 1.0
C      1  0.4564740000000  0.5053850000000  0.5181400000000 1.0
C      1  0.4287300000000  0.5869380000000  0.4832070000000 1.0
C      1  0.5614690000000  0.5052600000000  0.4703530000000 1.0
C      1  0.5208640000000  0.5667030000000  0.5460120000000 1.0
C      1  0.4917310000000  0.4267560000000  0.4214000000000 1.0
C      1  0.4072160000000  0.5374710000000  0.4460560000000 1.0
C      1  0.4365870000000  0.4440760000000  0.5404900000000 1.0
C      1  0.4471340000000  0.4856290000000  0.5512410000000 1.0
C      1  0.5593900000000  0.4227290000000  0.4112120000000 1.0
C      1  0.5079030000000  0.4335950000000  0.5279740000000 1.0
C      1  0.5733020000000  0.4681200000000  0.5777010000000 1.0
C      1  0.4501430000000  0.4872610000000  0.5942810000000 1.0
C      1  0.4745010000000  0.4111100000000  0.5619390000000 1.0
C      1  0.4780810000000  0.4901210000000  0.5357450000000 1.0
C      1  0.5572360000000  0.5772290000000  0.4740800000000 1.0
C      1  0.4301690000000  0.5099430000000  0.4739410000000 1.0
C      1  0.4795170000000  0.4466350000000  0.5030020000000 1.0
C      1  0.4499180000000  0.4498150000000  0.4604790000000 1.0
C      1  0.5539800000000  0.5102820000000  0.4374590000000 1.0
C      1  0.5881650000000  0.4777090000000  0.4793090000000 1.0
C      1  0.4859570000000  0.5013740000000  0.4878500000000 1.0
C      1  0.4554800000000  0.5153900000000  0.5567320000000 1.0
C      1  0.4542100000000  0.5206940000000  0.5892380000000 1.0
C      1  0.5079000000000  0.5866620000000  0.4473910000000 1.0
C      1  0.5276750000000  0.4674970000000  0.4206120000000 1.0
C      1  0.4790320000000  0.6020900000000  0.4877450000000 1.0
C      1  0.4495130000000  0.5669840000000  0.5522980000000 1.0
C      1  0.5400590000000  0.4334730000000  0.5964520000000 1.0
C      1  0.5492180000000  0.5661360000000  0.5021990000000 1.0
C      1  0.6211110000000  0.5402400000000  0.5248970000000 1.0
C      1  0.4389010000000  0.5349130000000  0.4907250000000 1.0
C      1  0.4519190000000  0.4489810000000  0.4138300000000 1.0
C      1  0.5348030000000  0.4967220000000  0.5634830000000 1.0
C      1  0.5755360000000  0.5314290000000  0.5668920000000 1.0
C      1  0.5990440000000  0.5531220000000  0.5120030000000 1.0
C      1  0.4285760000000  0.5611000000000  0.4347990000000 1.0
C      1  0.4084510000000  0.4296520000000  0.5279100000000 1.0
C      1  0.5163540000000  0.4026230000000  0.4666600000000 1.0
C      1  0.4365460000000  0.5938200000000  0.5133960000000 1.0
C      1  0.4046160000000  0.5144850000000  0.5608740000000 1.0
C      1  0.4885990000000  0.4797860000000  0.4655500000000 1.0
C      1  0.5600610000000  0.4273160000000  0.5507330000000 1.0
C      1  0.5856540000000  0.4365880000000  0.5405050000000 1.0
C      1  0.4120830000000  0.5092850000000  0.4312230000000 1.0
END
