TITL C-2778424-3986-365 -667.943625684857 125000 -1015.42761837164 0 0 178 (C1) n - 1
REM
REM in /home/nfs/bkarasulu/CARBON/AIRSS/Generating-Clusters/REBO/Only-C1/SD-CG/HFTN-CG
REM
REM
REM
REM
REM
REM ./C.cell (11c1c37f851c82e70ff6c80c92926a4b)
REM
REM compiler GCC version 9.2.1 20190827 (Red Hat 9.2.1-1)
REM options -cpp -mtune=generic -march=x86-64 -g -O0 -fpre-include=/usr/include/finclude/math-vector-fortran.h
REM seed 1328642508 1119764293 -1882986014 1588216032 -2082779497 459355374 74893754 2034928189 -1155093763 -2104798376 -802261596 -2062014125 1303285158 -1842671143 1212160624 1667378949 28693320 -1139608261 -1547335694 -751311966 1025431170 -1235261625 -724496023 -1591580786 1542802647 664977905 855254052 -979627473 -1336733266 247189742 114712399 -1734565151 1618734952
REM
CELL 1.54180   50.00000   50.00000   50.00000   90.00000   90.00000   90.00000
LATT -1
SFAC C  
C      1  0.4960550000000  0.5728160000000  0.5288040000000 1.0
C      1  0.5688260000000  0.5875680000000  0.4977160000000 1.0
C      1  0.5264710000000  0.4197630000000  0.5417960000000 1.0
C      1  0.4161820000000  0.4710030000000  0.4621210000000 1.0
C      1  0.5459000000000  0.3981560000000  0.5047690000000 1.0
C      1  0.5312060000000  0.5243190000000  0.5906810000000 1.0
C      1  0.5183420000000  0.3890770000000  0.5055360000000 1.0
C      1  0.4976520000000  0.5201000000000  0.5128070000000 1.0
C      1  0.5615630000000  0.4117410000000  0.5245390000000 1.0
C      1  0.4701910000000  0.4489760000000  0.4126690000000 1.0
C      1  0.5407410000000  0.5066070000000  0.5387430000000 1.0
C      1  0.5600820000000  0.5208150000000  0.3833980000000 1.0
C      1  0.4925670000000  0.4958140000000  0.4656550000000 1.0
C      1  0.4259950000000  0.5525830000000  0.5602660000000 1.0
C      1  0.4912200000000  0.4679180000000  0.6051780000000 1.0
C      1  0.4931330000000  0.5193260000000  0.5452830000000 1.0
C      1  0.5883930000000  0.5389050000000  0.4877450000000 1.0
C      1  0.4146200000000  0.5352510000000  0.4402640000000 1.0
C      1  0.4861060000000  0.4393260000000  0.4657920000000 1.0
C      1  0.4058070000000  0.5024350000000  0.4874030000000 1.0
C      1  0.5390590000000  0.5225120000000  0.4104690000000 1.0
C      1  0.5417590000000  0.4963290000000  0.5068330000000 1.0
C      1  0.4072450000000  0.5519560000000  0.4654410000000 1.0
C      1  0.4416120000000  0.4847640000000  0.3933320000000 1.0
C      1  0.4618200000000  0.5453270000000  0.4643290000000 1.0
C      1  0.6332640000000  0.5176860000000  0.4951650000000 1.0
C      1  0.4632440000000  0.5488330000000  0.5957240000000 1.0
C      1  0.4774230000000  0.5694700000000  0.4474730000000 1.0
C      1  0.5364000000000  0.5856220000000  0.5562460000000 1.0
C      1  0.5316850000000  0.4627710000000  0.4624860000000 1.0
C      1  0.4665250000000  0.5829910000000  0.5534610000000 1.0
C      1  0.5173330000000  0.5763580000000  0.4215560000000 1.0
C      1  0.4345990000000  0.5529140000000  0.4836420000000 1.0
C      1  0.5334720000000  0.4354760000000  0.4914630000000 1.0
C      1  0.4203930000000  0.5228500000000  0.5692230000000 1.0
C      1  0.5963400000000  0.4718080000000  0.5454590000000 1.0
C      1  0.5686730000000  0.5177230000000  0.4514580000000 1.0
C      1  0.3878940000000  0.4987450000000  0.4626970000000 1.0
C      1  0.4850940000000  0.5212910000000  0.5778670000000 1.0
C      1  0.4623960000000  0.5236840000000  0.4288610000000 1.0
C      1  0.5279000000000  0.5775020000000  0.4506590000000 1.0
C      1  0.5004890000000  0.3935410000000  0.5265830000000 1.0
C      1  0.4664900000000  0.5006540000000  0.5350850000000 1.0
C      1  0.5160200000000  0.5612390000000  0.5995180000000 1.0
C      1  0.5618740000000  0.5332020000000  0.5785390000000 1.0
C      1  0.4595780000000  0.5304310000000  0.5038270000000 1.0
C      1  0.4509230000000  0.5198970000000  0.5830710000000 1.0
C      1  0.5978630000000  0.5274520000000  0.4507480000000 1.0
C      1  0.5532680000000  0.4037220000000  0.4775760000000 1.0
C      1  0.4495360000000  0.5895210000000  0.4871750000000 1.0
C      1  0.4490900000000  0.4432970000000  0.5021170000000 1.0
C      1  0.4596760000000  0.4613730000000  0.5363510000000 1.0
C      1  0.4007120000000  0.5100530000000  0.5443580000000 1.0
C      1  0.4299090000000  0.4936400000000  0.5209700000000 1.0
C      1  0.5458620000000  0.5730390000000  0.5177390000000 1.0
C      1  0.5605080000000  0.4781590000000  0.4398170000000 1.0
C      1  0.4329000000000  0.5209250000000  0.5224800000000 1.0
C      1  0.4880200000000  0.5692500000000  0.4216830000000 1.0
C      1  0.4917270000000  0.4300260000000  0.4274250000000 1.0
C      1  0.4719230000000  0.3953270000000  0.4979170000000 1.0
C      1  0.5716740000000  0.4280550000000  0.4724040000000 1.0
C      1  0.4390350000000  0.5119300000000  0.4838700000000 1.0
C      1  0.6176460000000  0.5173290000000  0.4712330000000 1.0
C      1  0.4359180000000  0.5727420000000  0.5114560000000 1.0
C      1  0.5276720000000  0.4169810000000  0.4382510000000 1.0
C      1  0.4441450000000  0.4796900000000  0.4800170000000 1.0
C      1  0.4888750000000  0.4177030000000  0.5284150000000 1.0
C      1  0.5305140000000  0.4364240000000  0.5194570000000 1.0
C      1  0.5504260000000  0.5531670000000  0.4524620000000 1.0
C      1  0.5982470000000  0.4685990000000  0.4932530000000 1.0
C      1  0.3928680000000  0.5151750000000  0.4350900000000 1.0
C      1  0.4674300000000  0.4770860000000  0.3988870000000 1.0
C      1  0.4229090000000  0.4905100000000  0.5601990000000 1.0
C      1  0.4705250000000  0.5965210000000  0.4620870000000 1.0
C      1  0.4358630000000  0.4872550000000  0.4410270000000 1.0
C      1  0.5885940000000  0.5052800000000  0.4825870000000 1.0
C      1  0.4836480000000  0.5847150000000  0.4907750000000 1.0
C      1  0.5880060000000  0.5094930000000  0.5553300000000 1.0
C      1  0.4826660000000  0.5416000000000  0.4082150000000 1.0
C      1  0.5361420000000  0.4629590000000  0.5281540000000 1.0
C      1  0.4756560000000  0.5502680000000  0.5271360000000 1.0
C      1  0.5669290000000  0.4828070000000  0.4962040000000 1.0
C      1  0.4057340000000  0.4422460000000  0.4709970000000 1.0
C      1  0.4003970000000  0.4758000000000  0.5408170000000 1.0
C      1  0.5154080000000  0.5780110000000  0.5031470000000 1.0
C      1  0.5165430000000  0.4356940000000  0.4636720000000 1.0
C      1  0.4185290000000  0.5592520000000  0.5335290000000 1.0
C      1  0.5979100000000  0.5349490000000  0.5263700000000 1.0
C      1  0.4730020000000  0.4676750000000  0.4664740000000 1.0
C      1  0.5092600000000  0.4251700000000  0.5619750000000 1.0
C      1  0.5543760000000  0.4600890000000  0.5812020000000 1.0
C      1  0.5713620000000  0.5002270000000  0.5333370000000 1.0
C      1  0.4201360000000  0.4489970000000  0.5483080000000 1.0
C      1  0.5005850000000  0.4532280000000  0.5703710000000 1.0
C      1  0.5615420000000  0.4993290000000  0.5835090000000 1.0
C      1  0.4421760000000  0.4377290000000  0.4223290000000 1.0
C      1  0.4432490000000  0.5515840000000  0.4369390000000 1.0
C      1  0.4896120000000  0.6056240000000  0.5218350000000 1.0
C      1  0.5019550000000  0.5206850000000  0.4252260000000 1.0
C      1  0.5655910000000  0.4666450000000  0.5334710000000 1.0
C      1  0.5379300000000  0.4992290000000  0.3876810000000 1.0
C      1  0.4510100000000  0.4612540000000  0.4453750000000 1.0
C      1  0.4973110000000  0.5933510000000  0.5569400000000 1.0
C      1  0.5425620000000  0.6063300000000  0.5093250000000 1.0
C      1  0.5410120000000  0.5602550000000  0.5781510000000 1.0
C      1  0.4663970000000  0.4053570000000  0.4713560000000 1.0
C      1  0.5288390000000  0.4702580000000  0.4294090000000 1.0
C      1  0.4907900000000  0.4080890000000  0.4509360000000 1.0
C      1  0.5340950000000  0.5929650000000  0.4789490000000 1.0
C      1  0.4635010000000  0.4889990000000  0.5857010000000 1.0
C      1  0.4047410000000  0.4439980000000  0.5011590000000 1.0
C      1  0.5263530000000  0.5293060000000  0.5234000000000 1.0
C      1  0.5306990000000  0.3984650000000  0.4610050000000 1.0
C      1  0.4027470000000  0.5351680000000  0.5231440000000 1.0
C      1  0.4910870000000  0.4931640000000  0.4995230000000 1.0
C      1  0.5869340000000  0.5400980000000  0.5584450000000 1.0
C      1  0.4951780000000  0.4640850000000  0.4315380000000 1.0
C      1  0.5137020000000  0.4842270000000  0.5198720000000 1.0
C      1  0.4261310000000  0.4277430000000  0.5223630000000 1.0
C      1  0.5404620000000  0.4884460000000  0.6053380000000 1.0
C      1  0.6179460000000  0.5117070000000  0.5188840000000 1.0
C      1  0.4794890000000  0.4452380000000  0.5141130000000 1.0
C      1  0.4556350000000  0.5580690000000  0.5660210000000 1.0
C      1  0.5109550000000  0.4808530000000  0.5533660000000 1.0
C      1  0.5767770000000  0.4493960000000  0.4479730000000 1.0
C      1  0.4836280000000  0.5534830000000  0.4961810000000 1.0
C      1  0.5262370000000  0.4534140000000  0.4020710000000 1.0
C      1  0.5265620000000  0.5117660000000  0.6167490000000 1.0
C      1  0.5419120000000  0.5348580000000  0.4966440000000 1.0
C      1  0.4524540000000  0.4064510000000  0.5171500000000 1.0
C      1  0.3964720000000  0.4766420000000  0.5075010000000 1.0
C      1  0.5104910000000  0.5409040000000  0.4888500000000 1.0
C      1  0.4598630000000  0.5895550000000  0.5257420000000 1.0
C      1  0.5025850000000  0.3914390000000  0.4783380000000 1.0
C      1  0.5783280000000  0.4740950000000  0.5706070000000 1.0
C      1  0.5182790000000  0.4808420000000  0.3923120000000 1.0
C      1  0.5020920000000  0.5668660000000  0.5724230000000 1.0
C      1  0.4557250000000  0.5321560000000  0.5434590000000 1.0
C      1  0.5818850000000  0.5541620000000  0.4604320000000 1.0
C      1  0.5639010000000  0.5808920000000  0.4673900000000 1.0
C      1  0.4224220000000  0.4860920000000  0.4124810000000 1.0
C      1  0.4762010000000  0.4926660000000  0.4346390000000 1.0
C      1  0.5690600000000  0.5251210000000  0.5111580000000 1.0
C      1  0.4073260000000  0.5338680000000  0.4930450000000 1.0
C      1  0.4647480000000  0.4796520000000  0.5076730000000 1.0
C      1  0.4507780000000  0.4825750000000  0.5574670000000 1.0
C      1  0.5746220000000  0.4368790000000  0.5223360000000 1.0
C      1  0.5382740000000  0.5468660000000  0.5468870000000 1.0
C      1  0.5866110000000  0.4781120000000  0.4621370000000 1.0
C      1  0.4536080000000  0.4334310000000  0.4739950000000 1.0
C      1  0.5192850000000  0.4274220000000  0.4112230000000 1.0
C      1  0.3972770000000  0.4813920000000  0.4351270000000 1.0
C      1  0.5215940000000  0.6029350000000  0.5340620000000 1.0
C      1  0.4276190000000  0.4660860000000  0.5132530000000 1.0
C      1  0.5183020000000  0.5461190000000  0.4588870000000 1.0
C      1  0.5322900000000  0.5018470000000  0.5669010000000 1.0
C      1  0.4308290000000  0.4350230000000  0.4534650000000 1.0
C      1  0.5237160000000  0.4932710000000  0.4611680000000 1.0
C      1  0.5174970000000  0.5455500000000  0.4092650000000 1.0
C      1  0.4409220000000  0.5801770000000  0.4553620000000 1.0
C      1  0.6093620000000  0.4838670000000  0.5215660000000 1.0
C      1  0.5426430000000  0.5071250000000  0.4363620000000 1.0
C      1  0.4965100000000  0.4914620000000  0.5811550000000 1.0
C      1  0.4687290000000  0.4566280000000  0.5819490000000 1.0
C      1  0.4395430000000  0.5149110000000  0.4513620000000 1.0
C      1  0.5884970000000  0.4396810000000  0.4975260000000 1.0
C      1  0.5466380000000  0.5105250000000  0.4759110000000 1.0
C      1  0.4928290000000  0.5428860000000  0.6028570000000 1.0
C      1  0.4526090000000  0.4187410000000  0.5724660000000 1.0
C      1  0.5230620000000  0.4643300000000  0.5935290000000 1.0
C      1  0.4391330000000  0.4463730000000  0.5703870000000 1.0
C      1  0.4904870000000  0.5286000000000  0.4565260000000 1.0
C      1  0.5668730000000  0.5565520000000  0.5387900000000 1.0
C      1  0.4606340000000  0.4278240000000  0.5424230000000 1.0
C      1  0.5837260000000  0.5622720000000  0.5110520000000 1.0
C      1  0.5566900000000  0.4575180000000  0.4811890000000 1.0
C      1  0.4941110000000  0.4940030000000  0.4054150000000 1.0
C      1  0.5079390000000  0.5449670000000  0.5551830000000 1.0
END
