TITL C-2778431-5191-303 -0.00501675344256854 125000 -79.2445739774379 0 0 16 (C1) n - 1
REM
REM in /home/nfs/bkarasulu/CARBON/AIRSS/Generating-Clusters/REBO/Only-C1/SD-CG/HFTN-CG
REM
REM
REM
REM
REM
REM ./C.cell (11c1c37f851c82e70ff6c80c92926a4b)
REM
REM compiler GCC version 9.2.1 20190827 (Red Hat 9.2.1-1)
REM options -cpp -mtune=generic -march=x86-64 -g -O0 -fpre-include=/usr/include/finclude/math-vector-fortran.h
REM seed 1229099758 1059408550 1177771535 1207237464 -1995160797 225303243 1077712196 -57502262 1839371700 -1965427535 -1477232604 -1192831307 -491915434 1172332754 2007471750 1251983494 -1083908269 -1685809731 489938141 -1250638201 -181052905 -1597063238 -1145373388 -1863657694 -717398849 725569255 2063264002 2019420486 537643993 -455138445 999454645 -788920644 -434166870
REM
CELL 1.54180   50.00000   50.00000   50.00000   90.00000   90.00000   90.00000
LATT -1
SFAC C  
C      1  0.4980110000000  0.5303790000000  0.5060810000000 1.0
C      1  0.4994900000000  0.5853180000000  0.5257150000000 1.0
C      1  0.4800880000000  0.5155400000000  0.4894990000000 1.0
C      1  0.4921980000000  0.5568600000000  0.5113440000000 1.0
C      1  0.5216640000000  0.5191060000000  0.5174720000000 1.0
C      1  0.4695540000000  0.4156930000000  0.4967780000000 1.0
C      1  0.5013220000000  0.4629500000000  0.4852830000000 1.0
C      1  0.4852560000000  0.4334860000000  0.4841900000000 1.0
C      1  0.5255540000000  0.4665660000000  0.5021090000000 1.0
C      1  0.5280960000000  0.4922880000000  0.5124920000000 1.0
C      1  0.4729140000000  0.5830390000000  0.5078340000000 1.0
C      1  0.5016110000000  0.4419240000000  0.4585460000000 1.0
C      1  0.5377810000000  0.5345940000000  0.5331120000000 1.0
C      1  0.5431970000000  0.4458070000000  0.5064060000000 1.0
C      1  0.4579040000000  0.5277920000000  0.4793870000000 1.0
C      1  0.4853590000000  0.4886590000000  0.4837510000000 1.0
END
