TITL C-2778423-5760-678 -0.00422698065159816 125000 -801.54301058282 0 0 137 (C1) n - 1
REM
REM in /home/nfs/bkarasulu/CARBON/AIRSS/Generating-Clusters/REBO/Only-C1/SD-CG/HFTN-CG
REM
REM
REM
REM
REM
REM ./C.cell (11c1c37f851c82e70ff6c80c92926a4b)
REM
REM compiler GCC version 9.2.1 20190827 (Red Hat 9.2.1-1)
REM options -cpp -mtune=generic -march=x86-64 -g -O0 -fpre-include=/usr/include/finclude/math-vector-fortran.h
REM seed -294028108 -149704776 441103111 313695029 -829369839 -1286150436 -1425505273 886323236 -99710607 2103353303 1723883656 -2086022674 -1186569111 41826204 -1934371800 690211716 -1824979488 1409104616 -20383789 -1500232180 -1184783959 -1434892412 -468243150 1877358498 -1880875968 -1206214329 -642301894 583758421 507510940 -500046661 879998801 937421760 -943287978
REM
CELL 1.54180   50.00000   50.00000   50.00000   90.00000   90.00000   90.00000
LATT -1
SFAC C  
C      1  0.5194820000000  0.4422240000000  0.4611070000000 1.0
C      1  0.4774080000000  0.4755590000000  0.5027900000000 1.0
C      1  0.4229970000000  0.4648340000000  0.5500510000000 1.0
C      1  0.4727010000000  0.4257520000000  0.5854750000000 1.0
C      1  0.5658780000000  0.5645700000000  0.5055470000000 1.0
C      1  0.5239350000000  0.4721150000000  0.5598210000000 1.0
C      1  0.5028780000000  0.5209730000000  0.5484580000000 1.0
C      1  0.4322370000000  0.4976480000000  0.4813800000000 1.0
C      1  0.5105890000000  0.3919900000000  0.4647460000000 1.0
C      1  0.5117550000000  0.4560170000000  0.4025440000000 1.0
C      1  0.4440020000000  0.5307610000000  0.5238980000000 1.0
C      1  0.5635290000000  0.5287350000000  0.5719280000000 1.0
C      1  0.5373190000000  0.5944640000000  0.5439690000000 1.0
C      1  0.6005120000000  0.5037870000000  0.5057520000000 1.0
C      1  0.4626370000000  0.4176800000000  0.5582350000000 1.0
C      1  0.4102340000000  0.5358760000000  0.5233300000000 1.0
C      1  0.5713640000000  0.4524670000000  0.5559740000000 1.0
C      1  0.4302050000000  0.4731620000000  0.4589900000000 1.0
C      1  0.5203150000000  0.5216960000000  0.4448880000000 1.0
C      1  0.5559170000000  0.4793010000000  0.4061410000000 1.0
C      1  0.4116430000000  0.5343160000000  0.4897980000000 1.0
C      1  0.4436260000000  0.4394990000000  0.5491590000000 1.0
C      1  0.5097480000000  0.4949360000000  0.5883480000000 1.0
C      1  0.5133220000000  0.5672500000000  0.4924550000000 1.0
C      1  0.4418180000000  0.5068540000000  0.4272140000000 1.0
C      1  0.4265090000000  0.5446160000000  0.4631080000000 1.0
C      1  0.5673570000000  0.5102860000000  0.4421030000000 1.0
C      1  0.4229460000000  0.4318120000000  0.5278690000000 1.0
C      1  0.4806260000000  0.4994450000000  0.5739770000000 1.0
C      1  0.5189720000000  0.5986320000000  0.4876860000000 1.0
C      1  0.5788200000000  0.4377020000000  0.4985120000000 1.0
C      1  0.5854490000000  0.5052650000000  0.5584670000000 1.0
C      1  0.4835700000000  0.3877970000000  0.4676460000000 1.0
C      1  0.4739230000000  0.5382880000000  0.4223990000000 1.0
C      1  0.5504670000000  0.4204020000000  0.5005280000000 1.0
C      1  0.4599670000000  0.5991640000000  0.4750380000000 1.0
C      1  0.4853690000000  0.4933920000000  0.4535930000000 1.0
C      1  0.4396700000000  0.4776150000000  0.4333560000000 1.0
C      1  0.4579210000000  0.5672790000000  0.5240840000000 1.0
C      1  0.4923520000000  0.5906670000000  0.4679030000000 1.0
C      1  0.5206650000000  0.4957540000000  0.4350220000000 1.0
C      1  0.5156400000000  0.6050680000000  0.5209410000000 1.0
C      1  0.4516790000000  0.4612670000000  0.5166000000000 1.0
C      1  0.4872660000000  0.4466250000000  0.4602090000000 1.0
C      1  0.5844000000000  0.5460070000000  0.5211030000000 1.0
C      1  0.4475280000000  0.4181820000000  0.4805550000000 1.0
C      1  0.4884720000000  0.5059110000000  0.5147850000000 1.0
C      1  0.4280840000000  0.5602730000000  0.5389650000000 1.0
C      1  0.4597520000000  0.5256950000000  0.5678570000000 1.0
C      1  0.5964990000000  0.4944050000000  0.4804350000000 1.0
C      1  0.4411490000000  0.5725150000000  0.4715470000000 1.0
C      1  0.5822790000000  0.4910180000000  0.5275100000000 1.0
C      1  0.4712290000000  0.4589940000000  0.5444500000000 1.0
C      1  0.5476520000000  0.5971050000000  0.5128500000000 1.0
C      1  0.5098430000000  0.4267960000000  0.5448700000000 1.0
C      1  0.4675290000000  0.4390470000000  0.4404490000000 1.0
C      1  0.4199580000000  0.4667210000000  0.4896830000000 1.0
C      1  0.4317380000000  0.4817370000000  0.5716600000000 1.0
C      1  0.5672690000000  0.5369430000000  0.4500490000000 1.0
C      1  0.5132830000000  0.4063760000000  0.5040010000000 1.0
C      1  0.5176250000000  0.4993880000000  0.5006340000000 1.0
C      1  0.5008330000000  0.5729010000000  0.4412430000000 1.0
C      1  0.5541310000000  0.4334280000000  0.5663460000000 1.0
C      1  0.4083970000000  0.4589250000000  0.5198930000000 1.0
C      1  0.4466580000000  0.4233520000000  0.4524380000000 1.0
C      1  0.4735510000000  0.4543910000000  0.5966160000000 1.0
C      1  0.4508310000000  0.5491570000000  0.5587110000000 1.0
C      1  0.5325620000000  0.5497880000000  0.4348860000000 1.0
C      1  0.4120900000000  0.5053030000000  0.5075570000000 1.0
C      1  0.5143780000000  0.4754800000000  0.4559810000000 1.0
C      1  0.5477130000000  0.4469290000000  0.5200690000000 1.0
C      1  0.5296630000000  0.4434730000000  0.5751600000000 1.0
C      1  0.4788130000000  0.4709960000000  0.4730580000000 1.0
C      1  0.5012630000000  0.5272410000000  0.4674200000000 1.0
C      1  0.4854170000000  0.4046990000000  0.5113010000000 1.0
C      1  0.5156390000000  0.5558190000000  0.4648160000000 1.0
C      1  0.4859340000000  0.5642740000000  0.5045430000000 1.0
C      1  0.5524110000000  0.5673130000000  0.4544350000000 1.0
C      1  0.4586560000000  0.5181230000000  0.6069720000000 1.0
C      1  0.4819820000000  0.4724920000000  0.4041490000000 1.0
C      1  0.5049850000000  0.5343610000000  0.5782950000000 1.0
C      1  0.4524730000000  0.5053750000000  0.5316680000000 1.0
C      1  0.4822660000000  0.4121060000000  0.5387410000000 1.0
C      1  0.5277020000000  0.5794050000000  0.5643460000000 1.0
C      1  0.4854580000000  0.5670210000000  0.5441780000000 1.0
C      1  0.5395610000000  0.4782730000000  0.5897810000000 1.0
C      1  0.4859620000000  0.5380590000000  0.5257270000000 1.0
C      1  0.5515130000000  0.5030630000000  0.5214630000000 1.0
C      1  0.4732340000000  0.5125460000000  0.4373770000000 1.0
C      1  0.4918370000000  0.4444940000000  0.5627940000000 1.0
C      1  0.4249870000000  0.5357110000000  0.4337970000000 1.0
C      1  0.5499550000000  0.5276670000000  0.4010120000000 1.0
C      1  0.4542520000000  0.5142480000000  0.3973680000000 1.0
C      1  0.6050520000000  0.5319060000000  0.5093920000000 1.0
C      1  0.4383520000000  0.5092600000000  0.5850380000000 1.0
C      1  0.4367850000000  0.5549210000000  0.5003310000000 1.0
C      1  0.5211130000000  0.5410000000000  0.4042850000000 1.0
C      1  0.5460140000000  0.5037710000000  0.5608650000000 1.0
C      1  0.5672300000000  0.4611240000000  0.4567930000000 1.0
C      1  0.4723790000000  0.5961370000000  0.5020620000000 1.0
C      1  0.5689300000000  0.4902660000000  0.4654620000000 1.0
C      1  0.5269490000000  0.4173700000000  0.4762490000000 1.0
C      1  0.5584580000000  0.5456380000000  0.4797600000000 1.0
C      1  0.4453710000000  0.5429830000000  0.4110870000000 1.0
C      1  0.5072680000000  0.4711030000000  0.5145190000000 1.0
C      1  0.5439240000000  0.4519830000000  0.4430780000000 1.0
C      1  0.5233870000000  0.4982330000000  0.5399780000000 1.0
C      1  0.4603050000000  0.4610390000000  0.4228150000000 1.0
C      1  0.5672910000000  0.4789910000000  0.5700950000000 1.0
C      1  0.5607980000000  0.5055550000000  0.4151950000000 1.0
C      1  0.4738900000000  0.5344460000000  0.4707930000000 1.0
C      1  0.4479690000000  0.5223390000000  0.4732440000000 1.0
C      1  0.5364290000000  0.5260370000000  0.4926700000000 1.0
C      1  0.5121590000000  0.4875480000000  0.4097200000000 1.0
C      1  0.5841410000000  0.4448640000000  0.4726790000000 1.0
C      1  0.4721400000000  0.5630490000000  0.4671740000000 1.0
C      1  0.4829030000000  0.5294330000000  0.6002410000000 1.0
C      1  0.5391350000000  0.4587190000000  0.4160950000000 1.0
C      1  0.4355970000000  0.4385690000000  0.4988290000000 1.0
C      1  0.4685870000000  0.4008460000000  0.4884470000000 1.0
C      1  0.4878390000000  0.5961200000000  0.5281700000000 1.0
C      1  0.4961960000000  0.5556680000000  0.4193380000000 1.0
C      1  0.4774170000000  0.4905990000000  0.5433430000000 1.0
C      1  0.5689150000000  0.5271320000000  0.5381990000000 1.0
C      1  0.5207650000000  0.4505670000000  0.5267480000000 1.0
C      1  0.5042240000000  0.4609790000000  0.5905300000000 1.0
C      1  0.5003140000000  0.5204730000000  0.3905610000000 1.0
C      1  0.4358270000000  0.4876040000000  0.5197850000000 1.0
C      1  0.5340820000000  0.5537800000000  0.5098710000000 1.0
C      1  0.4598380000000  0.4758690000000  0.5842520000000 1.0
C      1  0.5490240000000  0.4959860000000  0.4881770000000 1.0
C      1  0.5323890000000  0.4110530000000  0.5278130000000 1.0
C      1  0.5782000000000  0.4589960000000  0.5252360000000 1.0
C      1  0.5057170000000  0.5633850000000  0.5663500000000 1.0
C      1  0.5330620000000  0.5202520000000  0.5855350000000 1.0
C      1  0.5495410000000  0.5843270000000  0.4820190000000 1.0
C      1  0.4794770000000  0.5030190000000  0.3926020000000 1.0
END
