TITL C-2778436-5916-1305 0.000984887175907066 125000 -715.931149981732 0 0 123 (C1) n - 1
REM
REM in /home/nfs/bkarasulu/CARBON/AIRSS/Generating-Clusters/REBO/Only-C1/SD-CG/HFTN-CG
REM
REM
REM
REM
REM
REM ./C.cell (11c1c37f851c82e70ff6c80c92926a4b)
REM
REM compiler GCC version 9.2.1 20190827 (Red Hat 9.2.1-1)
REM options -cpp -mtune=generic -march=x86-64 -g -O0 -fpre-include=/usr/include/finclude/math-vector-fortran.h
REM seed 336734585 281296437 -436408695 1665711777 -1619456102 -163328467 1764325100 -1063359345 139545879 -812411035 -1329338707 348471670 -290427320 -1198422073 1677528391 -1849540597 673017964 -409187561 757851368 1560453100 -1956724824 1266736877 570520182 -1683882299 1673890365 -1485367739 2021053185 -611092171 232424422 -27976254 1772688591 788549951 824379906
REM
CELL 1.54180   50.00000   50.00000   50.00000   90.00000   90.00000   90.00000
LATT -1
SFAC C  
C      1  0.4638410000000  0.5594740000000  0.4577890000000 1.0
C      1  0.5172760000000  0.5428610000000  0.4360680000000 1.0
C      1  0.4134240000000  0.4626540000000  0.5016870000000 1.0
C      1  0.5289570000000  0.4421390000000  0.5649510000000 1.0
C      1  0.5283330000000  0.5909660000000  0.5181810000000 1.0
C      1  0.4511590000000  0.4261450000000  0.4414690000000 1.0
C      1  0.4679200000000  0.4689360000000  0.4933410000000 1.0
C      1  0.4338560000000  0.5579970000000  0.4529690000000 1.0
C      1  0.5075710000000  0.4121460000000  0.4686390000000 1.0
C      1  0.4922130000000  0.4080930000000  0.5181630000000 1.0
C      1  0.5147730000000  0.5085560000000  0.4975240000000 1.0
C      1  0.4626000000000  0.4894660000000  0.4475320000000 1.0
C      1  0.5068680000000  0.5047220000000  0.5488610000000 1.0
C      1  0.4294110000000  0.4841510000000  0.5156350000000 1.0
C      1  0.4252890000000  0.4685790000000  0.5561010000000 1.0
C      1  0.4176770000000  0.4660300000000  0.4740830000000 1.0
C      1  0.4765820000000  0.5901170000000  0.4946160000000 1.0
C      1  0.5670060000000  0.4793660000000  0.5654330000000 1.0
C      1  0.5619950000000  0.5256100000000  0.4642010000000 1.0
C      1  0.4147180000000  0.4519600000000  0.5337600000000 1.0
C      1  0.4564060000000  0.4885660000000  0.5706790000000 1.0
C      1  0.5445160000000  0.4166110000000  0.5052720000000 1.0
C      1  0.4674060000000  0.4500680000000  0.4574840000000 1.0
C      1  0.5060610000000  0.4267500000000  0.4411880000000 1.0
C      1  0.4547620000000  0.4375420000000  0.4950930000000 1.0
C      1  0.5011580000000  0.4803150000000  0.5119240000000 1.0
C      1  0.5552200000000  0.5113600000000  0.5449360000000 1.0
C      1  0.5225630000000  0.4708310000000  0.4876800000000 1.0
C      1  0.5381270000000  0.4967300000000  0.4503860000000 1.0
C      1  0.4164170000000  0.4912690000000  0.4532270000000 1.0
C      1  0.5419810000000  0.5755880000000  0.4741850000000 1.0
C      1  0.4603440000000  0.5149170000000  0.4786530000000 1.0
C      1  0.4719530000000  0.5622560000000  0.5124130000000 1.0
C      1  0.5817610000000  0.4749260000000  0.4687500000000 1.0
C      1  0.4137510000000  0.5505870000000  0.4709530000000 1.0
C      1  0.4549950000000  0.4143460000000  0.4701180000000 1.0
C      1  0.5014620000000  0.4414480000000  0.5612090000000 1.0
C      1  0.5158060000000  0.5336620000000  0.5420710000000 1.0
C      1  0.5716920000000  0.5032780000000  0.5802690000000 1.0
C      1  0.4770400000000  0.5706590000000  0.5510350000000 1.0
C      1  0.4949310000000  0.5014850000000  0.4153410000000 1.0
C      1  0.5674160000000  0.5720190000000  0.4938930000000 1.0
C      1  0.5727490000000  0.4384530000000  0.5437640000000 1.0
C      1  0.5816510000000  0.5027190000000  0.4518570000000 1.0
C      1  0.4981640000000  0.5926300000000  0.4757170000000 1.0
C      1  0.4616860000000  0.4505150000000  0.5403730000000 1.0
C      1  0.5754610000000  0.5539030000000  0.4722210000000 1.0
C      1  0.4911400000000  0.4770610000000  0.4390510000000 1.0
C      1  0.4368650000000  0.4840650000000  0.4268390000000 1.0
C      1  0.4391190000000  0.4391880000000  0.5213340000000 1.0
C      1  0.5196680000000  0.5219310000000  0.4602860000000 1.0
C      1  0.5286190000000  0.4968760000000  0.4174800000000 1.0
C      1  0.5314420000000  0.4661680000000  0.4257220000000 1.0
C      1  0.5341940000000  0.5705380000000  0.4441500000000 1.0
C      1  0.4565270000000  0.4562250000000  0.4261540000000 1.0
C      1  0.4812990000000  0.5066590000000  0.5036420000000 1.0
C      1  0.5600000000000  0.4823540000000  0.4937410000000 1.0
C      1  0.4364690000000  0.5160960000000  0.4616640000000 1.0
C      1  0.5447230000000  0.5081520000000  0.4880100000000 1.0
C      1  0.4623790000000  0.5319800000000  0.5145650000000 1.0
C      1  0.5908520000000  0.4775060000000  0.5075370000000 1.0
C      1  0.5015630000000  0.5397120000000  0.4938970000000 1.0
C      1  0.4748740000000  0.5432870000000  0.4783700000000 1.0
C      1  0.5480110000000  0.5256700000000  0.5749420000000 1.0
C      1  0.4977170000000  0.5333110000000  0.5797340000000 1.0
C      1  0.5070880000000  0.5614040000000  0.5883240000000 1.0
C      1  0.5489120000000  0.4257890000000  0.5535570000000 1.0
C      1  0.5197300000000  0.4877700000000  0.5896020000000 1.0
C      1  0.5182820000000  0.4502170000000  0.4633330000000 1.0
C      1  0.5475770000000  0.5388460000000  0.5319420000000 1.0
C      1  0.5929180000000  0.5028980000000  0.4847620000000 1.0
C      1  0.5305830000000  0.5515600000000  0.5661180000000 1.0
C      1  0.5565180000000  0.5346630000000  0.5025840000000 1.0
C      1  0.5693400000000  0.4826970000000  0.5325050000000 1.0
C      1  0.5022740000000  0.5807290000000  0.5307450000000 1.0
C      1  0.5237000000000  0.5946780000000  0.4886390000000 1.0
C      1  0.4886750000000  0.4406150000000  0.4743700000000 1.0
C      1  0.5549820000000  0.5703820000000  0.5223690000000 1.0
C      1  0.4444070000000  0.5485050000000  0.5461210000000 1.0
C      1  0.3998870000000  0.5199870000000  0.5060370000000 1.0
C      1  0.4050350000000  0.5173410000000  0.4725290000000 1.0
C      1  0.4327280000000  0.5012370000000  0.5513940000000 1.0
C      1  0.5665320000000  0.4473410000000  0.4724970000000 1.0
C      1  0.4663700000000  0.4839500000000  0.4086710000000 1.0
C      1  0.5401540000000  0.4014300000000  0.5420880000000 1.0
C      1  0.5319350000000  0.4878700000000  0.5446390000000 1.0
C      1  0.5032520000000  0.5808060000000  0.4483720000000 1.0
C      1  0.4700370000000  0.5200590000000  0.4403370000000 1.0
C      1  0.4917930000000  0.5102260000000  0.4648420000000 1.0
C      1  0.5374030000000  0.4695100000000  0.5705710000000 1.0
C      1  0.4978130000000  0.4466310000000  0.5070670000000 1.0
C      1  0.4930560000000  0.4799920000000  0.4730510000000 1.0
C      1  0.5499530000000  0.5412130000000  0.4369440000000 1.0
C      1  0.5370680000000  0.5795400000000  0.5497840000000 1.0
C      1  0.5321340000000  0.5453220000000  0.4817740000000 1.0
C      1  0.4870810000000  0.4919060000000  0.5640980000000 1.0
C      1  0.5665260000000  0.4333730000000  0.4970920000000 1.0
C      1  0.4423520000000  0.5343970000000  0.4352890000000 1.0
C      1  0.4750150000000  0.4103370000000  0.4960530000000 1.0
C      1  0.4645110000000  0.5909180000000  0.5264780000000 1.0
C      1  0.4345140000000  0.5501060000000  0.5184940000000 1.0
C      1  0.4991490000000  0.5491940000000  0.5237010000000 1.0
C      1  0.4877390000000  0.4346080000000  0.5352700000000 1.0
C      1  0.5804160000000  0.4471490000000  0.5179230000000 1.0
C      1  0.5060880000000  0.5829050000000  0.5642490000000 1.0
C      1  0.4628600000000  0.5110560000000  0.5388340000000 1.0
C      1  0.4849870000000  0.4615900000000  0.5729990000000 1.0
C      1  0.4124130000000  0.5057870000000  0.5261040000000 1.0
C      1  0.5850260000000  0.5264980000000  0.4992570000000 1.0
C      1  0.4478470000000  0.4726100000000  0.4691450000000 1.0
C      1  0.4518610000000  0.4554780000000  0.5720240000000 1.0
C      1  0.5190810000000  0.4247070000000  0.4937630000000 1.0
C      1  0.5052740000000  0.4520640000000  0.4257500000000 1.0
C      1  0.4833970000000  0.5639060000000  0.4374400000000 1.0
C      1  0.4597140000000  0.4802510000000  0.5243480000000 1.0
C      1  0.5191460000000  0.5149140000000  0.5854390000000 1.0
C      1  0.5454750000000  0.4645060000000  0.4555760000000 1.0
C      1  0.5399560000000  0.4727550000000  0.5170140000000 1.0
C      1  0.4744440000000  0.5372930000000  0.5575520000000 1.0
C      1  0.5190730000000  0.3973020000000  0.5223470000000 1.0
C      1  0.4915430000000  0.5348440000000  0.4213460000000 1.0
C      1  0.4133900000000  0.5457900000000  0.5003490000000 1.0
C      1  0.5585800000000  0.5103640000000  0.4276860000000 1.0
END
