TITL C-2778435-5768-721 -0.00260516354119297 125000 -814.90347213487 0 0 139 (C1) n - 1
REM
REM in /home/nfs/bkarasulu/CARBON/AIRSS/Generating-Clusters/REBO/Only-C1/SD-CG/HFTN-CG
REM
REM
REM
REM
REM
REM ./C.cell (11c1c37f851c82e70ff6c80c92926a4b)
REM
REM compiler GCC version 9.2.1 20190827 (Red Hat 9.2.1-1)
REM options -cpp -mtune=generic -march=x86-64 -g -O0 -fpre-include=/usr/include/finclude/math-vector-fortran.h
REM seed -896933401 -771341971 1661103718 1934703058 2079922773 -520682794 839447871 1285317253 384076047 1416087746 1752884595 -1448097988 -2080812465 377235091 322212005 -972178003 972297375 1876849304 103653265 -1918850763 -666889735 1074649157 1086946281 262182366 -725580088 -340385214 1569473346 -672863129 -1498588498 579736535 935999770 -551212945 1885714906
REM
CELL 1.54180   50.00000   50.00000   50.00000   90.00000   90.00000   90.00000
LATT -1
SFAC C  
C      1  0.4662430000000  0.6287670000000  0.5289490000000 1.0
C      1  0.4590660000000  0.4221700000000  0.4649840000000 1.0
C      1  0.4801220000000  0.5807370000000  0.4517970000000 1.0
C      1  0.5743310000000  0.4578120000000  0.4989660000000 1.0
C      1  0.4155160000000  0.5085030000000  0.4769960000000 1.0
C      1  0.4655070000000  0.4618480000000  0.4256680000000 1.0
C      1  0.4579760000000  0.5729410000000  0.5270690000000 1.0
C      1  0.5303770000000  0.5613930000000  0.5150920000000 1.0
C      1  0.5711350000000  0.4863420000000  0.5751000000000 1.0
C      1  0.4783430000000  0.4262320000000  0.5534830000000 1.0
C      1  0.5084560000000  0.4852780000000  0.4065810000000 1.0
C      1  0.4972550000000  0.5480250000000  0.4670110000000 1.0
C      1  0.4146330000000  0.4749290000000  0.4266200000000 1.0
C      1  0.4699330000000  0.4925250000000  0.5853390000000 1.0
C      1  0.5205710000000  0.5535700000000  0.4197050000000 1.0
C      1  0.5284820000000  0.5095100000000  0.4471560000000 1.0
C      1  0.5286600000000  0.5143800000000  0.5851330000000 1.0
C      1  0.4749590000000  0.5719550000000  0.5850610000000 1.0
C      1  0.5206860000000  0.6008010000000  0.4776000000000 1.0
C      1  0.5747150000000  0.5102970000000  0.4895560000000 1.0
C      1  0.4286610000000  0.5044240000000  0.4360860000000 1.0
C      1  0.5421720000000  0.4219610000000  0.5172390000000 1.0
C      1  0.5608380000000  0.4850060000000  0.4495720000000 1.0
C      1  0.5303160000000  0.5487260000000  0.4581260000000 1.0
C      1  0.5889300000000  0.4679060000000  0.4587530000000 1.0
C      1  0.4906790000000  0.4904790000000  0.5557380000000 1.0
C      1  0.6002860000000  0.5173710000000  0.5290450000000 1.0
C      1  0.5352220000000  0.5604390000000  0.5743370000000 1.0
C      1  0.4897610000000  0.5022840000000  0.4892210000000 1.0
C      1  0.5009290000000  0.4735460000000  0.5311640000000 1.0
C      1  0.4675860000000  0.4526010000000  0.4570350000000 1.0
C      1  0.5587830000000  0.5887920000000  0.5104410000000 1.0
C      1  0.5155740000000  0.5418120000000  0.4943790000000 1.0
C      1  0.5475160000000  0.4549470000000  0.4261170000000 1.0
C      1  0.4888540000000  0.5580690000000  0.5045480000000 1.0
C      1  0.4933990000000  0.4390600000000  0.5035870000000 1.0
C      1  0.5237240000000  0.5761990000000  0.4385660000000 1.0
C      1  0.5531620000000  0.5528330000000  0.4941470000000 1.0
C      1  0.4416710000000  0.4959480000000  0.4952590000000 1.0
C      1  0.5477500000000  0.4448340000000  0.5601520000000 1.0
C      1  0.5008350000000  0.4984100000000  0.4359160000000 1.0
C      1  0.5896960000000  0.5441870000000  0.5218730000000 1.0
C      1  0.4519060000000  0.4862170000000  0.4192160000000 1.0
C      1  0.4085540000000  0.4236740000000  0.4792480000000 1.0
C      1  0.5798530000000  0.5032200000000  0.5489650000000 1.0
C      1  0.5289900000000  0.5267790000000  0.5349700000000 1.0
C      1  0.4265250000000  0.4435440000000  0.5613250000000 1.0
C      1  0.5078830000000  0.5662640000000  0.5792140000000 1.0
C      1  0.5319660000000  0.4718400000000  0.4924020000000 1.0
C      1  0.5206740000000  0.4084260000000  0.4973570000000 1.0
C      1  0.5284810000000  0.4819750000000  0.5224880000000 1.0
C      1  0.4408470000000  0.4890440000000  0.5738920000000 1.0
C      1  0.4234060000000  0.5167590000000  0.5677120000000 1.0
C      1  0.5427220000000  0.5374020000000  0.5895640000000 1.0
C      1  0.4933730000000  0.4719100000000  0.5909890000000 1.0
C      1  0.5323970000000  0.4895430000000  0.3992510000000 1.0
C      1  0.4966520000000  0.5815870000000  0.5226780000000 1.0
C      1  0.5444180000000  0.5383070000000  0.4203220000000 1.0
C      1  0.5681560000000  0.5671120000000  0.5283010000000 1.0
C      1  0.4369880000000  0.4450240000000  0.5002380000000 1.0
C      1  0.4806410000000  0.5740720000000  0.5517530000000 1.0
C      1  0.4314280000000  0.4373750000000  0.4647020000000 1.0
C      1  0.4277070000000  0.4653570000000  0.4546140000000 1.0
C      1  0.4497730000000  0.4873250000000  0.4652450000000 1.0
C      1  0.4827890000000  0.5244890000000  0.5082170000000 1.0
C      1  0.5003070000000  0.4419180000000  0.5351950000000 1.0
C      1  0.6091980000000  0.4988900000000  0.5074420000000 1.0
C      1  0.5457540000000  0.5046970000000  0.5505050000000 1.0
C      1  0.4721990000000  0.5610560000000  0.4313730000000 1.0
C      1  0.4362200000000  0.5407700000000  0.5183460000000 1.0
C      1  0.5178860000000  0.4679870000000  0.5882500000000 1.0
C      1  0.5405650000000  0.4866790000000  0.5818890000000 1.0
C      1  0.5571650000000  0.5699520000000  0.4591980000000 1.0
C      1  0.5096880000000  0.3984600000000  0.4725390000000 1.0
C      1  0.5391620000000  0.5106610000000  0.5078500000000 1.0
C      1  0.4930480000000  0.5458180000000  0.4172600000000 1.0
C      1  0.4670910000000  0.4521280000000  0.4901740000000 1.0
C      1  0.4820690000000  0.4821130000000  0.4557350000000 1.0
C      1  0.5153040000000  0.4474270000000  0.4174150000000 1.0
C      1  0.4908220000000  0.5436890000000  0.5625790000000 1.0
C      1  0.5502820000000  0.5901610000000  0.4797340000000 1.0
C      1  0.4462330000000  0.4214300000000  0.5445900000000 1.0
C      1  0.5107920000000  0.4840620000000  0.4723400000000 1.0
C      1  0.4574040000000  0.4520670000000  0.5538340000000 1.0
C      1  0.5250120000000  0.4423410000000  0.4959310000000 1.0
C      1  0.4340360000000  0.5405510000000  0.5784650000000 1.0
C      1  0.5496980000000  0.4729070000000  0.5441420000000 1.0
C      1  0.5755010000000  0.5390370000000  0.4968190000000 1.0
C      1  0.5598950000000  0.4804700000000  0.4826710000000 1.0
C      1  0.5791780000000  0.4669940000000  0.5281780000000 1.0
C      1  0.4987000000000  0.5290220000000  0.5361450000000 1.0
C      1  0.5635310000000  0.4317490000000  0.4946340000000 1.0
C      1  0.4136890000000  0.4687900000000  0.5721010000000 1.0
C      1  0.4095390000000  0.4934760000000  0.5502810000000 1.0
C      1  0.5178180000000  0.4398190000000  0.4473410000000 1.0
C      1  0.5472640000000  0.5065420000000  0.4188580000000 1.0
C      1  0.4107810000000  0.4915040000000  0.5226530000000 1.0
C      1  0.4873390000000  0.5181140000000  0.4145140000000 1.0
C      1  0.4590780000000  0.5141420000000  0.4484930000000 1.0
C      1  0.5339200000000  0.5206000000000  0.4771880000000 1.0
C      1  0.4478420000000  0.5654180000000  0.4972280000000 1.0
C      1  0.4722340000000  0.5682460000000  0.4788460000000 1.0
C      1  0.5714780000000  0.5158010000000  0.4392280000000 1.0
C      1  0.5294200000000  0.4269910000000  0.5446720000000 1.0
C      1  0.5244430000000  0.5930960000000  0.5099560000000 1.0
C      1  0.4840010000000  0.5209150000000  0.4642900000000 1.0
C      1  0.4148390000000  0.4678410000000  0.5041410000000 1.0
C      1  0.4242100000000  0.5318260000000  0.4561540000000 1.0
C      1  0.5771450000000  0.4454450000000  0.5526800000000 1.0
C      1  0.4877620000000  0.4516120000000  0.4102750000000 1.0
C      1  0.5064630000000  0.5928550000000  0.4536930000000 1.0
C      1  0.4817580000000  0.3986550000000  0.4717590000000 1.0
C      1  0.5308930000000  0.4701100000000  0.4524970000000 1.0
C      1  0.4107650000000  0.4782260000000  0.4772650000000 1.0
C      1  0.4544840000000  0.4879890000000  0.5168920000000 1.0
C      1  0.5685210000000  0.4458830000000  0.4478280000000 1.0
C      1  0.4398700000000  0.4166080000000  0.5164410000000 1.0
C      1  0.5574390000000  0.4261650000000  0.4671170000000 1.0
C      1  0.4229830000000  0.5459140000000  0.4870820000000 1.0
C      1  0.4607720000000  0.4071710000000  0.4949670000000 1.0
C      1  0.4819560000000  0.4770830000000  0.5071210000000 1.0
C      1  0.4500840000000  0.5443980000000  0.4385930000000 1.0
C      1  0.4127670000000  0.5200640000000  0.5078630000000 1.0
C      1  0.4716360000000  0.6036850000000  0.5270170000000 1.0
C      1  0.5679810000000  0.4967800000000  0.5180690000000 1.0
C      1  0.5043570000000  0.4118470000000  0.5607060000000 1.0
C      1  0.4596300000000  0.5469010000000  0.5902320000000 1.0
C      1  0.5654390000000  0.5488490000000  0.4391830000000 1.0
C      1  0.5420910000000  0.5554840000000  0.5449200000000 1.0
C      1  0.4109200000000  0.4148200000000  0.5028960000000 1.0
C      1  0.5006510000000  0.5149590000000  0.5735240000000 1.0
C      1  0.4659910000000  0.5044530000000  0.4022210000000 1.0
C      1  0.6053470000000  0.4862300000000  0.4810280000000 1.0
C      1  0.4755240000000  0.5234950000000  0.5935220000000 1.0
C      1  0.3948100000000  0.4659690000000  0.5922110000000 1.0
C      1  0.5302020000000  0.4177150000000  0.4597580000000 1.0
C      1  0.4604840000000  0.4820230000000  0.5480190000000 1.0
C      1  0.5912320000000  0.5072720000000  0.4618070000000 1.0
C      1  0.4659650000000  0.5400890000000  0.5318100000000 1.0
END
