TITL C-2778435-5768-900 0.00147574624041556 125000 -1009.62578401917 0 0 173 (C1) n - 1
REM
REM in /home/nfs/bkarasulu/CARBON/AIRSS/Generating-Clusters/REBO/Only-C1/SD-CG/HFTN-CG
REM
REM
REM
REM
REM
REM ./C.cell (11c1c37f851c82e70ff6c80c92926a4b)
REM
REM compiler GCC version 9.2.1 20190827 (Red Hat 9.2.1-1)
REM options -cpp -mtune=generic -march=x86-64 -g -O0 -fpre-include=/usr/include/finclude/math-vector-fortran.h
REM seed -593017623 1772227810 -2024552805 -942687944 918944687 -1690174300 -311252372 1830323865 -2140318387 1558584424 2054752942 -124449727 -594857565 1686521605 -447565833 -1598590006 1561607367 -887980246 -1535087454 396837908 801702244 1798619616 48375993 -282832579 -866152088 768667230 -500404561 592359287 -1589631620 -1523576366 2047647109 616151434 -497859436
REM
CELL 1.54180   50.00000   50.00000   50.00000   90.00000   90.00000   90.00000
LATT -1
SFAC C  
C      1  0.6036420000000  0.4682320000000  0.4937940000000 1.0
C      1  0.5570070000000  0.4241760000000  0.5437160000000 1.0
C      1  0.5322900000000  0.5046200000000  0.4619970000000 1.0
C      1  0.4882440000000  0.5934380000000  0.5640410000000 1.0
C      1  0.4654430000000  0.4040310000000  0.4510360000000 1.0
C      1  0.4398330000000  0.5380510000000  0.5884600000000 1.0
C      1  0.5171790000000  0.6022970000000  0.5559150000000 1.0
C      1  0.4773520000000  0.5749860000000  0.5304730000000 1.0
C      1  0.5664020000000  0.5607370000000  0.4488590000000 1.0
C      1  0.5007820000000  0.5977700000000  0.4953900000000 1.0
C      1  0.4246030000000  0.4867810000000  0.4863120000000 1.0
C      1  0.5858790000000  0.5892860000000  0.5025870000000 1.0
C      1  0.4901000000000  0.4920800000000  0.5241780000000 1.0
C      1  0.5828890000000  0.4989950000000  0.5671670000000 1.0
C      1  0.4652540000000  0.5380730000000  0.5456670000000 1.0
C      1  0.4661830000000  0.4416950000000  0.5887290000000 1.0
C      1  0.5310380000000  0.4832790000000  0.4854120000000 1.0
C      1  0.5556280000000  0.4830690000000  0.4539960000000 1.0
C      1  0.5712480000000  0.5114090000000  0.4644980000000 1.0
C      1  0.5024680000000  0.3910460000000  0.4845920000000 1.0
C      1  0.4367790000000  0.4727490000000  0.4174360000000 1.0
C      1  0.5178100000000  0.4636910000000  0.5277960000000 1.0
C      1  0.4778530000000  0.4560390000000  0.4489320000000 1.0
C      1  0.3924210000000  0.4926100000000  0.5177140000000 1.0
C      1  0.5360270000000  0.4857240000000  0.4042610000000 1.0
C      1  0.5461470000000  0.5322970000000  0.4683060000000 1.0
C      1  0.4447740000000  0.5203870000000  0.5253860000000 1.0
C      1  0.5019650000000  0.4905140000000  0.6097140000000 1.0
C      1  0.5276680000000  0.4396570000000  0.5798570000000 1.0
C      1  0.4345170000000  0.4228420000000  0.5016030000000 1.0
C      1  0.4913350000000  0.4636480000000  0.3913880000000 1.0
C      1  0.4077830000000  0.5384230000000  0.4886840000000 1.0
C      1  0.5031940000000  0.6036010000000  0.4618940000000 1.0
C      1  0.4703010000000  0.6052950000000  0.5017080000000 1.0
C      1  0.5636650000000  0.5241720000000  0.4130170000000 1.0
C      1  0.5947800000000  0.5440460000000  0.4936090000000 1.0
C      1  0.4820910000000  0.4300680000000  0.4653500000000 1.0
C      1  0.4893300000000  0.5686150000000  0.5794020000000 1.0
C      1  0.4331910000000  0.5722800000000  0.5440230000000 1.0
C      1  0.4443330000000  0.4550990000000  0.5768570000000 1.0
C      1  0.5549510000000  0.5433310000000  0.4970020000000 1.0
C      1  0.5018560000000  0.5005510000000  0.4499220000000 1.0
C      1  0.5775680000000  0.5391690000000  0.4333280000000 1.0
C      1  0.4475420000000  0.4859820000000  0.5745850000000 1.0
C      1  0.3994300000000  0.4893140000000  0.4636880000000 1.0
C      1  0.5213220000000  0.5100280000000  0.3994390000000 1.0
C      1  0.4862520000000  0.4616740000000  0.6002000000000 1.0
C      1  0.4979420000000  0.4776960000000  0.4823670000000 1.0
C      1  0.4925430000000  0.4414130000000  0.5062470000000 1.0
C      1  0.4090750000000  0.5059210000000  0.5359190000000 1.0
C      1  0.5551750000000  0.5815380000000  0.5398480000000 1.0
C      1  0.4697690000000  0.4117000000000  0.5484740000000 1.0
C      1  0.5167410000000  0.5088240000000  0.5488190000000 1.0
C      1  0.4745270000000  0.3940360000000  0.4809040000000 1.0
C      1  0.4459840000000  0.5222760000000  0.4654450000000 1.0
C      1  0.5143530000000  0.4324650000000  0.4279840000000 1.0
C      1  0.5411900000000  0.4708700000000  0.5816320000000 1.0
C      1  0.4835410000000  0.5603440000000  0.4574010000000 1.0
C      1  0.4759520000000  0.5160970000000  0.5123200000000 1.0
C      1  0.5705300000000  0.4552740000000  0.4429100000000 1.0
C      1  0.5199670000000  0.5183060000000  0.6014920000000 1.0
C      1  0.4733690000000  0.5076870000000  0.4079710000000 1.0
C      1  0.4526630000000  0.4706170000000  0.4952710000000 1.0
C      1  0.5732000000000  0.4663210000000  0.5701390000000 1.0
C      1  0.5186140000000  0.5401660000000  0.5530570000000 1.0
C      1  0.4820640000000  0.4893060000000  0.3906560000000 1.0
C      1  0.4970930000000  0.4466910000000  0.5454500000000 1.0
C      1  0.4188570000000  0.4335660000000  0.4732530000000 1.0
C      1  0.5769650000000  0.5589260000000  0.5398300000000 1.0
C      1  0.5227630000000  0.4634560000000  0.4160820000000 1.0
C      1  0.4164190000000  0.5368180000000  0.5368050000000 1.0
C      1  0.6073660000000  0.5001380000000  0.5462890000000 1.0
C      1  0.5806090000000  0.4744060000000  0.4196610000000 1.0
C      1  0.5251510000000  0.4379620000000  0.5075140000000 1.0
C      1  0.5579860000000  0.4372270000000  0.5693740000000 1.0
C      1  0.4448650000000  0.4311880000000  0.4511180000000 1.0
C      1  0.4127010000000  0.5519140000000  0.4586060000000 1.0
C      1  0.4282520000000  0.5063380000000  0.5896890000000 1.0
C      1  0.4431810000000  0.4279710000000  0.5339780000000 1.0
C      1  0.5073610000000  0.5208850000000  0.4238380000000 1.0
C      1  0.4985440000000  0.4092910000000  0.4440000000000 1.0
C      1  0.5068500000000  0.5400330000000  0.4491630000000 1.0
C      1  0.4721620000000  0.4908540000000  0.5923480000000 1.0
C      1  0.5564000000000  0.4705410000000  0.5204210000000 1.0
C      1  0.5191710000000  0.4943890000000  0.5116780000000 1.0
C      1  0.5821100000000  0.4347910000000  0.4945510000000 1.0
C      1  0.4951220000000  0.4862480000000  0.5574950000000 1.0
C      1  0.4436060000000  0.5538180000000  0.5612760000000 1.0
C      1  0.5152450000000  0.3870900000000  0.4582360000000 1.0
C      1  0.5378760000000  0.5257600000000  0.5779610000000 1.0
C      1  0.5945990000000  0.5133460000000  0.5191940000000 1.0
C      1  0.4562580000000  0.4484590000000  0.4240530000000 1.0
C      1  0.4504470000000  0.5719880000000  0.5215470000000 1.0
C      1  0.4951890000000  0.5496500000000  0.5343390000000 1.0
C      1  0.4579870000000  0.5309340000000  0.4359350000000 1.0
C      1  0.6103510000000  0.4988460000000  0.4927140000000 1.0
C      1  0.4693350000000  0.5009190000000  0.4412030000000 1.0
C      1  0.5554700000000  0.4306210000000  0.4736970000000 1.0
C      1  0.4025140000000  0.4651010000000  0.5116370000000 1.0
C      1  0.5967690000000  0.4676350000000  0.5465970000000 1.0
C      1  0.5123120000000  0.4246620000000  0.5563760000000 1.0
C      1  0.6022490000000  0.4464260000000  0.5201220000000 1.0
C      1  0.5737170000000  0.5277000000000  0.5529510000000 1.0
C      1  0.5655560000000  0.5659980000000  0.4773590000000 1.0
C      1  0.5391280000000  0.4838480000000  0.5439880000000 1.0
C      1  0.5824700000000  0.4596110000000  0.4718360000000 1.0
C      1  0.4524060000000  0.5912130000000  0.4866180000000 1.0
C      1  0.5177680000000  0.5605680000000  0.5765190000000 1.0
C      1  0.5025270000000  0.5660600000000  0.4851360000000 1.0
C      1  0.4938440000000  0.5677160000000  0.4236870000000 1.0
C      1  0.4222700000000  0.5157800000000  0.4445450000000 1.0
C      1  0.5854040000000  0.4821900000000  0.5187020000000 1.0
C      1  0.5287110000000  0.5604400000000  0.4629280000000 1.0
C      1  0.5527050000000  0.4612220000000  0.4887210000000 1.0
C      1  0.5428690000000  0.3853510000000  0.4633750000000 1.0
C      1  0.4395870000000  0.4919890000000  0.5435790000000 1.0
C      1  0.4820570000000  0.5395110000000  0.4177970000000 1.0
C      1  0.4772120000000  0.4671730000000  0.5149060000000 1.0
C      1  0.5037030000000  0.4696560000000  0.4432150000000 1.0
C      1  0.5459820000000  0.4324650000000  0.4409690000000 1.0
C      1  0.3958150000000  0.5219960000000  0.4614210000000 1.0
C      1  0.5904020000000  0.5639740000000  0.5127440000000 1.0
C      1  0.4279520000000  0.4451210000000  0.5558160000000 1.0
C      1  0.5937020000000  0.5194820000000  0.4796860000000 1.0
C      1  0.5510260000000  0.4994890000000  0.5697540000000 1.0
C      1  0.4647240000000  0.5356970000000  0.4867940000000 1.0
C      1  0.4790190000000  0.4169960000000  0.5202170000000 1.0
C      1  0.4862280000000  0.6050740000000  0.5317910000000 1.0
C      1  0.4572640000000  0.5760530000000  0.4438360000000 1.0
C      1  0.4611190000000  0.4054050000000  0.5017590000000 1.0
C      1  0.4557900000000  0.4411360000000  0.4822750000000 1.0
C      1  0.5315520000000  0.5934710000000  0.4702720000000 1.0
C      1  0.4039520000000  0.5517390000000  0.5160120000000 1.0
C      1  0.5316110000000  0.5239200000000  0.5123460000000 1.0
C      1  0.4137920000000  0.5282520000000  0.5684000000000 1.0
C      1  0.4874150000000  0.4455200000000  0.4116580000000 1.0
C      1  0.5080280000000  0.4674240000000  0.5777660000000 1.0
C      1  0.4935790000000  0.5234620000000  0.4742940000000 1.0
C      1  0.5313160000000  0.4127640000000  0.5378630000000 1.0
C      1  0.4680760000000  0.4502040000000  0.5394880000000 1.0
C      1  0.4850060000000  0.5958410000000  0.4406900000000 1.0
C      1  0.5462540000000  0.5953430000000  0.5188300000000 1.0
C      1  0.5693920000000  0.4409750000000  0.5235150000000 1.0
C      1  0.4307500000000  0.5163040000000  0.4946830000000 1.0
C      1  0.4479660000000  0.4709320000000  0.4556750000000 1.0
C      1  0.4340300000000  0.4670760000000  0.5229940000000 1.0
C      1  0.5185720000000  0.6071650000000  0.5223120000000 1.0
C      1  0.5487240000000  0.4026690000000  0.4841390000000 1.0
C      1  0.4734280000000  0.5415360000000  0.5845200000000 1.0
C      1  0.4068790000000  0.4942170000000  0.5664080000000 1.0
C      1  0.5251050000000  0.4044160000000  0.5063380000000 1.0
C      1  0.5562600000000  0.5953060000000  0.4893160000000 1.0
C      1  0.5374080000000  0.5363840000000  0.4026100000000 1.0
C      1  0.4326340000000  0.5367590000000  0.4159320000000 1.0
C      1  0.4041470000000  0.4599120000000  0.4804130000000 1.0
C      1  0.5016290000000  0.5380450000000  0.5044800000000 1.0
C      1  0.4861270000000  0.5188290000000  0.5618130000000 1.0
C      1  0.5126490000000  0.4485210000000  0.4790100000000 1.0
C      1  0.4312360000000  0.5026350000000  0.4165210000000 1.0
C      1  0.4714480000000  0.4876560000000  0.4724820000000 1.0
C      1  0.5323750000000  0.4581850000000  0.4544790000000 1.0
C      1  0.5392570000000  0.5824160000000  0.5675950000000 1.0
C      1  0.4503380000000  0.5619420000000  0.4932490000000 1.0
C      1  0.5633790000000  0.4946410000000  0.4101010000000 1.0
C      1  0.5252350000000  0.5608050000000  0.4139030000000 1.0
C      1  0.4319900000000  0.5607930000000  0.4396350000000 1.0
C      1  0.5557650000000  0.5526030000000  0.5671830000000 1.0
C      1  0.4210790000000  0.4758620000000  0.4444330000000 1.0
C      1  0.5419450000000  0.5708730000000  0.4343890000000 1.0
C      1  0.5645770000000  0.5255470000000  0.5216420000000 1.0
C      1  0.4864980000000  0.5195970000000  0.6015730000000 1.0
C      1  0.4739630000000  0.4176820000000  0.5756740000000 1.0
C      1  0.4079890000000  0.4672580000000  0.5456350000000 1.0
END
