TITL C-2778424-3986-200 0.0035009954343712 125000 -855.410768937557 0 0 146 (C1) n - 1
REM
REM in /home/nfs/bkarasulu/CARBON/AIRSS/Generating-Clusters/REBO/Only-C1/SD-CG/HFTN-CG
REM
REM
REM
REM
REM
REM ./C.cell (11c1c37f851c82e70ff6c80c92926a4b)
REM
REM compiler GCC version 9.2.1 20190827 (Red Hat 9.2.1-1)
REM options -cpp -mtune=generic -march=x86-64 -g -O0 -fpre-include=/usr/include/finclude/math-vector-fortran.h
REM seed -1799029850 -1134803070 1612293471 -540482173 2108143200 1398313435 -813686690 -626126482 1847042152 -1550560037 -1589668320 -2110892513 -840719844 2053538622 1474221483 -648555947 -1705966975 -544837475 -1721356089 1874419367 -2065781405 -842405530 693000996 -2085534023 -1180117692 1112836832 -36975817 713886257 1760165001 -1501710413 -2144126929 -384950133 -1333775947
REM
CELL 1.54180   50.00000   50.00000   50.00000   90.00000   90.00000   90.00000
LATT -1
SFAC C  
C      1  0.5356600000000  0.5722870000000  0.4311010000000 1.0
C      1  0.5506190000000  0.4542210000000  0.4192430000000 1.0
C      1  0.5969160000000  0.5360000000000  0.4938420000000 1.0
C      1  0.5342750000000  0.4064230000000  0.4667740000000 1.0
C      1  0.4551000000000  0.4659300000000  0.4373190000000 1.0
C      1  0.5441410000000  0.5014730000000  0.4501920000000 1.0
C      1  0.4896870000000  0.4494090000000  0.4877840000000 1.0
C      1  0.4958970000000  0.5857650000000  0.5695620000000 1.0
C      1  0.5488540000000  0.4458050000000  0.5834080000000 1.0
C      1  0.4827620000000  0.5007580000000  0.5309400000000 1.0
C      1  0.4443360000000  0.4962330000000  0.4952890000000 1.0
C      1  0.5601590000000  0.4687690000000  0.5032190000000 1.0
C      1  0.4376230000000  0.5317750000000  0.5734660000000 1.0
C      1  0.5222470000000  0.5019240000000  0.5226600000000 1.0
C      1  0.4250310000000  0.4822540000000  0.5374530000000 1.0
C      1  0.5546620000000  0.4384060000000  0.5534400000000 1.0
C      1  0.4178820000000  0.4763830000000  0.4895850000000 1.0
C      1  0.5371920000000  0.5624320000000  0.5949570000000 1.0
C      1  0.4182980000000  0.5564280000000  0.5635040000000 1.0
C      1  0.5279760000000  0.4949410000000  0.4775640000000 1.0
C      1  0.4195990000000  0.5310670000000  0.4826160000000 1.0
C      1  0.5237760000000  0.4457910000000  0.4104980000000 1.0
C      1  0.4968440000000  0.4388090000000  0.5763870000000 1.0
C      1  0.4797970000000  0.5489950000000  0.4379650000000 1.0
C      1  0.4680640000000  0.4505790000000  0.5727660000000 1.0
C      1  0.4877590000000  0.3897900000000  0.4534600000000 1.0
C      1  0.5584580000000  0.4244640000000  0.4681950000000 1.0
C      1  0.5222860000000  0.4264600000000  0.5341670000000 1.0
C      1  0.5574880000000  0.4434810000000  0.4479610000000 1.0
C      1  0.4736460000000  0.4434960000000  0.5234930000000 1.0
C      1  0.4857130000000  0.5059820000000  0.5704260000000 1.0
C      1  0.4773220000000  0.6012520000000  0.5497460000000 1.0
C      1  0.5267180000000  0.4851430000000  0.4279460000000 1.0
C      1  0.5280200000000  0.5441270000000  0.4171280000000 1.0
C      1  0.4921160000000  0.4808320000000  0.3895120000000 1.0
C      1  0.5370940000000  0.5063010000000  0.5814870000000 1.0
C      1  0.5041950000000  0.5374370000000  0.3968380000000 1.0
C      1  0.4519600000000  0.4884070000000  0.4134630000000 1.0
C      1  0.5710960000000  0.5543600000000  0.5380990000000 1.0
C      1  0.4466200000000  0.4148740000000  0.5175990000000 1.0
C      1  0.5530500000000  0.4260990000000  0.5218940000000 1.0
C      1  0.4849660000000  0.4711820000000  0.4275360000000 1.0
C      1  0.4539220000000  0.4546300000000  0.6189790000000 1.0
C      1  0.4530070000000  0.4919960000000  0.5883600000000 1.0
C      1  0.5327110000000  0.4633770000000  0.4536140000000 1.0
C      1  0.4789870000000  0.4125800000000  0.5675420000000 1.0
C      1  0.4250490000000  0.5275340000000  0.5107530000000 1.0
C      1  0.4098240000000  0.5263820000000  0.5558520000000 1.0
C      1  0.4786000000000  0.5443730000000  0.4089030000000 1.0
C      1  0.5079080000000  0.5465730000000  0.4422500000000 1.0
C      1  0.4179700000000  0.4779340000000  0.4557940000000 1.0
C      1  0.4126810000000  0.4457980000000  0.4977570000000 1.0
C      1  0.4648270000000  0.4045360000000  0.4502050000000 1.0
C      1  0.4513740000000  0.4982510000000  0.5251420000000 1.0
C      1  0.5406150000000  0.5536880000000  0.5286580000000 1.0
C      1  0.5936470000000  0.4579350000000  0.4858010000000 1.0
C      1  0.4702430000000  0.5162450000000  0.5978940000000 1.0
C      1  0.5255920000000  0.5769540000000  0.5596380000000 1.0
C      1  0.5188280000000  0.5388750000000  0.5501520000000 1.0
C      1  0.5487350000000  0.5677050000000  0.4595560000000 1.0
C      1  0.4558950000000  0.5184130000000  0.4719580000000 1.0
C      1  0.5123810000000  0.4043380000000  0.4490650000000 1.0
C      1  0.5474940000000  0.5182520000000  0.4206090000000 1.0
C      1  0.5552450000000  0.5387110000000  0.4684750000000 1.0
C      1  0.4818970000000  0.5026280000000  0.4632180000000 1.0
C      1  0.4504450000000  0.4306340000000  0.4658470000000 1.0
C      1  0.5035370000000  0.4289470000000  0.4321020000000 1.0
C      1  0.4985610000000  0.5196000000000  0.5080030000000 1.0
C      1  0.5453630000000  0.4775060000000  0.5922460000000 1.0
C      1  0.5591000000000  0.5247310000000  0.5632330000000 1.0
C      1  0.5043540000000  0.5573860000000  0.5958980000000 1.0
C      1  0.4256810000000  0.5576400000000  0.4738100000000 1.0
C      1  0.4976400000000  0.4983150000000  0.4161970000000 1.0
C      1  0.4627000000000  0.5482140000000  0.4620580000000 1.0
C      1  0.5219930000000  0.4442660000000  0.4800680000000 1.0
C      1  0.4879150000000  0.5717040000000  0.5067620000000 1.0
C      1  0.5327060000000  0.4995680000000  0.3975780000000 1.0
C      1  0.4326040000000  0.5784400000000  0.5526490000000 1.0
C      1  0.4523600000000  0.5891440000000  0.5035810000000 1.0
C      1  0.4421500000000  0.5203980000000  0.4344590000000 1.0
C      1  0.4643490000000  0.4307750000000  0.4932810000000 1.0
C      1  0.5758980000000  0.5044020000000  0.4262800000000 1.0
C      1  0.5211410000000  0.4722190000000  0.4959090000000 1.0
C      1  0.5240350000000  0.5348880000000  0.5795410000000 1.0
C      1  0.5863040000000  0.5336490000000  0.4671860000000 1.0
C      1  0.5108490000000  0.4869930000000  0.5751010000000 1.0
C      1  0.4789880000000  0.4034430000000  0.5182680000000 1.0
C      1  0.5163300000000  0.4496230000000  0.5518360000000 1.0
C      1  0.5596470000000  0.4842180000000  0.4745850000000 1.0
C      1  0.5871660000000  0.5107250000000  0.5110540000000 1.0
C      1  0.4231470000000  0.5561040000000  0.4004630000000 1.0
C      1  0.4643850000000  0.4069020000000  0.5456500000000 1.0
C      1  0.5823960000000  0.5231980000000  0.5388950000000 1.0
C      1  0.4256550000000  0.5090680000000  0.4594790000000 1.0
C      1  0.5053140000000  0.5139320000000  0.4776950000000 1.0
C      1  0.5605440000000  0.5200910000000  0.4944480000000 1.0
C      1  0.4995670000000  0.4784930000000  0.5449630000000 1.0
C      1  0.5030060000000  0.5647280000000  0.5365540000000 1.0
C      1  0.5370660000000  0.4754470000000  0.5236640000000 1.0
C      1  0.4446210000000  0.5466030000000  0.5206390000000 1.0
C      1  0.5177380000000  0.4576710000000  0.5907100000000 1.0
C      1  0.5256170000000  0.6046640000000  0.5425320000000 1.0
C      1  0.5143730000000  0.5995720000000  0.5174650000000 1.0
C      1  0.4803740000000  0.6011930000000  0.5187440000000 1.0
C      1  0.4304760000000  0.4546050000000  0.5405260000000 1.0
C      1  0.5920220000000  0.5572490000000  0.5122500000000 1.0
C      1  0.5438050000000  0.4702100000000  0.5525310000000 1.0
C      1  0.5137660000000  0.5138270000000  0.3831000000000 1.0
C      1  0.4230550000000  0.4348700000000  0.5210110000000 1.0
C      1  0.5194780000000  0.5805840000000  0.4596500000000 1.0
C      1  0.4539200000000  0.5071480000000  0.5578730000000 1.0
C      1  0.4565950000000  0.5861720000000  0.5664250000000 1.0
C      1  0.5213290000000  0.5395260000000  0.4668570000000 1.0
C      1  0.5050980000000  0.4095380000000  0.5153030000000 1.0
C      1  0.5895460000000  0.4844600000000  0.5440490000000 1.0
C      1  0.5902000000000  0.4796380000000  0.5118570000000 1.0
C      1  0.4745130000000  0.5663960000000  0.5876650000000 1.0
C      1  0.4565760000000  0.4650360000000  0.5940210000000 1.0
C      1  0.5844900000000  0.4703410000000  0.4589860000000 1.0
C      1  0.4503270000000  0.4784930000000  0.4668990000000 1.0
C      1  0.5376560000000  0.5260030000000  0.5125640000000 1.0
C      1  0.4994500000000  0.5766410000000  0.4784530000000 1.0
C      1  0.4140570000000  0.5107620000000  0.5322280000000 1.0
C      1  0.5532480000000  0.5582400000000  0.5660690000000 1.0
C      1  0.4253650000000  0.4470270000000  0.4680740000000 1.0
C      1  0.5032490000000  0.4566830000000  0.4471090000000 1.0
C      1  0.5930850000000  0.5196910000000  0.4434000000000 1.0
C      1  0.4817420000000  0.4709790000000  0.4671910000000 1.0
C      1  0.4575160000000  0.5423330000000  0.5945220000000 1.0
C      1  0.5685640000000  0.4367300000000  0.4951120000000 1.0
C      1  0.4631840000000  0.4823660000000  0.3888670000000 1.0
C      1  0.4325730000000  0.5383940000000  0.4173250000000 1.0
C      1  0.4704950000000  0.4356050000000  0.4383510000000 1.0
C      1  0.5273890000000  0.5758720000000  0.5070500000000 1.0
C      1  0.4892850000000  0.5284690000000  0.5456980000000 1.0
C      1  0.4582070000000  0.4488680000000  0.5468000000000 1.0
C      1  0.4365900000000  0.5750720000000  0.5239750000000 1.0
C      1  0.5170930000000  0.5463630000000  0.4975130000000 1.0
C      1  0.4714050000000  0.5082330000000  0.4334970000000 1.0
C      1  0.4744260000000  0.5483830000000  0.5258720000000 1.0
C      1  0.5656050000000  0.4916320000000  0.5576180000000 1.0
C      1  0.5311450000000  0.4185630000000  0.4966550000000 1.0
C      1  0.4515120000000  0.5731780000000  0.4786610000000 1.0
C      1  0.4986900000000  0.4620740000000  0.5181800000000 1.0
C      1  0.5100620000000  0.4587960000000  0.3890280000000 1.0
C      1  0.5742540000000  0.4756030000000  0.4310960000000 1.0
END
