TITL C-2778433-5640-484 63.1466925449013 125000 -1115.44489801303 0 0 189 (C1) n - 1
REM
REM in /home/nfs/bkarasulu/CARBON/AIRSS/Generating-Clusters/REBO/Only-C1/SD-CG/HFTN-CG
REM
REM
REM
REM
REM
REM ./C.cell (11c1c37f851c82e70ff6c80c92926a4b)
REM
REM compiler GCC version 9.2.1 20190827 (Red Hat 9.2.1-1)
REM options -cpp -mtune=generic -march=x86-64 -g -O0 -fpre-include=/usr/include/finclude/math-vector-fortran.h
REM seed 866393955 1626869650 888186533 -484593777 1538776441 -428208579 224938474 -1676208828 -1405705309 1541679463 -476593578 505598377 537233252 1502992435 597729105 358198867 756449982 -46104081 736718850 -190965150 1214816142 887208553 1076513059 -1709061136 304927260 -1760413303 -375600866 -158251565 -1650073201 1086848475 -837426827 -1348401249 -316874040
REM
CELL 1.54180   50.00000   50.00000   50.00000   90.00000   90.00000   90.00000
LATT -1
SFAC C  
C      1  0.4447740000000  0.4902470000000  0.3916760000000 1.0
C      1  0.5320870000000  0.5701230000000  0.5480970000000 1.0
C      1  0.4932280000000  0.4307710000000  0.5106540000000 1.0
C      1  0.4142760000000  0.5010690000000  0.5587940000000 1.0
C      1  0.5139410000000  0.4948820000000  0.4639980000000 1.0
C      1  0.5087560000000  0.5032580000000  0.5208910000000 1.0
C      1  0.4700140000000  0.4715930000000  0.4312980000000 1.0
C      1  0.4857710000000  0.4065410000000  0.5307160000000 1.0
C      1  0.5505880000000  0.5881330000000  0.5107360000000 1.0
C      1  0.4451440000000  0.5243420000000  0.5720840000000 1.0
C      1  0.5736460000000  0.5912610000000  0.5318080000000 1.0
C      1  0.5457670000000  0.3951610000000  0.5042660000000 1.0
C      1  0.4600130000000  0.4391250000000  0.5331860000000 1.0
C      1  0.4729240000000  0.5092820000000  0.5736380000000 1.0
C      1  0.4431210000000  0.5087780000000  0.4751010000000 1.0
C      1  0.4094970000000  0.5662440000000  0.5157840000000 1.0
C      1  0.5711830000000  0.5204080000000  0.4213300000000 1.0
C      1  0.3913300000000  0.4665040000000  0.5084740000000 1.0
C      1  0.5401590000000  0.5572770000000  0.5767420000000 1.0
C      1  0.4102440000000  0.5297340000000  0.4838870000000 1.0
C      1  0.5189640000000  0.5631440000000  0.4737610000000 1.0
C      1  0.4807520000000  0.6209920000000  0.4948680000000 1.0
C      1  0.4899840000000  0.4948810000000  0.3777260000000 1.0
C      1  0.4743590000000  0.4673430000000  0.5653820000000 1.0
C      1  0.5265630000000  0.5418090000000  0.3990320000000 1.0
C      1  0.4704710000000  0.4714680000000  0.3791840000000 1.0
C      1  0.5645520000000  0.5105960000000  0.5256610000000 1.0
C      1  0.4848160000000  0.5053440000000  0.5451410000000 1.0
C      1  0.4840870000000  0.5548000000000  0.5900150000000 1.0
C      1  0.4227790000000  0.4598000000000  0.4848780000000 1.0
C      1  0.5589840000000  0.4251460000000  0.4994230000000 1.0
C      1  0.4885890000000  0.4071970000000  0.4612430000000 1.0
C      1  0.4402200000000  0.5022850000000  0.5362920000000 1.0
C      1  0.5224290000000  0.5016300000000  0.6025210000000 1.0
C      1  0.5207050000000  0.5129720000000  0.4135690000000 1.0
C      1  0.4015510000000  0.5431160000000  0.5304570000000 1.0
C      1  0.5511620000000  0.4918100000000  0.4506580000000 1.0
C      1  0.4863690000000  0.4348900000000  0.5890250000000 1.0
C      1  0.5355350000000  0.4551990000000  0.4536300000000 1.0
C      1  0.5595240000000  0.5096960000000  0.4972190000000 1.0
C      1  0.5873410000000  0.5462880000000  0.5455960000000 1.0
C      1  0.5884780000000  0.5771430000000  0.5076010000000 1.0
C      1  0.5522580000000  0.4286540000000  0.4519570000000 1.0
C      1  0.5405680000000  0.5594620000000  0.4317810000000 1.0
C      1  0.5534100000000  0.4971860000000  0.5519500000000 1.0
C      1  0.4651030000000  0.5965020000000  0.4544070000000 1.0
C      1  0.5178320000000  0.4528700000000  0.4771130000000 1.0
C      1  0.5405080000000  0.6042550000000  0.4908280000000 1.0
C      1  0.5242190000000  0.3868590000000  0.4869640000000 1.0
C      1  0.4573420000000  0.5498340000000  0.4384850000000 1.0
C      1  0.5649300000000  0.4569300000000  0.4950920000000 1.0
C      1  0.4986910000000  0.5432780000000  0.5623400000000 1.0
C      1  0.4835210000000  0.5335480000000  0.5268620000000 1.0
C      1  0.4513090000000  0.5173700000000  0.4370520000000 1.0
C      1  0.6003190000000  0.5064720000000  0.5033840000000 1.0
C      1  0.4307220000000  0.4931130000000  0.4500610000000 1.0
C      1  0.5285760000000  0.4778880000000  0.5274060000000 1.0
C      1  0.5052650000000  0.5587430000000  0.3982220000000 1.0
C      1  0.4569970000000  0.5171890000000  0.5161870000000 1.0
C      1  0.5163920000000  0.4901170000000  0.3940930000000 1.0
C      1  0.5204130000000  0.4385780000000  0.5386160000000 1.0
C      1  0.4907850000000  0.4632770000000  0.6061870000000 1.0
C      1  0.5896800000000  0.5297930000000  0.4805100000000 1.0
C      1  0.4523170000000  0.5718960000000  0.5433240000000 1.0
C      1  0.4828420000000  0.4600270000000  0.5081870000000 1.0
C      1  0.5508780000000  0.4256610000000  0.4126710000000 1.0
C      1  0.5765660000000  0.4756330000000  0.5637440000000 1.0
C      1  0.5660880000000  0.5447930000000  0.4370690000000 1.0
C      1  0.4771480000000  0.3996610000000  0.4912380000000 1.0
C      1  0.4170760000000  0.5337030000000  0.5543980000000 1.0
C      1  0.4179660000000  0.4612580000000  0.5579560000000 1.0
C      1  0.5431120000000  0.5934480000000  0.4641490000000 1.0
C      1  0.5444000000000  0.4048550000000  0.5339580000000 1.0
C      1  0.4246510000000  0.4187440000000  0.5312660000000 1.0
C      1  0.4299840000000  0.5080310000000  0.4131990000000 1.0
C      1  0.5775060000000  0.5009550000000  0.4710410000000 1.0
C      1  0.4393640000000  0.5397770000000  0.4995010000000 1.0
C      1  0.5965860000000  0.4874700000000  0.5312900000000 1.0
C      1  0.4603270000000  0.6099160000000  0.4799220000000 1.0
C      1  0.4411750000000  0.4431190000000  0.4413430000000 1.0
C      1  0.4951620000000  0.5851510000000  0.4503380000000 1.0
C      1  0.5158330000000  0.3995310000000  0.5451150000000 1.0
C      1  0.5300460000000  0.4995110000000  0.4938720000000 1.0
C      1  0.4785820000000  0.5622780000000  0.4699200000000 1.0
C      1  0.5905770000000  0.5378010000000  0.5127530000000 1.0
C      1  0.4844770000000  0.5559750000000  0.4254540000000 1.0
C      1  0.5561960000000  0.4564670000000  0.5802090000000 1.0
C      1  0.4838620000000  0.5690080000000  0.5498480000000 1.0
C      1  0.4567440000000  0.5564480000000  0.5927560000000 1.0
C      1  0.4826280000000  0.4528510000000  0.3983590000000 1.0
C      1  0.5195330000000  0.3948030000000  0.4576180000000 1.0
C      1  0.5049730000000  0.4723150000000  0.5763000000000 1.0
C      1  0.4531050000000  0.4003480000000  0.5351730000000 1.0
C      1  0.4385520000000  0.5569790000000  0.5648900000000 1.0
C      1  0.5449590000000  0.5356100000000  0.4855790000000 1.0
C      1  0.4709780000000  0.4926770000000  0.4126850000000 1.0
C      1  0.5207080000000  0.4906890000000  0.5581330000000 1.0
C      1  0.5333350000000  0.4423850000000  0.3967900000000 1.0
C      1  0.4449810000000  0.5762290000000  0.4507590000000 1.0
C      1  0.5434290000000  0.4591160000000  0.5488130000000 1.0
C      1  0.5973880000000  0.4808630000000  0.4527050000000 1.0
C      1  0.4394970000000  0.5951830000000  0.4940880000000 1.0
C      1  0.4326350000000  0.5836270000000  0.5202930000000 1.0
C      1  0.5807220000000  0.5063820000000  0.5790840000000 1.0
C      1  0.4279560000000  0.4674260000000  0.4401110000000 1.0
C      1  0.4441150000000  0.4687800000000  0.5393570000000 1.0
C      1  0.4514970000000  0.4363380000000  0.4713330000000 1.0
C      1  0.3951540000000  0.5203770000000  0.5111050000000 1.0
C      1  0.5130760000000  0.5568070000000  0.5974300000000 1.0
C      1  0.5100680000000  0.4617950000000  0.4089040000000 1.0
C      1  0.4443070000000  0.4665650000000  0.5792700000000 1.0
C      1  0.4370500000000  0.4340110000000  0.5574730000000 1.0
C      1  0.4082330000000  0.5611600000000  0.4866960000000 1.0
C      1  0.4290850000000  0.5103670000000  0.6058470000000 1.0
C      1  0.4567620000000  0.4357900000000  0.5834530000000 1.0
C      1  0.5507680000000  0.5217370000000  0.4012700000000 1.0
C      1  0.4664620000000  0.4403510000000  0.4207040000000 1.0
C      1  0.5373970000000  0.4070630000000  0.4380770000000 1.0
C      1  0.5819020000000  0.4936550000000  0.4252270000000 1.0
C      1  0.5660020000000  0.5718250000000  0.5526430000000 1.0
C      1  0.5494690000000  0.5353010000000  0.5402980000000 1.0
C      1  0.5531940000000  0.5659800000000  0.4776920000000 1.0
C      1  0.3976240000000  0.4778360000000  0.5399350000000 1.0
C      1  0.5270130000000  0.4299920000000  0.5084390000000 1.0
C      1  0.5141930000000  0.6185350000000  0.4967740000000 1.0
C      1  0.5444390000000  0.5200780000000  0.4598280000000 1.0
C      1  0.4734890000000  0.5178650000000  0.3902630000000 1.0
C      1  0.4752190000000  0.4760300000000  0.5323490000000 1.0
C      1  0.4984530000000  0.3836580000000  0.5005310000000 1.0
C      1  0.5840620000000  0.4561400000000  0.5385940000000 1.0
C      1  0.5129260000000  0.5478180000000  0.5304920000000 1.0
C      1  0.4627030000000  0.5567270000000  0.5167460000000 1.0
C      1  0.5069830000000  0.4241640000000  0.4816510000000 1.0
C      1  0.4723310000000  0.4806960000000  0.4575190000000 1.0
C      1  0.5692880000000  0.4721240000000  0.4093560000000 1.0
C      1  0.4215350000000  0.4873190000000  0.4892970000000 1.0
C      1  0.4057670000000  0.4378410000000  0.5129730000000 1.0
C      1  0.5355740000000  0.4703850000000  0.6021110000000 1.0
C      1  0.4675790000000  0.4213330000000  0.4472640000000 1.0
C      1  0.4030990000000  0.5082390000000  0.4606290000000 1.0
C      1  0.4625090000000  0.4620720000000  0.4817930000000 1.0
C      1  0.4566740000000  0.5004540000000  0.6034410000000 1.0
C      1  0.4775590000000  0.5447840000000  0.3947040000000 1.0
C      1  0.5660610000000  0.5360290000000  0.5703740000000 1.0
C      1  0.5193790000000  0.4437770000000  0.5885060000000 1.0
C      1  0.5735830000000  0.4448310000000  0.4206340000000 1.0
C      1  0.5900240000000  0.5127590000000  0.5486860000000 1.0
C      1  0.4043700000000  0.5113700000000  0.4265860000000 1.0
C      1  0.4942320000000  0.6015600000000  0.5185910000000 1.0
C      1  0.4764460000000  0.4839870000000  0.6209250000000 1.0
C      1  0.4229640000000  0.4900930000000  0.5849010000000 1.0
C      1  0.5753840000000  0.5496820000000  0.4633090000000 1.0
C      1  0.5752290000000  0.4264770000000  0.4715070000000 1.0
C      1  0.6088260000000  0.5791720000000  0.4899940000000 1.0
C      1  0.4304930000000  0.5398070000000  0.5999930000000 1.0
C      1  0.5504320000000  0.4955480000000  0.5859760000000 1.0
C      1  0.5864760000000  0.4489160000000  0.4484350000000 1.0
C      1  0.4144290000000  0.4966260000000  0.5193180000000 1.0
C      1  0.4917220000000  0.5340360000000  0.4765510000000 1.0
C      1  0.5637000000000  0.4641990000000  0.4656030000000 1.0
C      1  0.3890510000000  0.4947070000000  0.4889050000000 1.0
C      1  0.4527810000000  0.5399060000000  0.4699060000000 1.0
C      1  0.4268770000000  0.5776300000000  0.4731120000000 1.0
C      1  0.4783830000000  0.5108690000000  0.4555260000000 1.0
C      1  0.4559320000000  0.4178690000000  0.5067360000000 1.0
C      1  0.5012540000000  0.4164740000000  0.5656830000000 1.0
C      1  0.5656390000000  0.4275000000000  0.5387030000000 1.0
C      1  0.4777460000000  0.5782350000000  0.4996040000000 1.0
C      1  0.4295520000000  0.4273000000000  0.4922210000000 1.0
C      1  0.5267630000000  0.5857600000000  0.4418150000000 1.0
C      1  0.4911300000000  0.5078150000000  0.4940870000000 1.0
C      1  0.5112950000000  0.5491280000000  0.4448090000000 1.0
C      1  0.5309490000000  0.5295460000000  0.5924130000000 1.0
C      1  0.5449390000000  0.4716140000000  0.3928950000000 1.0
C      1  0.5359860000000  0.4676950000000  0.4989570000000 1.0
C      1  0.5620700000000  0.5562910000000  0.5164350000000 1.0
C      1  0.5908810000000  0.4662620000000  0.5068590000000 1.0
C      1  0.5236270000000  0.4779240000000  0.4356440000000 1.0
C      1  0.6090470000000  0.4807390000000  0.4837060000000 1.0
C      1  0.4628520000000  0.4929930000000  0.4941900000000 1.0
C      1  0.5252330000000  0.5241300000000  0.5601090000000 1.0
C      1  0.5161810000000  0.5408030000000  0.4992410000000 1.0
C      1  0.4989290000000  0.4763020000000  0.4867950000000 1.0
C      1  0.5041310000000  0.5852800000000  0.5407490000000 1.0
C      1  0.5041720000000  0.5901630000000  0.4818950000000 1.0
C      1  0.4885760000000  0.4420860000000  0.5485640000000 1.0
C      1  0.5382600000000  0.4306910000000  0.5666000000000 1.0
C      1  0.4937750000000  0.5025900000000  0.5997240000000 1.0
C      1  0.5083190000000  0.5180370000000  0.4413230000000 1.0
END
