TITL C-2778435-5768-1249 0.04908199094785 125000 -208.265821161833 0 0 37 (C1) n - 1
REM
REM in /home/nfs/bkarasulu/CARBON/AIRSS/Generating-Clusters/REBO/Only-C1/SD-CG/HFTN-CG
REM
REM
REM
REM
REM
REM ./C.cell (11c1c37f851c82e70ff6c80c92926a4b)
REM
REM compiler GCC version 9.2.1 20190827 (Red Hat 9.2.1-1)
REM options -cpp -mtune=generic -march=x86-64 -g -O0 -fpre-include=/usr/include/finclude/math-vector-fortran.h
REM seed 888866388 -1970087984 1115950683 639137323 672719855 -194338436 681715145 6226030 1408072729 265564103 -1409630363 -116181432 -672664506 1290596120 1788353535 458840463 -658702219 231593380 -855125087 418341672 -488122559 -876425541 1203164889 1104740161 -1159305919 -222956612 1360006925 1201362334 238724810 171456534 663446083 975633326 -1125009484
REM
CELL 1.54180   50.00000   50.00000   50.00000   90.00000   90.00000   90.00000
LATT -1
SFAC C  
C      1  0.5039010000000  0.4445610000000  0.5464500000000 1.0
C      1  0.4443800000000  0.5624640000000  0.4867650000000 1.0
C      1  0.5168300000000  0.5572700000000  0.5031790000000 1.0
C      1  0.5095560000000  0.4780680000000  0.4648840000000 1.0
C      1  0.5215490000000  0.5823310000000  0.5123360000000 1.0
C      1  0.4925430000000  0.5512510000000  0.4600250000000 1.0
C      1  0.5386970000000  0.4828590000000  0.5686800000000 1.0
C      1  0.5570500000000  0.4882230000000  0.5494270000000 1.0
C      1  0.4368110000000  0.5447350000000  0.4634860000000 1.0
C      1  0.5321010000000  0.5257320000000  0.4696910000000 1.0
C      1  0.4581290000000  0.4832600000000  0.4784340000000 1.0
C      1  0.4686320000000  0.5413030000000  0.4753750000000 1.0
C      1  0.5171400000000  0.5497790000000  0.4748760000000 1.0
C      1  0.5231750000000  0.4515130000000  0.4706630000000 1.0
C      1  0.4673040000000  0.4755120000000  0.5513390000000 1.0
C      1  0.5023710000000  0.5138450000000  0.5716860000000 1.0
C      1  0.4936720000000  0.5428710000000  0.4329740000000 1.0
C      1  0.4957230000000  0.5165550000000  0.4258030000000 1.0
C      1  0.4761070000000  0.5163280000000  0.4919650000000 1.0
C      1  0.5250240000000  0.4354650000000  0.4991370000000 1.0
C      1  0.5098390000000  0.5346920000000  0.5194820000000 1.0
C      1  0.4694070000000  0.4474140000000  0.4438650000000 1.0
C      1  0.5462570000000  0.4850110000000  0.4987920000000 1.0
C      1  0.5227110000000  0.4991550000000  0.4843840000000 1.0
C      1  0.4931380000000  0.4673630000000  0.5591900000000 1.0
C      1  0.4521690000000  0.4824880000000  0.5301640000000 1.0
C      1  0.5059240000000  0.5346210000000  0.5467720000000 1.0
C      1  0.4773990000000  0.4734590000000  0.4571420000000 1.0
C      1  0.5585300000000  0.4920890000000  0.5227140000000 1.0
C      1  0.5027400000000  0.5458150000000  0.5771030000000 1.0
C      1  0.5107540000000  0.4869360000000  0.5703800000000 1.0
C      1  0.4626770000000  0.4254840000000  0.4326850000000 1.0
C      1  0.5138470000000  0.4327080000000  0.5243170000000 1.0
C      1  0.4958940000000  0.4934590000000  0.4384550000000 1.0
C      1  0.5010430000000  0.5123760000000  0.5030630000000 1.0
C      1  0.5472390000000  0.4575440000000  0.4907380000000 1.0
C      1  0.4497370000000  0.4854580000000  0.5035810000000 1.0
END
