TITL C-2778431-5191-701 0.00311280301778204 125000 -804.270680329236 0 0 137 (C1) n - 1
REM
REM in /home/nfs/bkarasulu/CARBON/AIRSS/Generating-Clusters/REBO/Only-C1/SD-CG/HFTN-CG
REM
REM
REM
REM
REM
REM ./C.cell (11c1c37f851c82e70ff6c80c92926a4b)
REM
REM compiler GCC version 9.2.1 20190827 (Red Hat 9.2.1-1)
REM options -cpp -mtune=generic -march=x86-64 -g -O0 -fpre-include=/usr/include/finclude/math-vector-fortran.h
REM seed -958589618 -2075005776 -613375839 -1479408562 -660085405 1114911676 -678218215 -216846429 -1966788863 -2069049631 -1242130670 1081923922 1375453753 -1252518368 1481400724 747536320 -1927696755 402308174 -2084863075 -1266505367 822615191 -1928668760 538006782 -2081614788 -1698955451 -751734715 -1488533864 332890580 1944074342 -1208439878 -1439238129 -183273629 -1922002306
REM
CELL 1.54180   50.00000   50.00000   50.00000   90.00000   90.00000   90.00000
LATT -1
SFAC C  
C      1  0.4581910000000  0.4829020000000  0.5190190000000 1.0
C      1  0.4276590000000  0.5217530000000  0.5076580000000 1.0
C      1  0.4423080000000  0.5453540000000  0.5455040000000 1.0
C      1  0.5468980000000  0.4413790000000  0.5562770000000 1.0
C      1  0.5315150000000  0.5487590000000  0.5089730000000 1.0
C      1  0.4783010000000  0.5673480000000  0.5146020000000 1.0
C      1  0.5161710000000  0.4517140000000  0.5588670000000 1.0
C      1  0.4188590000000  0.4154240000000  0.4557650000000 1.0
C      1  0.5342280000000  0.4299740000000  0.4360280000000 1.0
C      1  0.4599230000000  0.5402170000000  0.4398510000000 1.0
C      1  0.5794770000000  0.4743100000000  0.4316270000000 1.0
C      1  0.4201770000000  0.5527540000000  0.4956100000000 1.0
C      1  0.4337160000000  0.4724440000000  0.5350340000000 1.0
C      1  0.4893200000000  0.5700630000000  0.4243050000000 1.0
C      1  0.4033380000000  0.5310290000000  0.4334340000000 1.0
C      1  0.4425840000000  0.4666090000000  0.4334980000000 1.0
C      1  0.4444280000000  0.4277540000000  0.5240740000000 1.0
C      1  0.5269240000000  0.5286430000000  0.5948960000000 1.0
C      1  0.4841700000000  0.4476520000000  0.5476920000000 1.0
C      1  0.4777230000000  0.4149950000000  0.4394670000000 1.0
C      1  0.5327440000000  0.5877220000000  0.5003840000000 1.0
C      1  0.5059920000000  0.5698440000000  0.5010850000000 1.0
C      1  0.4605930000000  0.5155920000000  0.5922000000000 1.0
C      1  0.5528800000000  0.5805160000000  0.5203070000000 1.0
C      1  0.5528720000000  0.4672290000000  0.4598900000000 1.0
C      1  0.5000520000000  0.4433100000000  0.5009430000000 1.0
C      1  0.4302250000000  0.4723180000000  0.4642350000000 1.0
C      1  0.5095320000000  0.4077850000000  0.5449510000000 1.0
C      1  0.5021280000000  0.5269490000000  0.5731300000000 1.0
C      1  0.4868110000000  0.5292980000000  0.4336180000000 1.0
C      1  0.5014940000000  0.4331020000000  0.5805180000000 1.0
C      1  0.5308040000000  0.4810200000000  0.4902330000000 1.0
C      1  0.4897510000000  0.4999540000000  0.4490310000000 1.0
C      1  0.3979470000000  0.4970510000000  0.4990550000000 1.0
C      1  0.4584040000000  0.5537610000000  0.4635770000000 1.0
C      1  0.5013100000000  0.5141810000000  0.4943210000000 1.0
C      1  0.4443970000000  0.4459440000000  0.5461400000000 1.0
C      1  0.5400890000000  0.5205400000000  0.4034130000000 1.0
C      1  0.5492800000000  0.4810760000000  0.4292460000000 1.0
C      1  0.3838940000000  0.4859120000000  0.5280930000000 1.0
C      1  0.6032150000000  0.5300850000000  0.5093050000000 1.0
C      1  0.4854630000000  0.5655280000000  0.4753760000000 1.0
C      1  0.4478420000000  0.4959090000000  0.4205950000000 1.0
C      1  0.5948380000000  0.4926720000000  0.5568390000000 1.0
C      1  0.5302930000000  0.4956000000000  0.4147960000000 1.0
C      1  0.6048440000000  0.4745270000000  0.5386410000000 1.0
C      1  0.5293780000000  0.5114090000000  0.4514310000000 1.0
C      1  0.5064330000000  0.3967550000000  0.4739540000000 1.0
C      1  0.4501580000000  0.4862960000000  0.5802420000000 1.0
C      1  0.5783380000000  0.5469130000000  0.4674060000000 1.0
C      1  0.5879940000000  0.5236330000000  0.4575260000000 1.0
C      1  0.4552680000000  0.4519860000000  0.4683510000000 1.0
C      1  0.5855690000000  0.4979830000000  0.4626600000000 1.0
C      1  0.5094140000000  0.4732380000000  0.5127050000000 1.0
C      1  0.5836420000000  0.5738190000000  0.4822590000000 1.0
C      1  0.5317980000000  0.5825660000000  0.4453750000000 1.0
C      1  0.5413360000000  0.5842640000000  0.4712240000000 1.0
C      1  0.4085440000000  0.4649850000000  0.5199020000000 1.0
C      1  0.5690870000000  0.5374780000000  0.5462640000000 1.0
C      1  0.4871760000000  0.4419830000000  0.4204330000000 1.0
C      1  0.4556420000000  0.5117140000000  0.5029890000000 1.0
C      1  0.5607290000000  0.5201270000000  0.3856040000000 1.0
C      1  0.4222200000000  0.4394370000000  0.5022000000000 1.0
C      1  0.5708560000000  0.5073620000000  0.5616670000000 1.0
C      1  0.5118200000000  0.5331920000000  0.4511540000000 1.0
C      1  0.4061220000000  0.5246130000000  0.4825160000000 1.0
C      1  0.4903060000000  0.5157440000000  0.6023570000000 1.0
C      1  0.5194980000000  0.5992590000000  0.5759730000000 1.0
C      1  0.5200760000000  0.4999930000000  0.6108450000000 1.0
C      1  0.4724040000000  0.5314030000000  0.5210930000000 1.0
C      1  0.5435250000000  0.5028750000000  0.5211540000000 1.0
C      1  0.5176810000000  0.4884950000000  0.4646760000000 1.0
C      1  0.4796410000000  0.4618720000000  0.4853300000000 1.0
C      1  0.4374720000000  0.4264670000000  0.4770820000000 1.0
C      1  0.4801100000000  0.4020030000000  0.4645260000000 1.0
C      1  0.4886680000000  0.5246170000000  0.4016920000000 1.0
C      1  0.5278650000000  0.4673950000000  0.6045760000000 1.0
C      1  0.4632250000000  0.5068970000000  0.4698530000000 1.0
C      1  0.5627910000000  0.4874100000000  0.4855600000000 1.0
C      1  0.5298840000000  0.4142040000000  0.5576100000000 1.0
C      1  0.5887330000000  0.5017200000000  0.5022870000000 1.0
C      1  0.5169560000000  0.4374050000000  0.4166000000000 1.0
C      1  0.4911970000000  0.6115930000000  0.4516390000000 1.0
C      1  0.4799550000000  0.4680720000000  0.5248280000000 1.0
C      1  0.4814880000000  0.5559370000000  0.5428810000000 1.0
C      1  0.5168730000000  0.5724290000000  0.5784790000000 1.0
C      1  0.5002150000000  0.5380080000000  0.4766060000000 1.0
C      1  0.4343790000000  0.5683960000000  0.4742140000000 1.0
C      1  0.4118370000000  0.5053630000000  0.5300930000000 1.0
C      1  0.4655060000000  0.4123980000000  0.5124670000000 1.0
C      1  0.5296400000000  0.5449760000000  0.4131920000000 1.0
C      1  0.5685970000000  0.5155970000000  0.5227890000000 1.0
C      1  0.4418950000000  0.5275570000000  0.4233940000000 1.0
C      1  0.4763680000000  0.4699520000000  0.5948940000000 1.0
C      1  0.5450940000000  0.5569760000000  0.5384440000000 1.0
C      1  0.4606760000000  0.4079570000000  0.4848450000000 1.0
C      1  0.5003440000000  0.4890640000000  0.5858020000000 1.0
C      1  0.4552280000000  0.5199080000000  0.5592250000000 1.0
C      1  0.4845820000000  0.4900070000000  0.4868830000000 1.0
C      1  0.4308750000000  0.5566150000000  0.5267790000000 1.0
C      1  0.4562330000000  0.5839430000000  0.5061480000000 1.0
C      1  0.4956350000000  0.4159720000000  0.5192630000000 1.0
C      1  0.5447330000000  0.4384600000000  0.4603870000000 1.0
C      1  0.5892170000000  0.4534040000000  0.4927560000000 1.0
C      1  0.5065320000000  0.4947180000000  0.5373290000000 1.0
C      1  0.5671020000000  0.4367640000000  0.5036390000000 1.0
C      1  0.4793760000000  0.5533620000000  0.4027320000000 1.0
C      1  0.4455350000000  0.5909040000000  0.4579000000000 1.0
C      1  0.5465100000000  0.4637670000000  0.5819600000000 1.0
C      1  0.4607320000000  0.4552240000000  0.5709730000000 1.0
C      1  0.5478460000000  0.4739720000000  0.5204960000000 1.0
C      1  0.4123560000000  0.4687120000000  0.4869990000000 1.0
C      1  0.5801170000000  0.5734600000000  0.5115770000000 1.0
C      1  0.4602160000000  0.4413250000000  0.4387640000000 1.0
C      1  0.5490950000000  0.4915630000000  0.5678330000000 1.0
C      1  0.5900500000000  0.5493120000000  0.5242210000000 1.0
C      1  0.5569920000000  0.4489260000000  0.5282720000000 1.0
C      1  0.4147450000000  0.5200370000000  0.4544650000000 1.0
C      1  0.4735350000000  0.4732510000000  0.4189520000000 1.0
C      1  0.5461810000000  0.4266870000000  0.4859540000000 1.0
C      1  0.4381270000000  0.5010330000000  0.4529440000000 1.0
C      1  0.5867290000000  0.4642880000000  0.4636150000000 1.0
C      1  0.4866550000000  0.5161250000000  0.5467710000000 1.0
C      1  0.4369040000000  0.5993640000000  0.4993960000000 1.0
C      1  0.4986230000000  0.4955010000000  0.4163650000000 1.0
C      1  0.5178990000000  0.5670980000000  0.4263990000000 1.0
C      1  0.5028180000000  0.4527520000000  0.6023770000000 1.0
C      1  0.5519240000000  0.5562920000000  0.4851950000000 1.0
C      1  0.4982110000000  0.5559960000000  0.5643220000000 1.0
C      1  0.5187740000000  0.4169230000000  0.4943230000000 1.0
C      1  0.5173950000000  0.4824480000000  0.5623030000000 1.0
C      1  0.4786170000000  0.4197810000000  0.5672230000000 1.0
C      1  0.5989770000000  0.4736360000000  0.5108570000000 1.0
C      1  0.4319860000000  0.4969740000000  0.5546810000000 1.0
C      1  0.5236090000000  0.5191170000000  0.5106650000000 1.0
C      1  0.5335540000000  0.5556380000000  0.5955030000000 1.0
C      1  0.4777520000000  0.5864530000000  0.4498110000000 1.0
END
