TITL C-2778424-3986-917 -1.8418418675288 125000 -501.753086923404 0 0 87 (C1) n - 1
REM
REM in /home/nfs/bkarasulu/CARBON/AIRSS/Generating-Clusters/REBO/Only-C1/SD-CG/HFTN-CG
REM
REM
REM
REM
REM
REM ./C.cell (11c1c37f851c82e70ff6c80c92926a4b)
REM
REM compiler GCC version 9.2.1 20190827 (Red Hat 9.2.1-1)
REM options -cpp -mtune=generic -march=x86-64 -g -O0 -fpre-include=/usr/include/finclude/math-vector-fortran.h
REM seed 1156028034 531615838 988112814 960995466 -895303655 -1559293599 1782584725 -651018623 1828473286 -911067671 1872298977 -2146493992 1005898869 247607623 -1175237031 1329790534 312040513 -1817179984 1022342754 2031428673 -296468389 1822727867 -1035503584 1176123259 716691396 209146249 -1213226905 1914691914 1695167554 -1507839951 -962417166 1098479760 813599755
REM
CELL 1.54180   50.00000   50.00000   50.00000   90.00000   90.00000   90.00000
LATT -1
SFAC C  
C      1  0.4551690000000  0.5685830000000  0.4687590000000 1.0
C      1  0.5078060000000  0.4365290000000  0.4550470000000 1.0
C      1  0.4632270000000  0.4244290000000  0.4940560000000 1.0
C      1  0.5216280000000  0.5614820000000  0.4657500000000 1.0
C      1  0.5547010000000  0.5589790000000  0.4880500000000 1.0
C      1  0.5453680000000  0.4529630000000  0.5009510000000 1.0
C      1  0.5856030000000  0.4784840000000  0.4865640000000 1.0
C      1  0.5665310000000  0.5497230000000  0.5163680000000 1.0
C      1  0.4918560000000  0.5258830000000  0.5465280000000 1.0
C      1  0.4469170000000  0.5222160000000  0.4535390000000 1.0
C      1  0.5150040000000  0.4600440000000  0.4867140000000 1.0
C      1  0.4748520000000  0.5439880000000  0.4931630000000 1.0
C      1  0.5238070000000  0.4895640000000  0.5150580000000 1.0
C      1  0.5759280000000  0.4991600000000  0.4720140000000 1.0
C      1  0.5383650000000  0.4768400000000  0.4292360000000 1.0
C      1  0.4259270000000  0.4773960000000  0.4586490000000 1.0
C      1  0.4514690000000  0.4914050000000  0.4420160000000 1.0
C      1  0.4670410000000  0.5650040000000  0.5261650000000 1.0
C      1  0.4825280000000  0.5666010000000  0.4596470000000 1.0
C      1  0.4594380000000  0.5074620000000  0.5804820000000 1.0
C      1  0.5627840000000  0.5378440000000  0.5403330000000 1.0
C      1  0.5253240000000  0.5810570000000  0.5231110000000 1.0
C      1  0.5547040000000  0.5180420000000  0.4854610000000 1.0
C      1  0.4936510000000  0.5040490000000  0.5204030000000 1.0
C      1  0.5373630000000  0.5208760000000  0.5122330000000 1.0
C      1  0.4376750000000  0.4851920000000  0.5311240000000 1.0
C      1  0.4840600000000  0.4787630000000  0.5396050000000 1.0
C      1  0.5129350000000  0.4207480000000  0.4800690000000 1.0
C      1  0.5076840000000  0.5170610000000  0.4153040000000 1.0
C      1  0.4266720000000  0.5274530000000  0.5042200000000 1.0
C      1  0.4934160000000  0.4222190000000  0.5011500000000 1.0
C      1  0.5003090000000  0.5249150000000  0.4940050000000 1.0
C      1  0.4424020000000  0.5181290000000  0.5276890000000 1.0
C      1  0.4875720000000  0.4557060000000  0.4587670000000 1.0
C      1  0.4924540000000  0.5023890000000  0.4710880000000 1.0
C      1  0.5055970000000  0.4821110000000  0.5601800000000 1.0
C      1  0.4347640000000  0.5494640000000  0.4620810000000 1.0
C      1  0.5429640000000  0.4356980000000  0.4735670000000 1.0
C      1  0.5260270000000  0.4605380000000  0.5244220000000 1.0
C      1  0.5397970000000  0.4903050000000  0.4865660000000 1.0
C      1  0.4525060000000  0.4750530000000  0.5020690000000 1.0
C      1  0.5618730000000  0.5268590000000  0.4471100000000 1.0
C      1  0.5069260000000  0.4341940000000  0.5300710000000 1.0
C      1  0.4678860000000  0.4793870000000  0.5725710000000 1.0
C      1  0.5271010000000  0.5495370000000  0.5102340000000 1.0
C      1  0.4439990000000  0.4287150000000  0.5167040000000 1.0
C      1  0.5264630000000  0.4485580000000  0.5543330000000 1.0
C      1  0.4544090000000  0.4358600000000  0.4682440000000 1.0
C      1  0.4172210000000  0.4391120000000  0.5144010000000 1.0
C      1  0.4149750000000  0.4678850000000  0.5130300000000 1.0
C      1  0.4231030000000  0.4780470000000  0.4858120000000 1.0
C      1  0.5323980000000  0.5832500000000  0.4900670000000 1.0
C      1  0.5257440000000  0.5308810000000  0.4749060000000 1.0
C      1  0.5767960000000  0.4714230000000  0.5333800000000 1.0
C      1  0.4576890000000  0.4425120000000  0.5377510000000 1.0
C      1  0.5279640000000  0.4869770000000  0.5891570000000 1.0
C      1  0.5389590000000  0.5175310000000  0.5809440000000 1.0
C      1  0.5423340000000  0.4680870000000  0.5686300000000 1.0
C      1  0.4486070000000  0.4660920000000  0.5527930000000 1.0
C      1  0.4775480000000  0.5136840000000  0.4463110000000 1.0
C      1  0.4962870000000  0.4745890000000  0.5904600000000 1.0
C      1  0.4637220000000  0.5370300000000  0.5338840000000 1.0
C      1  0.5586950000000  0.5340570000000  0.5707970000000 1.0
C      1  0.5115290000000  0.4921850000000  0.4313900000000 1.0
C      1  0.4486780000000  0.4578770000000  0.4502450000000 1.0
C      1  0.5043990000000  0.5383120000000  0.4015620000000 1.0
C      1  0.4813650000000  0.4599170000000  0.4920040000000 1.0
C      1  0.4858410000000  0.4751670000000  0.4398380000000 1.0
C      1  0.4155740000000  0.5449060000000  0.4831550000000 1.0
C      1  0.4713600000000  0.5279180000000  0.5718040000000 1.0
C      1  0.5623410000000  0.4930660000000  0.4432420000000 1.0
C      1  0.4707470000000  0.4982930000000  0.4954670000000 1.0
C      1  0.5728140000000  0.4636770000000  0.5066740000000 1.0
C      1  0.5522280000000  0.4678370000000  0.4646610000000 1.0
C      1  0.5588170000000  0.4838690000000  0.5508490000000 1.0
C      1  0.4826250000000  0.4531370000000  0.5240090000000 1.0
C      1  0.5159750000000  0.4845740000000  0.4643330000000 1.0
C      1  0.5608060000000  0.5481620000000  0.4601280000000 1.0
C      1  0.5170860000000  0.5103960000000  0.5576390000000 1.0
C      1  0.5025380000000  0.5876980000000  0.4748790000000 1.0
C      1  0.4555980000000  0.5727690000000  0.4991270000000 1.0
C      1  0.4945430000000  0.5785080000000  0.5304460000000 1.0
C      1  0.5353680000000  0.4476960000000  0.4425580000000 1.0
C      1  0.4983920000000  0.5644220000000  0.4994330000000 1.0
C      1  0.4988290000000  0.5381840000000  0.4545550000000 1.0
C      1  0.5450120000000  0.5097230000000  0.5422280000000 1.0
C      1  0.4530070000000  0.5230960000000  0.4859820000000 1.0
END
