TITL C-2778432-5617-714 -0.00422235757790534 125000 -1151.48550196607 0 0 200 (C1) n - 1
REM
REM in /home/nfs/bkarasulu/CARBON/AIRSS/Generating-Clusters/REBO/Only-C1/SD-CG/HFTN-CG
REM
REM
REM
REM
REM
REM ./C.cell (11c1c37f851c82e70ff6c80c92926a4b)
REM
REM compiler GCC version 9.2.1 20190827 (Red Hat 9.2.1-1)
REM options -cpp -mtune=generic -march=x86-64 -g -O0 -fpre-include=/usr/include/finclude/math-vector-fortran.h
REM seed 928315889 875378678 -1766247917 264188526 1374167654 -364401814 -412263057 -173905882 977323981 1428443492 -1564088343 125512635 -1152024869 1531568404 -546114467 -1008442276 757156490 -1291727462 -1895703010 -940813555 356257085 -1298061171 497707129 -832577634 -42596669 426074847 366750063 -370468565 -1823708265 728745204 1344802857 917547954 1127443489
REM
CELL 1.54180   50.00000   50.00000   50.00000   90.00000   90.00000   90.00000
LATT -1
SFAC C  
C      1  0.6040020000000  0.5362260000000  0.4495960000000 1.0
C      1  0.4328680000000  0.4766630000000  0.4812800000000 1.0
C      1  0.5608100000000  0.4339200000000  0.5766060000000 1.0
C      1  0.4175280000000  0.4460890000000  0.4440630000000 1.0
C      1  0.5547520000000  0.5267120000000  0.5961310000000 1.0
C      1  0.4443900000000  0.5965730000000  0.5014080000000 1.0
C      1  0.4815300000000  0.4885820000000  0.4114290000000 1.0
C      1  0.5676130000000  0.4144060000000  0.4661310000000 1.0
C      1  0.5605860000000  0.4662100000000  0.5805600000000 1.0
C      1  0.5424160000000  0.6015450000000  0.4897550000000 1.0
C      1  0.5112760000000  0.4421620000000  0.5824030000000 1.0
C      1  0.4671960000000  0.4621910000000  0.4680490000000 1.0
C      1  0.4792950000000  0.4230250000000  0.4607420000000 1.0
C      1  0.5547630000000  0.4154220000000  0.5614540000000 1.0
C      1  0.5296180000000  0.4863790000000  0.4384980000000 1.0
C      1  0.4263400000000  0.5714890000000  0.5886200000000 1.0
C      1  0.5575430000000  0.5540010000000  0.4109770000000 1.0
C      1  0.5291990000000  0.4006280000000  0.5119200000000 1.0
C      1  0.4791960000000  0.5378210000000  0.4512140000000 1.0
C      1  0.4268680000000  0.4402010000000  0.5652630000000 1.0
C      1  0.4550910000000  0.4393580000000  0.5786720000000 1.0
C      1  0.4745640000000  0.5016110000000  0.4401870000000 1.0
C      1  0.5141780000000  0.4051530000000  0.4540390000000 1.0
C      1  0.5121560000000  0.5843980000000  0.4349210000000 1.0
C      1  0.5696120000000  0.5820850000000  0.4819040000000 1.0
C      1  0.5315210000000  0.5246300000000  0.6118800000000 1.0
C      1  0.4952380000000  0.5800150000000  0.4707280000000 1.0
C      1  0.4498980000000  0.4254210000000  0.4546670000000 1.0
C      1  0.4182080000000  0.4570820000000  0.5243600000000 1.0
C      1  0.4915260000000  0.5108500000000  0.3906660000000 1.0
C      1  0.5711900000000  0.5023200000000  0.5310220000000 1.0
C      1  0.4921980000000  0.4215530000000  0.4327600000000 1.0
C      1  0.5708210000000  0.5806820000000  0.4478410000000 1.0
C      1  0.5525360000000  0.5276690000000  0.5390730000000 1.0
C      1  0.4970360000000  0.5651640000000  0.5746380000000 1.0
C      1  0.5639640000000  0.4813770000000  0.3997660000000 1.0
C      1  0.4247420000000  0.5434720000000  0.5717150000000 1.0
C      1  0.4333580000000  0.5172040000000  0.5690380000000 1.0
C      1  0.4373690000000  0.5154810000000  0.4738250000000 1.0
C      1  0.5261880000000  0.5657490000000  0.5859010000000 1.0
C      1  0.5174250000000  0.5261130000000  0.5060640000000 1.0
C      1  0.5118750000000  0.4891630000000  0.3738040000000 1.0
C      1  0.4954110000000  0.5456950000000  0.5488330000000 1.0
C      1  0.4975090000000  0.4397660000000  0.4804180000000 1.0
C      1  0.6041810000000  0.5222210000000  0.5410290000000 1.0
C      1  0.5474170000000  0.4479320000000  0.5394570000000 1.0
C      1  0.4736920000000  0.5899870000000  0.5753290000000 1.0
C      1  0.3872500000000  0.5159220000000  0.5146870000000 1.0
C      1  0.5266770000000  0.4721440000000  0.6166670000000 1.0
C      1  0.4875370000000  0.4031440000000  0.5563420000000 1.0
C      1  0.4586290000000  0.4941490000000  0.4904340000000 1.0
C      1  0.4268000000000  0.5799190000000  0.5566500000000 1.0
C      1  0.4949360000000  0.4415510000000  0.3867900000000 1.0
C      1  0.5574780000000  0.5286060000000  0.4311990000000 1.0
C      1  0.5325870000000  0.4326970000000  0.3767310000000 1.0
C      1  0.5534000000000  0.5503640000000  0.5719170000000 1.0
C      1  0.5180360000000  0.4980680000000  0.6137430000000 1.0
C      1  0.4670080000000  0.5238020000000  0.6328290000000 1.0
C      1  0.5037190000000  0.5190250000000  0.4366210000000 1.0
C      1  0.4995770000000  0.4348090000000  0.5512460000000 1.0
C      1  0.4787680000000  0.5548460000000  0.4212730000000 1.0
C      1  0.5641560000000  0.4990560000000  0.5838670000000 1.0
C      1  0.4955240000000  0.5403400000000  0.4006670000000 1.0
C      1  0.5291730000000  0.5453090000000  0.4032510000000 1.0
C      1  0.5629520000000  0.5885910000000  0.5493590000000 1.0
C      1  0.6106700000000  0.5058580000000  0.4574280000000 1.0
C      1  0.4100590000000  0.5542420000000  0.4883130000000 1.0
C      1  0.5307420000000  0.5388770000000  0.4443890000000 1.0
C      1  0.5360890000000  0.4197450000000  0.3973960000000 1.0
C      1  0.4943470000000  0.4700230000000  0.4546950000000 1.0
C      1  0.5245300000000  0.4716330000000  0.5087530000000 1.0
C      1  0.4667600000000  0.4302550000000  0.5039230000000 1.0
C      1  0.4443080000000  0.4467500000000  0.4878560000000 1.0
C      1  0.5809600000000  0.5673580000000  0.5477030000000 1.0
C      1  0.4158700000000  0.5653880000000  0.4504910000000 1.0
C      1  0.6007020000000  0.4801820000000  0.4508120000000 1.0
C      1  0.4171690000000  0.4226770000000  0.5043300000000 1.0
C      1  0.4847280000000  0.4690240000000  0.3698770000000 1.0
C      1  0.5491870000000  0.5944390000000  0.5215890000000 1.0
C      1  0.5201990000000  0.4980060000000  0.4659680000000 1.0
C      1  0.4884790000000  0.3953530000000  0.4743650000000 1.0
C      1  0.4072000000000  0.4825000000000  0.5406620000000 1.0
C      1  0.5156020000000  0.4566790000000  0.3641670000000 1.0
C      1  0.6010180000000  0.4620150000000  0.4764810000000 1.0
C      1  0.5055490000000  0.5563820000000  0.4503350000000 1.0
C      1  0.5753170000000  0.4192940000000  0.5135670000000 1.0
C      1  0.4283970000000  0.4279470000000  0.5360430000000 1.0
C      1  0.4792630000000  0.4613740000000  0.5000410000000 1.0
C      1  0.4050530000000  0.5778580000000  0.6052860000000 1.0
C      1  0.4177400000000  0.4968980000000  0.4234850000000 1.0
C      1  0.5492870000000  0.4125610000000  0.5311190000000 1.0
C      1  0.4010640000000  0.4526530000000  0.4972170000000 1.0
C      1  0.3821000000000  0.4801150000000  0.4604860000000 1.0
C      1  0.4342280000000  0.4717590000000  0.4292810000000 1.0
C      1  0.4241620000000  0.5840710000000  0.4788660000000 1.0
C      1  0.4273450000000  0.5055920000000  0.5384790000000 1.0
C      1  0.3893770000000  0.4816770000000  0.5127220000000 1.0
C      1  0.5415330000000  0.5892900000000  0.5716420000000 1.0
C      1  0.4504310000000  0.4842550000000  0.4526950000000 1.0
C      1  0.5754370000000  0.4865260000000  0.4947340000000 1.0
C      1  0.5862710000000  0.5547140000000  0.4937760000000 1.0
C      1  0.5345870000000  0.5606830000000  0.5454140000000 1.0
C      1  0.5289190000000  0.5073250000000  0.5260660000000 1.0
C      1  0.5246150000000  0.5160440000000  0.4122060000000 1.0
C      1  0.4808780000000  0.4455530000000  0.6077340000000 1.0
C      1  0.3893230000000  0.5322280000000  0.5366390000000 1.0
C      1  0.5095330000000  0.4434740000000  0.4154760000000 1.0
C      1  0.5475330000000  0.5490100000000  0.4792250000000 1.0
C      1  0.5757620000000  0.5440710000000  0.4629820000000 1.0
C      1  0.4633500000000  0.6012900000000  0.5209390000000 1.0
C      1  0.5540480000000  0.4331130000000  0.4440920000000 1.0
C      1  0.4749350000000  0.3976840000000  0.5022240000000 1.0
C      1  0.5036440000000  0.4857620000000  0.5270510000000 1.0
C      1  0.4451490000000  0.5574240000000  0.4585150000000 1.0
C      1  0.6060310000000  0.5281850000000  0.4829350000000 1.0
C      1  0.6172110000000  0.5025570000000  0.5230220000000 1.0
C      1  0.4874000000000  0.4963940000000  0.4757100000000 1.0
C      1  0.4442270000000  0.4331850000000  0.4271300000000 1.0
C      1  0.5498620000000  0.5659400000000  0.5055770000000 1.0
C      1  0.3939060000000  0.5295180000000  0.4902870000000 1.0
C      1  0.4813280000000  0.5669320000000  0.5304020000000 1.0
C      1  0.4541980000000  0.5788570000000  0.5982690000000 1.0
C      1  0.4975560000000  0.5714640000000  0.5011060000000 1.0
C      1  0.5049030000000  0.4716780000000  0.4259670000000 1.0
C      1  0.5742100000000  0.5749840000000  0.4211240000000 1.0
C      1  0.5543320000000  0.4786140000000  0.5151250000000 1.0
C      1  0.4043210000000  0.5441900000000  0.4385840000000 1.0
C      1  0.5875100000000  0.4314720000000  0.4844320000000 1.0
C      1  0.4340940000000  0.5451790000000  0.5188740000000 1.0
C      1  0.4501260000000  0.4552580000000  0.5296030000000 1.0
C      1  0.5643540000000  0.4839820000000  0.4670440000000 1.0
C      1  0.4132580000000  0.5519170000000  0.5426450000000 1.0
C      1  0.5265440000000  0.4413630000000  0.5155220000000 1.0
C      1  0.5156080000000  0.4686090000000  0.4804750000000 1.0
C      1  0.4656140000000  0.4353120000000  0.5483400000000 1.0
C      1  0.4909770000000  0.4660100000000  0.5746730000000 1.0
C      1  0.5777220000000  0.4775220000000  0.5534090000000 1.0
C      1  0.4628210000000  0.4694160000000  0.5913450000000 1.0
C      1  0.5586100000000  0.5145740000000  0.4627830000000 1.0
C      1  0.5131170000000  0.5456300000000  0.6073340000000 1.0
C      1  0.5938750000000  0.4541780000000  0.5091440000000 1.0
C      1  0.4419520000000  0.4002380000000  0.5112580000000 1.0
C      1  0.5399540000000  0.5087900000000  0.5639100000000 1.0
C      1  0.5548270000000  0.4514500000000  0.4737530000000 1.0
C      1  0.4561150000000  0.4663140000000  0.4083140000000 1.0
C      1  0.5576360000000  0.4991950000000  0.4262190000000 1.0
C      1  0.4999320000000  0.4275350000000  0.5111030000000 1.0
C      1  0.3951540000000  0.5081170000000  0.4672380000000 1.0
C      1  0.4486140000000  0.4922120000000  0.5787980000000 1.0
C      1  0.4741420000000  0.5797700000000  0.4439850000000 1.0
C      1  0.4853480000000  0.4978230000000  0.5641800000000 1.0
C      1  0.4639000000000  0.4816610000000  0.5194880000000 1.0
C      1  0.5137520000000  0.5249700000000  0.5686810000000 1.0
C      1  0.4960510000000  0.5978810000000  0.5303570000000 1.0
C      1  0.4708830000000  0.4357080000000  0.4101520000000 1.0
C      1  0.4104010000000  0.4628900000000  0.5661470000000 1.0
C      1  0.5517010000000  0.4643360000000  0.4438490000000 1.0
C      1  0.5238700000000  0.5931490000000  0.5431460000000 1.0
C      1  0.5386440000000  0.4803120000000  0.5453670000000 1.0
C      1  0.5486470000000  0.4318400000000  0.4962210000000 1.0
C      1  0.4095700000000  0.4928050000000  0.4910260000000 1.0
C      1  0.4986310000000  0.3979940000000  0.5250970000000 1.0
C      1  0.4875180000000  0.5189130000000  0.5015750000000 1.0
C      1  0.5314960000000  0.4210180000000  0.4293400000000 1.0
C      1  0.5346060000000  0.4954990000000  0.3940200000000 1.0
C      1  0.4057920000000  0.5012230000000  0.4003840000000 1.0
C      1  0.4441690000000  0.5511830000000  0.4895640000000 1.0
C      1  0.4597160000000  0.4765920000000  0.3801480000000 1.0
C      1  0.4946010000000  0.6241830000000  0.4836390000000 1.0
C      1  0.4464650000000  0.5893780000000  0.4528930000000 1.0
C      1  0.5963920000000  0.4243340000000  0.5356210000000 1.0
C      1  0.4674810000000  0.5309530000000  0.4780430000000 1.0
C      1  0.4764980000000  0.5586970000000  0.5981830000000 1.0
C      1  0.5428540000000  0.5690360000000  0.4554330000000 1.0
C      1  0.5854330000000  0.5158610000000  0.5030120000000 1.0
C      1  0.4232150000000  0.4280920000000  0.4725880000000 1.0
C      1  0.5900020000000  0.5064580000000  0.5660310000000 1.0
C      1  0.4971330000000  0.5119760000000  0.5928270000000 1.0
C      1  0.5372580000000  0.4049860000000  0.4790590000000 1.0
C      1  0.4910940000000  0.5160090000000  0.5355230000000 1.0
C      1  0.4276230000000  0.5158070000000  0.5068290000000 1.0
C      1  0.5341830000000  0.4556480000000  0.5963080000000 1.0
C      1  0.4560930000000  0.5949080000000  0.5516560000000 1.0
C      1  0.4916940000000  0.4648690000000  0.5425200000000 1.0
C      1  0.4837070000000  0.4214650000000  0.5848940000000 1.0
C      1  0.4589330000000  0.4050600000000  0.5379310000000 1.0
C      1  0.6082620000000  0.4831420000000  0.5033000000000 1.0
C      1  0.5322920000000  0.5220490000000  0.4805410000000 1.0
C      1  0.5242870000000  0.5933250000000  0.4638000000000 1.0
C      1  0.5804560000000  0.5419260000000  0.5250680000000 1.0
C      1  0.4496620000000  0.5664160000000  0.5349040000000 1.0
C      1  0.5799800000000  0.4514920000000  0.5367600000000 1.0
C      1  0.4165230000000  0.5162020000000  0.4467980000000 1.0
C      1  0.4823470000000  0.5327790000000  0.6119710000000 1.0
C      1  0.5848700000000  0.5391940000000  0.5645840000000 1.0
C      1  0.5210290000000  0.5542880000000  0.5148110000000 1.0
C      1  0.5099070000000  0.6032730000000  0.4996950000000 1.0
C      1  0.3964740000000  0.4570030000000  0.4668700000000 1.0
C      1  0.4580070000000  0.4963240000000  0.5459720000000 1.0
C      1  0.5841570000000  0.4801510000000  0.4273090000000 1.0
END
