TITL C-2778430-5657-60 -0.00127289579884373 125000 -429.012907885496 0 0 74 (C1) n - 1
REM
REM in /home/nfs/bkarasulu/CARBON/AIRSS/Generating-Clusters/REBO/Only-C1/SD-CG/HFTN-CG
REM
REM
REM
REM
REM
REM ./C.cell (11c1c37f851c82e70ff6c80c92926a4b)
REM
REM compiler GCC version 9.2.1 20190827 (Red Hat 9.2.1-1)
REM options -cpp -mtune=generic -march=x86-64 -g -O0 -fpre-include=/usr/include/finclude/math-vector-fortran.h
REM seed -1832731965 -1581499210 453851147 -750488023 1597947552 1705529226 -998425040 -947103419 -1846130755 -1099126810 -1480622185 344533773 54507459 -1259781007 52340610 308439441 -258858184 1217129099 -1746821018 -171137411 -1999361542 -408978815 1757254787 1888239006 1624742364 -1041194708 -2135869033 994083766 -486029073 -1692896374 1137468262 -1818202512 -684532109
REM
CELL 1.54180   50.00000   50.00000   50.00000   90.00000   90.00000   90.00000
LATT -1
SFAC C  
C      1  0.4655880000000  0.5564640000000  0.5426470000000 1.0
C      1  0.5176020000000  0.4890890000000  0.4357950000000 1.0
C      1  0.5560810000000  0.4412640000000  0.5607520000000 1.0
C      1  0.4725210000000  0.4631220000000  0.4622840000000 1.0
C      1  0.5267600000000  0.4986600000000  0.4065580000000 1.0
C      1  0.5001560000000  0.4999070000000  0.4617730000000 1.0
C      1  0.4421400000000  0.5446510000000  0.5127470000000 1.0
C      1  0.5098180000000  0.5508660000000  0.4507580000000 1.0
C      1  0.5090200000000  0.5265210000000  0.5363320000000 1.0
C      1  0.5261550000000  0.4457350000000  0.4650660000000 1.0
C      1  0.5423730000000  0.4738750000000  0.4747110000000 1.0
C      1  0.4495680000000  0.5174860000000  0.4340870000000 1.0
C      1  0.4861080000000  0.5717370000000  0.4986200000000 1.0
C      1  0.5277170000000  0.5226470000000  0.3989450000000 1.0
C      1  0.5236580000000  0.5221550000000  0.4387160000000 1.0
C      1  0.5027350000000  0.4245070000000  0.4650040000000 1.0
C      1  0.4732100000000  0.5053950000000  0.4250590000000 1.0
C      1  0.5071840000000  0.4628100000000  0.4951490000000 1.0
C      1  0.5084950000000  0.4963030000000  0.5779700000000 1.0
C      1  0.4860930000000  0.5399220000000  0.5225240000000 1.0
C      1  0.4352860000000  0.5683570000000  0.4471800000000 1.0
C      1  0.4648510000000  0.4297190000000  0.4970990000000 1.0
C      1  0.5713730000000  0.4603320000000  0.4986330000000 1.0
C      1  0.4944500000000  0.5225670000000  0.4210840000000 1.0
C      1  0.5836220000000  0.4802580000000  0.5063590000000 1.0
C      1  0.5347420000000  0.4863380000000  0.5734670000000 1.0
C      1  0.5703050000000  0.5260180000000  0.5406780000000 1.0
C      1  0.5171530000000  0.5730520000000  0.4989040000000 1.0
C      1  0.5329460000000  0.5704020000000  0.5228600000000 1.0
C      1  0.4295720000000  0.4805060000000  0.5060320000000 1.0
C      1  0.4550590000000  0.4758930000000  0.4836940000000 1.0
C      1  0.4512390000000  0.5459180000000  0.4510360000000 1.0
C      1  0.4525300000000  0.5405340000000  0.5603170000000 1.0
C      1  0.5588550000000  0.5472330000000  0.4779650000000 1.0
C      1  0.5044770000000  0.4833860000000  0.5110930000000 1.0
C      1  0.4612630000000  0.5201580000000  0.5247850000000 1.0
C      1  0.4874670000000  0.5119230000000  0.4821740000000 1.0
C      1  0.5648870000000  0.5215310000000  0.4846350000000 1.0
C      1  0.5083490000000  0.4495940000000  0.5567420000000 1.0
C      1  0.4685390000000  0.4979850000000  0.5014340000000 1.0
C      1  0.4585550000000  0.4355260000000  0.5361120000000 1.0
C      1  0.4787240000000  0.4799640000000  0.4345940000000 1.0
C      1  0.4526840000000  0.5082650000000  0.5555080000000 1.0
C      1  0.4352640000000  0.5177650000000  0.4620320000000 1.0
C      1  0.5554340000000  0.4266510000000  0.5373070000000 1.0
C      1  0.5763620000000  0.5108520000000  0.5107800000000 1.0
C      1  0.5341530000000  0.4580610000000  0.5673140000000 1.0
C      1  0.5251200000000  0.5241820000000  0.4875290000000 1.0
C      1  0.5259600000000  0.5490510000000  0.5457510000000 1.0
C      1  0.4926950000000  0.5059710000000  0.5510260000000 1.0
C      1  0.5566240000000  0.5520280000000  0.5390610000000 1.0
C      1  0.4292010000000  0.4986210000000  0.5339750000000 1.0
C      1  0.4626130000000  0.4618920000000  0.5443810000000 1.0
C      1  0.5493570000000  0.4991030000000  0.5260980000000 1.0
C      1  0.4612050000000  0.5699080000000  0.5136480000000 1.0
C      1  0.5228930000000  0.5076440000000  0.5151300000000 1.0
C      1  0.4781930000000  0.4338070000000  0.4721870000000 1.0
C      1  0.4239200000000  0.5196750000000  0.5111720000000 1.0
C      1  0.4822570000000  0.4241390000000  0.5216120000000 1.0
C      1  0.4815900000000  0.5518320000000  0.4558720000000 1.0
C      1  0.4743900000000  0.4937270000000  0.5763510000000 1.0
C      1  0.5081950000000  0.4330180000000  0.5316690000000 1.0
C      1  0.5281360000000  0.5560510000000  0.4757440000000 1.0
C      1  0.5167840000000  0.5484080000000  0.4173250000000 1.0
C      1  0.5432010000000  0.4454910000000  0.4938200000000 1.0
C      1  0.5341820000000  0.4311280000000  0.5186530000000 1.0
C      1  0.4445270000000  0.4502190000000  0.5016690000000 1.0
C      1  0.5041630000000  0.4623820000000  0.4489250000000 1.0
C      1  0.5528770000000  0.5021370000000  0.5577890000000 1.0
C      1  0.4853400000000  0.4646400000000  0.5642040000000 1.0
C      1  0.4255820000000  0.5062850000000  0.4840880000000 1.0
C      1  0.4953970000000  0.5403080000000  0.4920530000000 1.0
C      1  0.5449870000000  0.5011830000000  0.4744540000000 1.0
C      1  0.4794960000000  0.4852690000000  0.5305000000000 1.0
END
