TITL C-2778432-5617-963 0.00491202410477881 125000 -556.214222660181 0 0 96 (C1) n - 1
REM
REM in /home/nfs/bkarasulu/CARBON/AIRSS/Generating-Clusters/REBO/Only-C1/SD-CG/HFTN-CG
REM
REM
REM
REM
REM
REM ./C.cell (11c1c37f851c82e70ff6c80c92926a4b)
REM
REM compiler GCC version 9.2.1 20190827 (Red Hat 9.2.1-1)
REM options -cpp -mtune=generic -march=x86-64 -g -O0 -fpre-include=/usr/include/finclude/math-vector-fortran.h
REM seed -881459340 399341313 -2015025104 913808867 870365150 78415474 909121236 -422822470 -1222387567 -279564058 -1904878541 914768325 -1694883347 1789592157 -365511133 190257355 -942393721 673460505 310547847 1774622917 -2116544893 -899342952 -1071975139 -1706010295 1766826672 -1170240518 -1487447707 -1864044289 268257071 104607377 242629483 -362524014 -1936601205
REM
CELL 1.54180   50.00000   50.00000   50.00000   90.00000   90.00000   90.00000
LATT -1
SFAC C  
C      1  0.4817580000000  0.4465180000000  0.4159290000000 1.0
C      1  0.5521860000000  0.5762880000000  0.4996910000000 1.0
C      1  0.5037180000000  0.5155630000000  0.4207660000000 1.0
C      1  0.4887370000000  0.4095760000000  0.4971120000000 1.0
C      1  0.4811630000000  0.4180440000000  0.4655330000000 1.0
C      1  0.5048110000000  0.5661770000000  0.5021500000000 1.0
C      1  0.5118790000000  0.5359870000000  0.5162460000000 1.0
C      1  0.5340100000000  0.5331380000000  0.5651970000000 1.0
C      1  0.4350610000000  0.4754680000000  0.5385670000000 1.0
C      1  0.5227600000000  0.5157920000000  0.5862400000000 1.0
C      1  0.5574210000000  0.4735020000000  0.5524660000000 1.0
C      1  0.5175210000000  0.5826560000000  0.4587050000000 1.0
C      1  0.4526790000000  0.4185110000000  0.4835090000000 1.0
C      1  0.4288910000000  0.4836960000000  0.4434660000000 1.0
C      1  0.4653370000000  0.5141810000000  0.4159080000000 1.0
C      1  0.4307720000000  0.5095170000000  0.4529470000000 1.0
C      1  0.4651360000000  0.5038810000000  0.4917670000000 1.0
C      1  0.5177360000000  0.5723420000000  0.5393220000000 1.0
C      1  0.4396010000000  0.5027730000000  0.5377970000000 1.0
C      1  0.5354780000000  0.5049250000000  0.5328180000000 1.0
C      1  0.5095670000000  0.5430190000000  0.5484050000000 1.0
C      1  0.5180220000000  0.5382350000000  0.4769200000000 1.0
C      1  0.4486140000000  0.5263700000000  0.4392710000000 1.0
C      1  0.4862890000000  0.4746230000000  0.5622220000000 1.0
C      1  0.4996070000000  0.5645440000000  0.4459010000000 1.0
C      1  0.4976480000000  0.4428500000000  0.4522970000000 1.0
C      1  0.5551400000000  0.4920530000000  0.5172350000000 1.0
C      1  0.5054920000000  0.4664620000000  0.4291330000000 1.0
C      1  0.4618240000000  0.4252380000000  0.5121010000000 1.0
C      1  0.5220210000000  0.5171010000000  0.4561410000000 1.0
C      1  0.5717670000000  0.4961900000000  0.5570450000000 1.0
C      1  0.5143990000000  0.4857920000000  0.5783320000000 1.0
C      1  0.5585070000000  0.4614170000000  0.5220030000000 1.0
C      1  0.4861830000000  0.4616160000000  0.5062440000000 1.0
C      1  0.5407020000000  0.4197020000000  0.5002520000000 1.0
C      1  0.4884420000000  0.5212340000000  0.4773510000000 1.0
C      1  0.4656300000000  0.5118130000000  0.5235540000000 1.0
C      1  0.4264080000000  0.5427470000000  0.5202090000000 1.0
C      1  0.5895590000000  0.5645340000000  0.5069230000000 1.0
C      1  0.4688620000000  0.4327370000000  0.5384810000000 1.0
C      1  0.5764000000000  0.5652860000000  0.4786450000000 1.0
C      1  0.5479870000000  0.4970160000000  0.4335260000000 1.0
C      1  0.4354090000000  0.4776880000000  0.4915580000000 1.0
C      1  0.5751170000000  0.5396820000000  0.4659750000000 1.0
C      1  0.4778470000000  0.4695500000000  0.4576720000000 1.0
C      1  0.5240700000000  0.5793390000000  0.4856630000000 1.0
C      1  0.4155320000000  0.5228430000000  0.5826120000000 1.0
C      1  0.4745380000000  0.5614560000000  0.4594140000000 1.0
C      1  0.5687240000000  0.5414040000000  0.5096660000000 1.0
C      1  0.4480670000000  0.5517420000000  0.5366020000000 1.0
C      1  0.5088000000000  0.4437420000000  0.5007130000000 1.0
C      1  0.5105270000000  0.5064900000000  0.4992930000000 1.0
C      1  0.4684340000000  0.5031840000000  0.5917680000000 1.0
C      1  0.5209710000000  0.4927310000000  0.4198320000000 1.0
C      1  0.4497920000000  0.4829970000000  0.5748460000000 1.0
C      1  0.4968880000000  0.4290200000000  0.5441090000000 1.0
C      1  0.5553250000000  0.5429550000000  0.5471890000000 1.0
C      1  0.5560010000000  0.4432650000000  0.4866370000000 1.0
C      1  0.4412330000000  0.5159200000000  0.5755000000000 1.0
C      1  0.4635440000000  0.4873940000000  0.4106480000000 1.0
C      1  0.5141980000000  0.5006310000000  0.5503370000000 1.0
C      1  0.5739880000000  0.5196360000000  0.5391470000000 1.0
C      1  0.5085220000000  0.4803370000000  0.5164280000000 1.0
C      1  0.4525480000000  0.4215750000000  0.4503130000000 1.0
C      1  0.4816150000000  0.5232340000000  0.4458120000000 1.0
C      1  0.4677850000000  0.5692190000000  0.5173520000000 1.0
C      1  0.5126090000000  0.4178390000000  0.5199060000000 1.0
C      1  0.5566970000000  0.4904040000000  0.4630560000000 1.0
C      1  0.4252220000000  0.4658800000000  0.5138860000000 1.0
C      1  0.5400270000000  0.5277480000000  0.4318340000000 1.0
C      1  0.5768940000000  0.5108020000000  0.5060400000000 1.0
C      1  0.4676570000000  0.4730330000000  0.4858760000000 1.0
C      1  0.5729150000000  0.5138510000000  0.4751670000000 1.0
C      1  0.5300910000000  0.4568820000000  0.4901260000000 1.0
C      1  0.4344750000000  0.5104900000000  0.4825150000000 1.0
C      1  0.4849450000000  0.5355670000000  0.5632750000000 1.0
C      1  0.5709520000000  0.4613680000000  0.4696140000000 1.0
C      1  0.4917050000000  0.5179830000000  0.5851690000000 1.0
C      1  0.5462200000000  0.5670070000000  0.5319310000000 1.0
C      1  0.4862160000000  0.5014210000000  0.5416690000000 1.0
C      1  0.4576240000000  0.5367010000000  0.5578700000000 1.0
C      1  0.4594600000000  0.5575990000000  0.4860300000000 1.0
C      1  0.5118870000000  0.5449110000000  0.4293220000000 1.0
C      1  0.5198840000000  0.4204220000000  0.4566410000000 1.0
C      1  0.5389480000000  0.5450260000000  0.4994640000000 1.0
C      1  0.5284970000000  0.4853700000000  0.4793800000000 1.0
C      1  0.4939240000000  0.5847540000000  0.5249380000000 1.0
C      1  0.5191600000000  0.4092480000000  0.4817320000000 1.0
C      1  0.5083440000000  0.4528130000000  0.5548790000000 1.0
C      1  0.5054320000000  0.4879430000000  0.4560650000000 1.0
C      1  0.5282430000000  0.4658350000000  0.5365700000000 1.0
C      1  0.4745720000000  0.5381000000000  0.5087150000000 1.0
C      1  0.4555230000000  0.4696600000000  0.4351380000000 1.0
C      1  0.4579030000000  0.4584350000000  0.5538510000000 1.0
C      1  0.4555730000000  0.4387160000000  0.4282770000000 1.0
C      1  0.4331990000000  0.5390460000000  0.4936520000000 1.0
END
