TITL C-2778433-5640-208 -0.0034116711855269 125000 -728.451655837911 0 0 126 (C1) n - 1
REM
REM in /home/nfs/bkarasulu/CARBON/AIRSS/Generating-Clusters/REBO/Only-C1/SD-CG/HFTN-CG
REM
REM
REM
REM
REM
REM ./C.cell (11c1c37f851c82e70ff6c80c92926a4b)
REM
REM compiler GCC version 9.2.1 20190827 (Red Hat 9.2.1-1)
REM options -cpp -mtune=generic -march=x86-64 -g -O0 -fpre-include=/usr/include/finclude/math-vector-fortran.h
REM seed 1336532548 -2052568347 642470162 -1997482174 726552003 -689176800 -120437372 1928420029 -1884690895 -1839083054 684463002 1318529079 -1865307774 -834946190 -665805408 1850736754 -1324495375 -1425519925 -198292688 824211820 524241899 1460750357 1079819559 1846923830 -937869999 -57488790 2595357 1565690524 1544238961 -1079607098 975093004 -965693656 619304132
REM
CELL 1.54180   50.00000   50.00000   50.00000   90.00000   90.00000   90.00000
LATT -1
SFAC C  
C      1  0.5331120000000  0.5502110000000  0.5732700000000 1.0
C      1  0.5279150000000  0.5005470000000  0.5470130000000 1.0
C      1  0.5089020000000  0.4982440000000  0.4059970000000 1.0
C      1  0.5257490000000  0.5785020000000  0.4989610000000 1.0
C      1  0.5228000000000  0.5727820000000  0.4386010000000 1.0
C      1  0.5066980000000  0.4823240000000  0.5271000000000 1.0
C      1  0.4586060000000  0.5160440000000  0.5820300000000 1.0
C      1  0.4640470000000  0.3963580000000  0.4404240000000 1.0
C      1  0.4020210000000  0.5128670000000  0.4692050000000 1.0
C      1  0.5207370000000  0.5040620000000  0.5904330000000 1.0
C      1  0.5594860000000  0.5743270000000  0.4981120000000 1.0
C      1  0.4450890000000  0.5853670000000  0.4624200000000 1.0
C      1  0.5152760000000  0.4613040000000  0.4690200000000 1.0
C      1  0.4767580000000  0.4152860000000  0.4534180000000 1.0
C      1  0.4295550000000  0.4560770000000  0.4647900000000 1.0
C      1  0.4525770000000  0.5297380000000  0.4724160000000 1.0
C      1  0.5632780000000  0.5387270000000  0.5359320000000 1.0
C      1  0.4942050000000  0.4375170000000  0.4414580000000 1.0
C      1  0.5469030000000  0.4344890000000  0.4368610000000 1.0
C      1  0.4788550000000  0.5859090000000  0.4652590000000 1.0
C      1  0.3878530000000  0.5072940000000  0.4982170000000 1.0
C      1  0.5766840000000  0.4823100000000  0.4408480000000 1.0
C      1  0.5623510000000  0.4143060000000  0.5016070000000 1.0
C      1  0.4330560000000  0.5678320000000  0.4455110000000 1.0
C      1  0.4308210000000  0.4595490000000  0.5504320000000 1.0
C      1  0.4565760000000  0.4413070000000  0.4759900000000 1.0
C      1  0.5237280000000  0.4338970000000  0.4796110000000 1.0
C      1  0.5953380000000  0.5215280000000  0.4764840000000 1.0
C      1  0.4954460000000  0.5828680000000  0.5455930000000 1.0
C      1  0.5232020000000  0.4281170000000  0.4485150000000 1.0
C      1  0.5332550000000  0.5105580000000  0.4614890000000 1.0
C      1  0.4358670000000  0.4827630000000  0.4442130000000 1.0
C      1  0.4951030000000  0.5180090000000  0.4522410000000 1.0
C      1  0.4830430000000  0.5395350000000  0.5105120000000 1.0
C      1  0.5219510000000  0.5645390000000  0.5444750000000 1.0
C      1  0.5832990000000  0.4943810000000  0.5343440000000 1.0
C      1  0.5295850000000  0.4086040000000  0.5368540000000 1.0
C      1  0.4649480000000  0.4722810000000  0.4830730000000 1.0
C      1  0.4705890000000  0.5437940000000  0.4270330000000 1.0
C      1  0.4790950000000  0.4090290000000  0.5266390000000 1.0
C      1  0.4949360000000  0.5059350000000  0.5689440000000 1.0
C      1  0.4680030000000  0.5128590000000  0.5124570000000 1.0
C      1  0.4772650000000  0.4863990000000  0.4128380000000 1.0
C      1  0.5167880000000  0.5182490000000  0.5130630000000 1.0
C      1  0.4204500000000  0.4853670000000  0.5442740000000 1.0
C      1  0.4535780000000  0.4184520000000  0.5085990000000 1.0
C      1  0.5199290000000  0.4735110000000  0.5637520000000 1.0
C      1  0.5358650000000  0.5268170000000  0.4364690000000 1.0
C      1  0.5083360000000  0.4009820000000  0.5182220000000 1.0
C      1  0.5554840000000  0.5112880000000  0.5386170000000 1.0
C      1  0.4542560000000  0.4994220000000  0.4860020000000 1.0
C      1  0.4386670000000  0.4987770000000  0.5224000000000 1.0
C      1  0.4679270000000  0.4555970000000  0.5115590000000 1.0
C      1  0.3951030000000  0.5577480000000  0.5138020000000 1.0
C      1  0.5022260000000  0.4754590000000  0.5930070000000 1.0
C      1  0.5711860000000  0.5562740000000  0.4432020000000 1.0
C      1  0.4480110000000  0.5730230000000  0.5183470000000 1.0
C      1  0.4512720000000  0.4796540000000  0.4210930000000 1.0
C      1  0.4386770000000  0.4442970000000  0.5251420000000 1.0
C      1  0.4719090000000  0.5494880000000  0.4835380000000 1.0
C      1  0.4589540000000  0.5767880000000  0.4913390000000 1.0
C      1  0.4985550000000  0.4633330000000  0.4224450000000 1.0
C      1  0.5105410000000  0.5210200000000  0.4826240000000 1.0
C      1  0.4288790000000  0.4369740000000  0.4932830000000 1.0
C      1  0.4268030000000  0.5203170000000  0.4899860000000 1.0
C      1  0.5106770000000  0.5819690000000  0.4690670000000 1.0
C      1  0.5434110000000  0.5540400000000  0.4348390000000 1.0
C      1  0.5164850000000  0.4357710000000  0.5487070000000 1.0
C      1  0.5516760000000  0.4949400000000  0.4839420000000 1.0
C      1  0.5748780000000  0.4921500000000  0.5673380000000 1.0
C      1  0.5569760000000  0.4141640000000  0.5298610000000 1.0
C      1  0.4675710000000  0.5462260000000  0.5716050000000 1.0
C      1  0.4846700000000  0.4647480000000  0.4598610000000 1.0
C      1  0.5577380000000  0.4715560000000  0.5775210000000 1.0
C      1  0.5738330000000  0.5452430000000  0.5084590000000 1.0
C      1  0.4004540000000  0.5075660000000  0.5301480000000 1.0
C      1  0.4848980000000  0.4248520000000  0.5496550000000 1.0
C      1  0.4997050000000  0.4503950000000  0.5227770000000 1.0
C      1  0.4862150000000  0.5174970000000  0.4208690000000 1.0
C      1  0.4767840000000  0.4192860000000  0.4850420000000 1.0
C      1  0.5527150000000  0.5592640000000  0.5507450000000 1.0
C      1  0.5822780000000  0.4670690000000  0.5224440000000 1.0
C      1  0.4785940000000  0.4976990000000  0.5398120000000 1.0
C      1  0.5337610000000  0.4889220000000  0.5092640000000 1.0
C      1  0.5528380000000  0.4623920000000  0.5083310000000 1.0
C      1  0.5014280000000  0.4892600000000  0.4445210000000 1.0
C      1  0.4183480000000  0.5682510000000  0.5286600000000 1.0
C      1  0.4891250000000  0.5695680000000  0.4372600000000 1.0
C      1  0.4409570000000  0.5426690000000  0.5323650000000 1.0
C      1  0.4685880000000  0.4675420000000  0.5411280000000 1.0
C      1  0.5335600000000  0.4794700000000  0.4519790000000 1.0
C      1  0.5413860000000  0.5065320000000  0.4131480000000 1.0
C      1  0.5647260000000  0.4537320000000  0.4452670000000 1.0
C      1  0.5024700000000  0.4260130000000  0.4990310000000 1.0
C      1  0.4430970000000  0.5428640000000  0.4360210000000 1.0
C      1  0.4565730000000  0.5232550000000  0.5493470000000 1.0
C      1  0.5635870000000  0.5234690000000  0.4840620000000 1.0
C      1  0.5702840000000  0.4739290000000  0.4722180000000 1.0
C      1  0.4190990000000  0.4848110000000  0.4737460000000 1.0
C      1  0.5058220000000  0.5262800000000  0.5443600000000 1.0
C      1  0.5142990000000  0.5523120000000  0.5155520000000 1.0
C      1  0.4848570000000  0.5505980000000  0.5425660000000 1.0
C      1  0.4304880000000  0.5153260000000  0.4506210000000 1.0
C      1  0.3904210000000  0.4782800000000  0.5154900000000 1.0
C      1  0.5120170000000  0.5948450000000  0.5204420000000 1.0
C      1  0.5407350000000  0.5265130000000  0.5855360000000 1.0
C      1  0.4195590000000  0.4837990000000  0.5043290000000 1.0
C      1  0.5731630000000  0.5747470000000  0.4671520000000 1.0
C      1  0.5899410000000  0.4636740000000  0.4934920000000 1.0
C      1  0.4552760000000  0.4624130000000  0.5715480000000 1.0
C      1  0.5704520000000  0.5076350000000  0.4310060000000 1.0
C      1  0.4712300000000  0.4880360000000  0.5866650000000 1.0
C      1  0.5925550000000  0.5165930000000  0.5101490000000 1.0
C      1  0.5413000000000  0.4798430000000  0.5980470000000 1.0
C      1  0.5674720000000  0.5171950000000  0.5796990000000 1.0
C      1  0.4913260000000  0.5481570000000  0.4609510000000 1.0
C      1  0.4756870000000  0.5773500000000  0.5705580000000 1.0
C      1  0.4891370000000  0.4589750000000  0.5661880000000 1.0
C      1  0.5504020000000  0.5504960000000  0.4767110000000 1.0
C      1  0.5432260000000  0.4519020000000  0.5583150000000 1.0
C      1  0.5827240000000  0.5292620000000  0.4467450000000 1.0
C      1  0.4157250000000  0.5307140000000  0.5156370000000 1.0
C      1  0.5618470000000  0.4444100000000  0.5361170000000 1.0
C      1  0.5297580000000  0.4756290000000  0.4198410000000 1.0
C      1  0.5509490000000  0.4367470000000  0.4904610000000 1.0
C      1  0.5222910000000  0.5499410000000  0.4713720000000 1.0
END
