TITL C-2778423-5760-1149 0.000117079190577078 125000 -77.8830628067608 0 0 14 (Cs) n - 1
REM
REM in /home/nfs/bkarasulu/CARBON/AIRSS/Generating-Clusters/REBO/Only-C1/SD-CG/HFTN-CG
REM
REM
REM
REM
REM
REM ./C.cell (11c1c37f851c82e70ff6c80c92926a4b)
REM
REM compiler GCC version 9.2.1 20190827 (Red Hat 9.2.1-1)
REM options -cpp -mtune=generic -march=x86-64 -g -O0 -fpre-include=/usr/include/finclude/math-vector-fortran.h
REM seed -1610599996 -606310007 1316525799 2097764923 -821362966 -1824677426 -325531940 -1002609348 608621261 -572418784 1479017621 -402377790 1869763979 1897787728 -30311219 1409577074 -45987992 -1750578233 -2015762385 -521622937 1941081049 -1824064420 511716966 -600386624 -481273600 907388855 535622904 1948675796 -1918317464 1333771239 -894288192 -824963284 -285952692
REM
CELL 1.54180   50.00000   50.00000   50.00000   90.00000   90.00000   90.00000
LATT -1
SFAC C  
C      1  0.5960510000000  0.5281630000000  0.4363270000000 1.0
C      1  0.4050330000000  0.4369550000000  0.5801580000000 1.0
C      1  0.5347900000000  0.5175850000000  0.4733280000000 1.0
C      1  0.4235700000000  0.4484730000000  0.5648970000000 1.0
C      1  0.5680800000000  0.5668580000000  0.4319490000000 1.0
C      1  0.5636610000000  0.5908980000000  0.4224960000000 1.0
C      1  0.5727960000000  0.5412010000000  0.4420380000000 1.0
C      1  0.4606430000000  0.4715100000000  0.5343740000000 1.0
C      1  0.5162540000000  0.5060660000000  0.4885900000000 1.0
C      1  0.3867910000000  0.4256190000000  0.5951770000000 1.0
C      1  0.4421060000000  0.4599920000000  0.5496350000000 1.0
C      1  0.4791800000000  0.4830290000000  0.5191130000000 1.0
C      1  0.4977170000000  0.4945470000000  0.5038510000000 1.0
C      1  0.5533270000000  0.5291030000000  0.4580670000000 1.0
END
