TITL C-2778435-5768-377 -25.5626514876012 125000 -683.953913848988 0 0 119 (C1) n - 1
REM
REM in /home/nfs/bkarasulu/CARBON/AIRSS/Generating-Clusters/REBO/Only-C1/SD-CG/HFTN-CG
REM
REM
REM
REM
REM
REM ./C.cell (11c1c37f851c82e70ff6c80c92926a4b)
REM
REM compiler GCC version 9.2.1 20190827 (Red Hat 9.2.1-1)
REM options -cpp -mtune=generic -march=x86-64 -g -O0 -fpre-include=/usr/include/finclude/math-vector-fortran.h
REM seed 1357327649 -1375524438 -1651005747 -795638470 -212662238 -1266336350 -445959512 583256726 453424420 -85055896 1080270746 1263655574 1844325409 -444574231 -1736019551 -1008361081 1843112850 1025671656 -287081966 1476638361 -2088766979 -2077440643 1586200537 511702795 -1236532693 2080920200 1515987182 -1554660476 711110746 -683168509 -640264866 -638582217 -1393486192
REM
CELL 1.54180   50.00000   50.00000   50.00000   90.00000   90.00000   90.00000
LATT -1
SFAC C  
C      1  0.4680480000000  0.5126210000000  0.4314000000000 1.0
C      1  0.5230940000000  0.5688100000000  0.5344540000000 1.0
C      1  0.4821190000000  0.4913490000000  0.4513940000000 1.0
C      1  0.4894570000000  0.4633930000000  0.4358450000000 1.0
C      1  0.4437690000000  0.4732120000000  0.5641300000000 1.0
C      1  0.5264980000000  0.5402160000000  0.5715040000000 1.0
C      1  0.4875160000000  0.5270610000000  0.4895120000000 1.0
C      1  0.5834730000000  0.5074320000000  0.5280340000000 1.0
C      1  0.4970390000000  0.4889000000000  0.4972090000000 1.0
C      1  0.5015030000000  0.5466660000000  0.5092400000000 1.0
C      1  0.4643970000000  0.4728180000000  0.4208880000000 1.0
C      1  0.4721040000000  0.4920240000000  0.5131690000000 1.0
C      1  0.4340910000000  0.5044710000000  0.5548950000000 1.0
C      1  0.4272250000000  0.5404770000000  0.5131170000000 1.0
C      1  0.4818540000000  0.5050670000000  0.5392290000000 1.0
C      1  0.5199320000000  0.4381760000000  0.5789670000000 1.0
C      1  0.4592500000000  0.5454060000000  0.4262550000000 1.0
C      1  0.5749930000000  0.5685420000000  0.4814450000000 1.0
C      1  0.4807370000000  0.4458360000000  0.4740010000000 1.0
C      1  0.4221770000000  0.5015740000000  0.5258820000000 1.0
C      1  0.5564860000000  0.5219240000000  0.4679180000000 1.0
C      1  0.4729740000000  0.4885580000000  0.5658950000000 1.0
C      1  0.4309120000000  0.5366240000000  0.5429160000000 1.0
C      1  0.4562080000000  0.5565780000000  0.5513650000000 1.0
C      1  0.4638400000000  0.4866690000000  0.4745460000000 1.0
C      1  0.4125180000000  0.4714250000000  0.5233960000000 1.0
C      1  0.5354990000000  0.4629770000000  0.4924700000000 1.0
C      1  0.5626610000000  0.4417780000000  0.5125650000000 1.0
C      1  0.4352920000000  0.5329570000000  0.4419190000000 1.0
C      1  0.5356730000000  0.4355780000000  0.4227630000000 1.0
C      1  0.4268060000000  0.4552940000000  0.5420290000000 1.0
C      1  0.4421720000000  0.4739380000000  0.4437420000000 1.0
C      1  0.4986480000000  0.4675080000000  0.4786250000000 1.0
C      1  0.5798410000000  0.5438170000000  0.5015380000000 1.0
C      1  0.4641140000000  0.4264210000000  0.5550800000000 1.0
C      1  0.4050640000000  0.5114390000000  0.4704600000000 1.0
C      1  0.5874910000000  0.4952140000000  0.4457430000000 1.0
C      1  0.4887980000000  0.4448670000000  0.5287680000000 1.0
C      1  0.5688770000000  0.4582120000000  0.5353390000000 1.0
C      1  0.4777620000000  0.5154470000000  0.5862260000000 1.0
C      1  0.4449120000000  0.5062380000000  0.5033540000000 1.0
C      1  0.4297810000000  0.5695120000000  0.4964280000000 1.0
C      1  0.4916150000000  0.4135310000000  0.5416680000000 1.0
C      1  0.4303760000000  0.5052010000000  0.4423010000000 1.0
C      1  0.5069820000000  0.5085240000000  0.5957590000000 1.0
C      1  0.5751200000000  0.4633040000000  0.4893700000000 1.0
C      1  0.5365210000000  0.4791050000000  0.5774300000000 1.0
C      1  0.5424280000000  0.4255560000000  0.4741150000000 1.0
C      1  0.5487370000000  0.5752240000000  0.4741840000000 1.0
C      1  0.4050760000000  0.4860090000000  0.4935890000000 1.0
C      1  0.5401030000000  0.4246440000000  0.5024650000000 1.0
C      1  0.5733550000000  0.4756070000000  0.5635290000000 1.0
C      1  0.5054280000000  0.5105720000000  0.4649990000000 1.0
C      1  0.4793890000000  0.5305190000000  0.4567830000000 1.0
C      1  0.5361920000000  0.4367610000000  0.5427460000000 1.0
C      1  0.5221060000000  0.5007250000000  0.5745350000000 1.0
C      1  0.4936320000000  0.4679140000000  0.5480370000000 1.0
C      1  0.4305540000000  0.4795990000000  0.4755830000000 1.0
C      1  0.5841460000000  0.5184810000000  0.4844340000000 1.0
C      1  0.4672230000000  0.4495530000000  0.5717240000000 1.0
C      1  0.5511220000000  0.5307460000000  0.5608910000000 1.0
C      1  0.5198740000000  0.5073390000000  0.5020240000000 1.0
C      1  0.5190950000000  0.5388010000000  0.5322570000000 1.0
C      1  0.4739190000000  0.5842120000000  0.4598430000000 1.0
C      1  0.5334450000000  0.5803430000000  0.5041680000000 1.0
C      1  0.4538060000000  0.4494130000000  0.4643270000000 1.0
C      1  0.5640800000000  0.4823450000000  0.4660640000000 1.0
C      1  0.4562710000000  0.5224810000000  0.6023030000000 1.0
C      1  0.5641460000000  0.4432340000000  0.4377020000000 1.0
C      1  0.5933610000000  0.5240740000000  0.4530060000000 1.0
C      1  0.4418140000000  0.5789620000000  0.4665520000000 1.0
C      1  0.5649250000000  0.5357720000000  0.5311610000000 1.0
C      1  0.4361970000000  0.5189550000000  0.4791380000000 1.0
C      1  0.5238640000000  0.4631880000000  0.4101690000000 1.0
C      1  0.5417660000000  0.4891790000000  0.5064060000000 1.0
C      1  0.5574650000000  0.4920100000000  0.4342150000000 1.0
C      1  0.4348040000000  0.4414630000000  0.4862470000000 1.0
C      1  0.4533730000000  0.5696050000000  0.5211880000000 1.0
C      1  0.4980150000000  0.5800870000000  0.5444810000000 1.0
C      1  0.5264350000000  0.4839660000000  0.4299720000000 1.0
C      1  0.5246960000000  0.4687760000000  0.4606610000000 1.0
C      1  0.4250490000000  0.5494200000000  0.4687740000000 1.0
C      1  0.5186410000000  0.5443170000000  0.4362270000000 1.0
C      1  0.4615100000000  0.4288210000000  0.5153690000000 1.0
C      1  0.5350630000000  0.5172780000000  0.4301910000000 1.0
C      1  0.5008660000000  0.5787370000000  0.5028930000000 1.0
C      1  0.5049600000000  0.4416090000000  0.4379110000000 1.0
C      1  0.4701370000000  0.4969070000000  0.4033520000000 1.0
C      1  0.5402090000000  0.5687260000000  0.4474670000000 1.0
C      1  0.4604090000000  0.5234720000000  0.5512610000000 1.0
C      1  0.5120020000000  0.5136550000000  0.5453640000000 1.0
C      1  0.4787600000000  0.5885230000000  0.5223040000000 1.0
C      1  0.4901620000000  0.5199010000000  0.3989540000000 1.0
C      1  0.5183820000000  0.4160500000000  0.5570650000000 1.0
C      1  0.4404980000000  0.4306760000000  0.5363020000000 1.0
C      1  0.4974940000000  0.5407910000000  0.5743900000000 1.0
C      1  0.5267290000000  0.4560530000000  0.5227800000000 1.0
C      1  0.4047980000000  0.5193450000000  0.5035720000000 1.0
C      1  0.5096740000000  0.4214700000000  0.5132720000000 1.0
C      1  0.5499840000000  0.4514450000000  0.5696690000000 1.0
C      1  0.4911280000000  0.5423740000000  0.4184670000000 1.0
C      1  0.4593040000000  0.5432550000000  0.5006420000000 1.0
C      1  0.5248910000000  0.4215910000000  0.4521840000000 1.0
C      1  0.4987490000000  0.5734260000000  0.4733100000000 1.0
C      1  0.5313850000000  0.5330540000000  0.4866760000000 1.0
C      1  0.5642150000000  0.4423780000000  0.4653690000000 1.0
C      1  0.4840420000000  0.5625470000000  0.5625250000000 1.0
C      1  0.4644300000000  0.5533470000000  0.4705280000000 1.0
C      1  0.5653940000000  0.5309610000000  0.4375230000000 1.0
C      1  0.4520580000000  0.4675900000000  0.4998880000000 1.0
C      1  0.5342180000000  0.4992760000000  0.4658110000000 1.0
C      1  0.5515840000000  0.4845930000000  0.5346410000000 1.0
C      1  0.4829850000000  0.4259810000000  0.4943020000000 1.0
C      1  0.5187530000000  0.4836480000000  0.5385890000000 1.0
C      1  0.4966160000000  0.4548910000000  0.5782050000000 1.0
C      1  0.5733130000000  0.5074690000000  0.5580180000000 1.0
C      1  0.5848660000000  0.4932620000000  0.5022510000000 1.0
C      1  0.5125360000000  0.5493810000000  0.4678370000000 1.0
C      1  0.5471400000000  0.5509720000000  0.5064360000000 1.0
END
