TITL C-2778426-5645-563 -0.00191141409937372 125000 -995.96973330866 0 0 172 (C1) n - 1
REM
REM in /home/nfs/bkarasulu/CARBON/AIRSS/Generating-Clusters/REBO/Only-C1/SD-CG/HFTN-CG
REM
REM
REM
REM
REM
REM ./C.cell (11c1c37f851c82e70ff6c80c92926a4b)
REM
REM compiler GCC version 9.2.1 20190827 (Red Hat 9.2.1-1)
REM options -cpp -mtune=generic -march=x86-64 -g -O0 -fpre-include=/usr/include/finclude/math-vector-fortran.h
REM seed 330042080 1838407482 1614981347 1328123858 -2061605065 -1165381092 -959653183 -62507572 933808190 1666900459 -963522494 -1853766623 1957599941 1670419054 -117070528 1853670097 2135032381 857943332 1094039603 1166679930 597993317 -190357982 -622720283 -2084583866 -2122544070 -465537115 -1036424203 -1883514203 2090821962 -987793195 -535718447 172675892 2081793384
REM
CELL 1.54180   50.00000   50.00000   50.00000   90.00000   90.00000   90.00000
LATT -1
SFAC C  
C      1  0.5744340000000  0.4808430000000  0.4161460000000 1.0
C      1  0.5309330000000  0.5832570000000  0.4271580000000 1.0
C      1  0.4342890000000  0.4783720000000  0.4812790000000 1.0
C      1  0.3917470000000  0.4740230000000  0.5090230000000 1.0
C      1  0.5310800000000  0.4262910000000  0.4369800000000 1.0
C      1  0.5015930000000  0.5049450000000  0.5566830000000 1.0
C      1  0.6475830000000  0.5199720000000  0.4923230000000 1.0
C      1  0.4866530000000  0.5172070000000  0.6001050000000 1.0
C      1  0.4453600000000  0.4969710000000  0.4555330000000 1.0
C      1  0.4261860000000  0.4940010000000  0.5087030000000 1.0
C      1  0.5603770000000  0.5542990000000  0.5572790000000 1.0
C      1  0.4479270000000  0.4048620000000  0.5477570000000 1.0
C      1  0.5993070000000  0.4396270000000  0.5060560000000 1.0
C      1  0.5555820000000  0.5757550000000  0.5311700000000 1.0
C      1  0.5228780000000  0.5468980000000  0.5978480000000 1.0
C      1  0.5308900000000  0.5344460000000  0.4035140000000 1.0
C      1  0.5302990000000  0.4773920000000  0.4922050000000 1.0
C      1  0.4259670000000  0.4294000000000  0.5391740000000 1.0
C      1  0.4185750000000  0.4975080000000  0.4345620000000 1.0
C      1  0.5445210000000  0.5917000000000  0.4804640000000 1.0
C      1  0.5164280000000  0.5215370000000  0.4384240000000 1.0
C      1  0.5195870000000  0.5018980000000  0.4782650000000 1.0
C      1  0.5104370000000  0.6053750000000  0.5186290000000 1.0
C      1  0.5220320000000  0.5526760000000  0.4512110000000 1.0
C      1  0.4487370000000  0.5415670000000  0.5445770000000 1.0
C      1  0.5085190000000  0.5706540000000  0.5590340000000 1.0
C      1  0.4641080000000  0.5448480000000  0.5081630000000 1.0
C      1  0.5026100000000  0.4383400000000  0.5228220000000 1.0
C      1  0.5355440000000  0.4778750000000  0.4074170000000 1.0
C      1  0.4278350000000  0.5173870000000  0.4852800000000 1.0
C      1  0.5067360000000  0.4473430000000  0.5801800000000 1.0
C      1  0.4695140000000  0.4735800000000  0.4490420000000 1.0
C      1  0.5056230000000  0.3839970000000  0.5119300000000 1.0
C      1  0.5264640000000  0.5610170000000  0.4119070000000 1.0
C      1  0.4582030000000  0.4547010000000  0.5025870000000 1.0
C      1  0.5826320000000  0.4653130000000  0.5478370000000 1.0
C      1  0.4261580000000  0.5614860000000  0.4551960000000 1.0
C      1  0.5020860000000  0.4151170000000  0.5058250000000 1.0
C      1  0.5516540000000  0.4041200000000  0.5199130000000 1.0
C      1  0.4948220000000  0.5438860000000  0.5959820000000 1.0
C      1  0.4382920000000  0.5551660000000  0.4927380000000 1.0
C      1  0.5993520000000  0.5575280000000  0.4800480000000 1.0
C      1  0.4760890000000  0.5587550000000  0.5790790000000 1.0
C      1  0.4550420000000  0.5565350000000  0.4384720000000 1.0
C      1  0.5005510000000  0.4372920000000  0.4726750000000 1.0
C      1  0.5987380000000  0.4880610000000  0.5192650000000 1.0
C      1  0.4383540000000  0.4606280000000  0.5759840000000 1.0
C      1  0.5037540000000  0.4307040000000  0.4435390000000 1.0
C      1  0.4047680000000  0.5186410000000  0.5524150000000 1.0
C      1  0.6068780000000  0.5311590000000  0.4634260000000 1.0
C      1  0.5049050000000  0.4649510000000  0.5045750000000 1.0
C      1  0.5031280000000  0.4706670000000  0.4423030000000 1.0
C      1  0.5678300000000  0.5089190000000  0.4840620000000 1.0
C      1  0.4822240000000  0.5889160000000  0.5667430000000 1.0
C      1  0.4484490000000  0.4899720000000  0.5621740000000 1.0
C      1  0.5293790000000  0.4609970000000  0.5415520000000 1.0
C      1  0.3916860000000  0.4828680000000  0.4779360000000 1.0
C      1  0.5646250000000  0.5219750000000  0.5681370000000 1.0
C      1  0.4859340000000  0.4641480000000  0.4756760000000 1.0
C      1  0.4683530000000  0.5348750000000  0.4172460000000 1.0
C      1  0.4308380000000  0.5171650000000  0.5331770000000 1.0
C      1  0.5389800000000  0.5256060000000  0.4826700000000 1.0
C      1  0.4853750000000  0.3903800000000  0.4623850000000 1.0
C      1  0.5769120000000  0.5518870000000  0.4571060000000 1.0
C      1  0.5726400000000  0.4829000000000  0.4992900000000 1.0
C      1  0.5524000000000  0.4674040000000  0.5735840000000 1.0
C      1  0.4318220000000  0.5160490000000  0.5730540000000 1.0
C      1  0.4849220000000  0.5484070000000  0.3991830000000 1.0
C      1  0.4485530000000  0.5443490000000  0.5769280000000 1.0
C      1  0.4944490000000  0.5111890000000  0.4589580000000 1.0
C      1  0.5422640000000  0.5177610000000  0.5232940000000 1.0
C      1  0.4435360000000  0.4889090000000  0.4164130000000 1.0
C      1  0.4900280000000  0.3774690000000  0.5334290000000 1.0
C      1  0.4765060000000  0.5493800000000  0.4706810000000 1.0
C      1  0.4496160000000  0.5715480000000  0.5340070000000 1.0
C      1  0.4979800000000  0.4655810000000  0.5520910000000 1.0
C      1  0.3909880000000  0.5059900000000  0.5232890000000 1.0
C      1  0.4881490000000  0.4914880000000  0.4030930000000 1.0
C      1  0.4374290000000  0.4566200000000  0.5253330000000 1.0
C      1  0.4785930000000  0.5129770000000  0.4890710000000 1.0
C      1  0.4749960000000  0.3964280000000  0.5492550000000 1.0
C      1  0.5398720000000  0.5641270000000  0.5827600000000 1.0
C      1  0.4790220000000  0.5306540000000  0.5556610000000 1.0
C      1  0.5070070000000  0.5781900000000  0.4998860000000 1.0
C      1  0.5414250000000  0.5960730000000  0.5082700000000 1.0
C      1  0.4898330000000  0.4161090000000  0.5636500000000 1.0
C      1  0.4499540000000  0.5335990000000  0.4706850000000 1.0
C      1  0.4095820000000  0.4823780000000  0.5366650000000 1.0
C      1  0.4802660000000  0.4160300000000  0.4830910000000 1.0
C      1  0.5341870000000  0.5216070000000  0.6056460000000 1.0
C      1  0.4951590000000  0.5404650000000  0.4957210000000 1.0
C      1  0.5240180000000  0.5498040000000  0.4965510000000 1.0
C      1  0.5702170000000  0.4519690000000  0.4149440000000 1.0
C      1  0.5999890000000  0.5191260000000  0.5142420000000 1.0
C      1  0.5547740000000  0.5574510000000  0.5027220000000 1.0
C      1  0.5339310000000  0.4732710000000  0.4407590000000 1.0
C      1  0.5312190000000  0.4930220000000  0.5443370000000 1.0
C      1  0.4764780000000  0.4585680000000  0.5312890000000 1.0
C      1  0.5619710000000  0.4927350000000  0.4423090000000 1.0
C      1  0.5084750000000  0.5437580000000  0.5514600000000 1.0
C      1  0.4125690000000  0.4741370000000  0.4561190000000 1.0
C      1  0.5276180000000  0.4382100000000  0.4857430000000 1.0
C      1  0.6005580000000  0.5524460000000  0.5070890000000 1.0
C      1  0.5395200000000  0.4441460000000  0.4141330000000 1.0
C      1  0.5603890000000  0.5196160000000  0.5986100000000 1.0
C      1  0.5083870000000  0.5200700000000  0.5266920000000 1.0
C      1  0.4880410000000  0.4653530000000  0.4146760000000 1.0
C      1  0.5789740000000  0.4540030000000  0.4851320000000 1.0
C      1  0.4056020000000  0.5472290000000  0.4344270000000 1.0
C      1  0.4010790000000  0.5437910000000  0.5312530000000 1.0
C      1  0.5083740000000  0.6020930000000  0.5488540000000 1.0
C      1  0.4708710000000  0.4830740000000  0.4964680000000 1.0
C      1  0.4937710000000  0.4926390000000  0.5196370000000 1.0
C      1  0.5019790000000  0.5710030000000  0.4708140000000 1.0
C      1  0.4802380000000  0.6072270000000  0.5049040000000 1.0
C      1  0.5372110000000  0.5318200000000  0.5516090000000 1.0
C      1  0.5445550000000  0.5197820000000  0.4517500000000 1.0
C      1  0.5679470000000  0.5296150000000  0.5095960000000 1.0
C      1  0.4427680000000  0.4463060000000  0.4759350000000 1.0
C      1  0.4645330000000  0.5050690000000  0.4083220000000 1.0
C      1  0.4508910000000  0.5901500000000  0.5067230000000 1.0
C      1  0.4561630000000  0.4082870000000  0.4624390000000 1.0
C      1  0.4599750000000  0.5050440000000  0.5902870000000 1.0
C      1  0.5368370000000  0.5947340000000  0.4512610000000 1.0
C      1  0.5410870000000  0.4091290000000  0.4652110000000 1.0
C      1  0.3954930000000  0.5128740000000  0.4913720000000 1.0
C      1  0.5605860000000  0.4980710000000  0.3961530000000 1.0
C      1  0.5140600000000  0.4970780000000  0.6008780000000 1.0
C      1  0.4386240000000  0.4625920000000  0.4374180000000 1.0
C      1  0.4655480000000  0.4713340000000  0.5926400000000 1.0
C      1  0.6214360000000  0.5232730000000  0.4895610000000 1.0
C      1  0.4552380000000  0.4845030000000  0.5338910000000 1.0
C      1  0.4088560000000  0.4449890000000  0.5139600000000 1.0
C      1  0.5169280000000  0.4307850000000  0.5521080000000 1.0
C      1  0.4918770000000  0.4841870000000  0.5785730000000 1.0
C      1  0.5500120000000  0.5612880000000  0.4687050000000 1.0
C      1  0.5375290000000  0.5867520000000  0.5574440000000 1.0
C      1  0.5277310000000  0.4695000000000  0.5881900000000 1.0
C      1  0.6055210000000  0.4581870000000  0.5268030000000 1.0
C      1  0.4065170000000  0.5405000000000  0.4737370000000 1.0
C      1  0.4103810000000  0.5485250000000  0.5065530000000 1.0
C      1  0.5882890000000  0.4157340000000  0.4894960000000 1.0
C      1  0.5139990000000  0.3950210000000  0.4804740000000 1.0
C      1  0.5583360000000  0.5252470000000  0.4044590000000 1.0
C      1  0.4810960000000  0.5720990000000  0.5159540000000 1.0
C      1  0.5605240000000  0.4829750000000  0.5294310000000 1.0
C      1  0.5697130000000  0.5305980000000  0.4321570000000 1.0
C      1  0.5696580000000  0.4278600000000  0.4638950000000 1.0
C      1  0.4137300000000  0.4704460000000  0.5610430000000 1.0
C      1  0.4369780000000  0.5839590000000  0.4773410000000 1.0
C      1  0.4547120000000  0.5900360000000  0.5560790000000 1.0
C      1  0.4554780000000  0.4363580000000  0.4458440000000 1.0
C      1  0.5152020000000  0.5053570000000  0.4088410000000 1.0
C      1  0.4282530000000  0.4049440000000  0.4760940000000 1.0
C      1  0.4595610000000  0.5141220000000  0.5176550000000 1.0
C      1  0.5619100000000  0.4419350000000  0.5564890000000 1.0
C      1  0.5694140000000  0.4938450000000  0.5605260000000 1.0
C      1  0.4434210000000  0.4309160000000  0.5680330000000 1.0
C      1  0.5413320000000  0.4519400000000  0.5132160000000 1.0
C      1  0.4814890000000  0.4397300000000  0.4292110000000 1.0
C      1  0.5833060000000  0.5125120000000  0.4577040000000 1.0
C      1  0.5604270000000  0.4025190000000  0.4928080000000 1.0
C      1  0.4039550000000  0.5231210000000  0.4288520000000 1.0
C      1  0.5493490000000  0.4601800000000  0.4750580000000 1.0
C      1  0.5610980000000  0.4531070000000  0.4461880000000 1.0
C      1  0.4723960000000  0.6188580000000  0.4781530000000 1.0
C      1  0.4525820000000  0.6088790000000  0.4656430000000 1.0
C      1  0.4733060000000  0.4400720000000  0.5814230000000 1.0
C      1  0.4891500000000  0.5587500000000  0.4416560000000 1.0
C      1  0.4178230000000  0.4296080000000  0.4874280000000 1.0
C      1  0.4666720000000  0.5188900000000  0.4469820000000 1.0
C      1  0.5519710000000  0.4293010000000  0.5330310000000 1.0
END
