TITL C-2778437-8639-1148 -0.0060273354688712 125000 -179.152651182732 0 0 32 (C1) n - 1
REM
REM in /home/nfs/bkarasulu/CARBON/AIRSS/Generating-Clusters/REBO/Only-C1/SD-CG/HFTN-CG
REM
REM
REM
REM
REM
REM ./C.cell (11c1c37f851c82e70ff6c80c92926a4b)
REM
REM compiler GCC version 9.2.1 20190827 (Red Hat 9.2.1-1)
REM options -cpp -mtune=generic -march=x86-64 -g -O0 -fpre-include=/usr/include/finclude/math-vector-fortran.h
REM seed -1277312576 -1762839982 -1029764066 -1336456250 1351989964 1398709089 -115294619 -1048681139 -1751073022 -1158171996 204197978 1204290911 1127916752 -3935439 1997447025 -2112035350 -224842534 1068817429 -1889628312 -2062698270 -1084542102 -1117742349 -1690157109 1451266556 1155479989 -1216503958 1329407234 871167957 1516621329 -1196995576 1239964516 -1382117483 -2060693410
REM
CELL 1.54180   50.00000   50.00000   50.00000   90.00000   90.00000   90.00000
LATT -1
SFAC C  
C      1  0.4486970000000  0.5189750000000  0.4928710000000 1.0
C      1  0.5537360000000  0.5317260000000  0.4410260000000 1.0
C      1  0.5008740000000  0.5323950000000  0.4983560000000 1.0
C      1  0.4574100000000  0.4690160000000  0.4731430000000 1.0
C      1  0.4764000000000  0.4883160000000  0.5719910000000 1.0
C      1  0.4809380000000  0.4805920000000  0.5031420000000 1.0
C      1  0.4730450000000  0.4802080000000  0.4500470000000 1.0
C      1  0.4859310000000  0.5055840000000  0.4578510000000 1.0
C      1  0.4812750000000  0.4523540000000  0.4845910000000 1.0
C      1  0.5241910000000  0.5554370000000  0.5222680000000 1.0
C      1  0.4594300000000  0.5278480000000  0.5939860000000 1.0
C      1  0.5590740000000  0.4356290000000  0.4819500000000 1.0
C      1  0.5024680000000  0.4470320000000  0.4658140000000 1.0
C      1  0.4767650000000  0.5549900000000  0.5397030000000 1.0
C      1  0.5207160000000  0.4998690000000  0.5317200000000 1.0
C      1  0.4969000000000  0.4628950000000  0.4414880000000 1.0
C      1  0.4490390000000  0.4894360000000  0.4944990000000 1.0
C      1  0.5425870000000  0.4549140000000  0.5023470000000 1.0
C      1  0.5401400000000  0.5534430000000  0.4989360000000 1.0
C      1  0.5170430000000  0.4821920000000  0.4323050000000 1.0
C      1  0.5298820000000  0.4712920000000  0.5196040000000 1.0
C      1  0.4928780000000  0.5593070000000  0.5168380000000 1.0
C      1  0.5257380000000  0.5372470000000  0.4797960000000 1.0
C      1  0.4837130000000  0.4703620000000  0.5531570000000 1.0
C      1  0.4978670000000  0.4768540000000  0.5269970000000 1.0
C      1  0.4816280000000  0.5113990000000  0.4880000000000 1.0
C      1  0.5280100000000  0.4414680000000  0.4757980000000 1.0
C      1  0.5308610000000  0.5265100000000  0.4547980000000 1.0
C      1  0.4863540000000  0.5314270000000  0.5540690000000 1.0
C      1  0.4744330000000  0.5163490000000  0.5744070000000 1.0
C      1  0.5100470000000  0.5271850000000  0.5332270000000 1.0
C      1  0.5119280000000  0.5077480000000  0.4452760000000 1.0
END
