TITL C-2778426-5645-490 0.00169937752141812 125000 -798.531591862623 0 0 136 (C1) n - 1
REM
REM in /home/nfs/bkarasulu/CARBON/AIRSS/Generating-Clusters/REBO/Only-C1/SD-CG/HFTN-CG
REM
REM
REM
REM
REM
REM ./C.cell (11c1c37f851c82e70ff6c80c92926a4b)
REM
REM compiler GCC version 9.2.1 20190827 (Red Hat 9.2.1-1)
REM options -cpp -mtune=generic -march=x86-64 -g -O0 -fpre-include=/usr/include/finclude/math-vector-fortran.h
REM seed 1328610155 -68758290 -1499480778 1854228959 -713845519 26443434 985571561 1205773748 -2020955905 717786754 1818557361 211841059 2114528470 -1356095426 -880976536 -2064753520 -1952524231 474482649 522335604 680361557 5103160 586693399 -439238659 382741081 -742727343 -1874427358 1215034728 1086828108 816972399 1403682232 -469462466 1783039311 -825401870
REM
CELL 1.54180   50.00000   50.00000   50.00000   90.00000   90.00000   90.00000
LATT -1
SFAC C  
C      1  0.5008770000000  0.5574140000000  0.4805900000000 1.0
C      1  0.5501450000000  0.3955770000000  0.4540720000000 1.0
C      1  0.3991030000000  0.4328700000000  0.4957000000000 1.0
C      1  0.4405870000000  0.4309930000000  0.5481940000000 1.0
C      1  0.5853390000000  0.5734260000000  0.5436350000000 1.0
C      1  0.5662160000000  0.4390760000000  0.5266240000000 1.0
C      1  0.5397730000000  0.4166530000000  0.4738500000000 1.0
C      1  0.4915110000000  0.4839080000000  0.4393750000000 1.0
C      1  0.5423940000000  0.5046790000000  0.5639090000000 1.0
C      1  0.4368910000000  0.5094980000000  0.4427080000000 1.0
C      1  0.5699820000000  0.4933630000000  0.5697490000000 1.0
C      1  0.4225810000000  0.4156700000000  0.5334170000000 1.0
C      1  0.5147920000000  0.5073860000000  0.4427060000000 1.0
C      1  0.4808450000000  0.4633630000000  0.5769410000000 1.0
C      1  0.4575020000000  0.6026870000000  0.4998150000000 1.0
C      1  0.5181630000000  0.4147000000000  0.5596690000000 1.0
C      1  0.5557730000000  0.4416210000000  0.4644050000000 1.0
C      1  0.5282840000000  0.5291450000000  0.4804010000000 1.0
C      1  0.4783610000000  0.4693360000000  0.4133780000000 1.0
C      1  0.4786770000000  0.6092390000000  0.5119080000000 1.0
C      1  0.5071080000000  0.5280890000000  0.4011740000000 1.0
C      1  0.4873650000000  0.5286030000000  0.5135190000000 1.0
C      1  0.4184730000000  0.5472360000000  0.5066410000000 1.0
C      1  0.5821500000000  0.4687820000000  0.4908470000000 1.0
C      1  0.5168430000000  0.4741340000000  0.4101370000000 1.0
C      1  0.5831880000000  0.4882970000000  0.5255370000000 1.0
C      1  0.3921770000000  0.4596360000000  0.4904130000000 1.0
C      1  0.4943770000000  0.4972650000000  0.4019100000000 1.0
C      1  0.5109160000000  0.4631120000000  0.5642850000000 1.0
C      1  0.5915770000000  0.4905370000000  0.4747040000000 1.0
C      1  0.5306680000000  0.4884790000000  0.5158400000000 1.0
C      1  0.5750180000000  0.5412080000000  0.4998630000000 1.0
C      1  0.5097660000000  0.4102310000000  0.5341740000000 1.0
C      1  0.4467790000000  0.4939510000000  0.5119550000000 1.0
C      1  0.5854280000000  0.4850340000000  0.4448650000000 1.0
C      1  0.5470260000000  0.5696610000000  0.5021840000000 1.0
C      1  0.5584180000000  0.5318060000000  0.5281610000000 1.0
C      1  0.4942230000000  0.5851210000000  0.4424650000000 1.0
C      1  0.5712720000000  0.4654390000000  0.5673410000000 1.0
C      1  0.4690450000000  0.4204780000000  0.5105680000000 1.0
C      1  0.4732760000000  0.5670900000000  0.4348110000000 1.0
C      1  0.5562190000000  0.4596280000000  0.4846360000000 1.0
C      1  0.4641730000000  0.4440150000000  0.5293860000000 1.0
C      1  0.4627480000000  0.4482090000000  0.5628670000000 1.0
C      1  0.5729970000000  0.5680430000000  0.5210430000000 1.0
C      1  0.4667880000000  0.5098750000000  0.4812140000000 1.0
C      1  0.5718840000000  0.4659280000000  0.4277370000000 1.0
C      1  0.4623050000000  0.5388920000000  0.5785680000000 1.0
C      1  0.5911440000000  0.5147930000000  0.5675660000000 1.0
C      1  0.4639860000000  0.4469420000000  0.4171130000000 1.0
C      1  0.4939710000000  0.4192100000000  0.4986420000000 1.0
C      1  0.5199090000000  0.5501730000000  0.5062110000000 1.0
C      1  0.5126820000000  0.5882510000000  0.5428520000000 1.0
C      1  0.5673760000000  0.5108850000000  0.4502810000000 1.0
C      1  0.4542100000000  0.5398450000000  0.4904780000000 1.0
C      1  0.5677430000000  0.4395520000000  0.4389630000000 1.0
C      1  0.5297310000000  0.4615720000000  0.5007050000000 1.0
C      1  0.5066590000000  0.5479050000000  0.5379710000000 1.0
C      1  0.4664930000000  0.4679280000000  0.5117670000000 1.0
C      1  0.4368420000000  0.4977830000000  0.4807970000000 1.0
C      1  0.4029980000000  0.4694920000000  0.4628520000000 1.0
C      1  0.5353400000000  0.5337250000000  0.5486250000000 1.0
C      1  0.4937670000000  0.4866510000000  0.5467210000000 1.0
C      1  0.5156080000000  0.4962880000000  0.6122100000000 1.0
C      1  0.5565710000000  0.4447440000000  0.5540520000000 1.0
C      1  0.4558620000000  0.4359230000000  0.4417600000000 1.0
C      1  0.5994100000000  0.5395200000000  0.5778520000000 1.0
C      1  0.5833610000000  0.5142720000000  0.5385340000000 1.0
C      1  0.4554420000000  0.5303530000000  0.5467790000000 1.0
C      1  0.5298660000000  0.5083870000000  0.5927060000000 1.0
C      1  0.4466350000000  0.5729580000000  0.4428410000000 1.0
C      1  0.4060260000000  0.4963220000000  0.5312210000000 1.0
C      1  0.5216620000000  0.5882250000000  0.4945500000000 1.0
C      1  0.5101120000000  0.5103730000000  0.4999560000000 1.0
C      1  0.4787520000000  0.5615600000000  0.5130850000000 1.0
C      1  0.4053670000000  0.5374320000000  0.5602340000000 1.0
C      1  0.4443110000000  0.5105930000000  0.4150450000000 1.0
C      1  0.5009110000000  0.5870630000000  0.5171470000000 1.0
C      1  0.5452510000000  0.5539220000000  0.4540260000000 1.0
C      1  0.5863720000000  0.4594920000000  0.5188160000000 1.0
C      1  0.4546180000000  0.4562130000000  0.4643210000000 1.0
C      1  0.4540370000000  0.5728960000000  0.4925450000000 1.0
C      1  0.4808380000000  0.5384890000000  0.4699960000000 1.0
C      1  0.4853140000000  0.5159220000000  0.5557170000000 1.0
C      1  0.4908020000000  0.5810680000000  0.5738480000000 1.0
C      1  0.4371370000000  0.5155050000000  0.5788390000000 1.0
C      1  0.4571130000000  0.5687500000000  0.5360230000000 1.0
C      1  0.5299760000000  0.4396870000000  0.5646210000000 1.0
C      1  0.5475010000000  0.5504060000000  0.4142930000000 1.0
C      1  0.4784120000000  0.4978450000000  0.5208620000000 1.0
C      1  0.4232720000000  0.5031520000000  0.5502030000000 1.0
C      1  0.5963240000000  0.5642240000000  0.5666190000000 1.0
C      1  0.4749660000000  0.4601600000000  0.4837350000000 1.0
C      1  0.4918600000000  0.4198850000000  0.4707810000000 1.0
C      1  0.4322810000000  0.4724280000000  0.4656820000000 1.0
C      1  0.5600490000000  0.5268220000000  0.4240480000000 1.0
C      1  0.5209950000000  0.4666250000000  0.4430560000000 1.0
C      1  0.4348980000000  0.5224540000000  0.5120250000000 1.0
C      1  0.4168010000000  0.5198240000000  0.4665290000000 1.0
C      1  0.4167200000000  0.5478720000000  0.4777080000000 1.0
C      1  0.4635650000000  0.4172930000000  0.4643940000000 1.0
C      1  0.4794030000000  0.5366090000000  0.4367350000000 1.0
C      1  0.5526700000000  0.5109140000000  0.4798430000000 1.0
C      1  0.5043780000000  0.4618280000000  0.4789500000000 1.0
C      1  0.5082610000000  0.5827300000000  0.4669820000000 1.0
C      1  0.5630400000000  0.3800140000000  0.4287180000000 1.0
C      1  0.5666450000000  0.4122780000000  0.4310030000000 1.0
C      1  0.5170980000000  0.5382860000000  0.4495810000000 1.0
C      1  0.5447380000000  0.4862070000000  0.4576580000000 1.0
C      1  0.4861590000000  0.5268480000000  0.5939490000000 1.0
C      1  0.4879780000000  0.5017100000000  0.6083920000000 1.0
C      1  0.4702130000000  0.5061170000000  0.4493710000000 1.0
C      1  0.3943920000000  0.4872210000000  0.5073810000000 1.0
C      1  0.5257930000000  0.4863040000000  0.5456560000000 1.0
C      1  0.4564760000000  0.4975550000000  0.5541110000000 1.0
C      1  0.5915000000000  0.5168080000000  0.4870710000000 1.0
C      1  0.4705450000000  0.5182500000000  0.4113810000000 1.0
C      1  0.5393570000000  0.5044750000000  0.4226670000000 1.0
C      1  0.5191080000000  0.4309890000000  0.5112760000000 1.0
C      1  0.4352580000000  0.5667580000000  0.4677920000000 1.0
C      1  0.4279990000000  0.5682100000000  0.5271760000000 1.0
C      1  0.4471560000000  0.4155230000000  0.4910450000000 1.0
C      1  0.5189420000000  0.5461900000000  0.4181120000000 1.0
C      1  0.4211450000000  0.4176170000000  0.5046190000000 1.0
C      1  0.5483450000000  0.4768790000000  0.4148030000000 1.0
C      1  0.4709550000000  0.4812410000000  0.5972490000000 1.0
C      1  0.5113600000000  0.5281710000000  0.5722820000000 1.0
C      1  0.4437030000000  0.4900030000000  0.5964910000000 1.0
C      1  0.5603900000000  0.5575450000000  0.4758890000000 1.0
C      1  0.4278510000000  0.5431870000000  0.5452790000000 1.0
C      1  0.5164430000000  0.4371910000000  0.4595380000000 1.0
C      1  0.5147240000000  0.4917950000000  0.4731530000000 1.0
C      1  0.3970400000000  0.4970000000000  0.4774940000000 1.0
C      1  0.4809660000000  0.5589070000000  0.5575300000000 1.0
C      1  0.5500570000000  0.4260230000000  0.5052310000000 1.0
C      1  0.5580580000000  0.5035790000000  0.5095010000000 1.0
END
