TITL C-2778430-5657-433 -0.0005230430690619 125000 -981.757312511646 0 0 166 (C1) n - 1
REM
REM in /home/nfs/bkarasulu/CARBON/AIRSS/Generating-Clusters/REBO/Only-C1/SD-CG/HFTN-CG
REM
REM
REM
REM
REM
REM ./C.cell (11c1c37f851c82e70ff6c80c92926a4b)
REM
REM compiler GCC version 9.2.1 20190827 (Red Hat 9.2.1-1)
REM options -cpp -mtune=generic -march=x86-64 -g -O0 -fpre-include=/usr/include/finclude/math-vector-fortran.h
REM seed -1240076459 -1152603656 -1940468693 484046898 -604124467 -1232504829 -427590744 1302524367 706838286 1688663740 992470800 -1707420367 -1317624751 1829479255 -1159205137 372434944 1432710473 -1432157075 -1681117189 1924111779 -1625044502 353196992 -2052550005 872548897 625809445 -377891574 -1734927568 1211309863 932903959 517266382 -13003025 -1420529119 1231282941
REM
CELL 1.54180   50.00000   50.00000   50.00000   90.00000   90.00000   90.00000
LATT -1
SFAC C  
C      1  0.4440820000000  0.4307820000000  0.5259700000000 1.0
C      1  0.5353390000000  0.4950510000000  0.4953410000000 1.0
C      1  0.5409650000000  0.5266560000000  0.5711030000000 1.0
C      1  0.5404210000000  0.5860940000000  0.4718050000000 1.0
C      1  0.4919390000000  0.5020550000000  0.3927320000000 1.0
C      1  0.4926670000000  0.4937190000000  0.5645640000000 1.0
C      1  0.5150040000000  0.4594550000000  0.5358210000000 1.0
C      1  0.5204840000000  0.4678870000000  0.3948800000000 1.0
C      1  0.4913810000000  0.5282250000000  0.4940480000000 1.0
C      1  0.5847740000000  0.5392490000000  0.4543990000000 1.0
C      1  0.5000150000000  0.4406350000000  0.5930210000000 1.0
C      1  0.5112960000000  0.4038240000000  0.4777050000000 1.0
C      1  0.5227370000000  0.4264910000000  0.4232200000000 1.0
C      1  0.4350310000000  0.5812250000000  0.4566990000000 1.0
C      1  0.5433830000000  0.4121240000000  0.5369560000000 1.0
C      1  0.4070220000000  0.5226480000000  0.5136600000000 1.0
C      1  0.6263910000000  0.4812350000000  0.5405940000000 1.0
C      1  0.5798230000000  0.5648650000000  0.4710390000000 1.0
C      1  0.4701420000000  0.3922040000000  0.5084110000000 1.0
C      1  0.4876380000000  0.5964920000000  0.4549240000000 1.0
C      1  0.4655340000000  0.4738900000000  0.6055070000000 1.0
C      1  0.4583280000000  0.4229520000000  0.4701400000000 1.0
C      1  0.4536070000000  0.4692680000000  0.5213520000000 1.0
C      1  0.4940300000000  0.5178070000000  0.5870550000000 1.0
C      1  0.4858160000000  0.4426530000000  0.5621250000000 1.0
C      1  0.5705440000000  0.5895150000000  0.5188000000000 1.0
C      1  0.4135460000000  0.5662740000000  0.4731770000000 1.0
C      1  0.5892230000000  0.5788150000000  0.4929400000000 1.0
C      1  0.5589130000000  0.5396350000000  0.5378090000000 1.0
C      1  0.5124000000000  0.5831450000000  0.5749540000000 1.0
C      1  0.5911210000000  0.4690730000000  0.4841540000000 1.0
C      1  0.5514150000000  0.5459680000000  0.4750720000000 1.0
C      1  0.4058010000000  0.5269800000000  0.4389770000000 1.0
C      1  0.4855930000000  0.5351690000000  0.4403340000000 1.0
C      1  0.5353310000000  0.4611180000000  0.4724350000000 1.0
C      1  0.5271300000000  0.5436440000000  0.5463950000000 1.0
C      1  0.5361480000000  0.4421420000000  0.5009300000000 1.0
C      1  0.4921040000000  0.5745050000000  0.4375800000000 1.0
C      1  0.4438960000000  0.4987150000000  0.5283550000000 1.0
C      1  0.4789480000000  0.4418290000000  0.4881870000000 1.0
C      1  0.4439200000000  0.5417180000000  0.5745400000000 1.0
C      1  0.5353910000000  0.4752700000000  0.5819010000000 1.0
C      1  0.4790700000000  0.4137070000000  0.4477170000000 1.0
C      1  0.4335770000000  0.4354190000000  0.4591700000000 1.0
C      1  0.5503970000000  0.4453630000000  0.4296270000000 1.0
C      1  0.5008690000000  0.5506240000000  0.5170780000000 1.0
C      1  0.4044920000000  0.4460390000000  0.4974250000000 1.0
C      1  0.4336860000000  0.5415680000000  0.4857260000000 1.0
C      1  0.4790550000000  0.5633020000000  0.5362240000000 1.0
C      1  0.5665070000000  0.4480020000000  0.5564370000000 1.0
C      1  0.3865650000000  0.5226140000000  0.4604230000000 1.0
C      1  0.4724180000000  0.4706450000000  0.4935210000000 1.0
C      1  0.5187200000000  0.5539520000000  0.4805980000000 1.0
C      1  0.4896410000000  0.5686790000000  0.5646360000000 1.0
C      1  0.5514110000000  0.4177410000000  0.4494350000000 1.0
C      1  0.5215280000000  0.4294020000000  0.5502910000000 1.0
C      1  0.5372170000000  0.3967920000000  0.4622170000000 1.0
C      1  0.5682070000000  0.4720310000000  0.4371840000000 1.0
C      1  0.4450750000000  0.4635930000000  0.4471470000000 1.0
C      1  0.4314760000000  0.5294110000000  0.4482660000000 1.0
C      1  0.4493500000000  0.5360580000000  0.4236480000000 1.0
C      1  0.5699460000000  0.4228840000000  0.5393020000000 1.0
C      1  0.5553400000000  0.5278560000000  0.5085130000000 1.0
C      1  0.4598180000000  0.5851370000000  0.5270740000000 1.0
C      1  0.5469700000000  0.3910920000000  0.4901780000000 1.0
C      1  0.5069940000000  0.6036950000000  0.5923280000000 1.0
C      1  0.4249160000000  0.4904730000000  0.5622920000000 1.0
C      1  0.4269820000000  0.5255630000000  0.5365820000000 1.0
C      1  0.4497890000000  0.5143920000000  0.4726940000000 1.0
C      1  0.5871270000000  0.5179990000000  0.5759940000000 1.0
C      1  0.4333710000000  0.5754240000000  0.5329240000000 1.0
C      1  0.5784190000000  0.5654060000000  0.5397280000000 1.0
C      1  0.5086850000000  0.5536350000000  0.4521570000000 1.0
C      1  0.4350720000000  0.4595700000000  0.5673010000000 1.0
C      1  0.5389740000000  0.4106130000000  0.5088640000000 1.0
C      1  0.5257880000000  0.4341740000000  0.5804800000000 1.0
C      1  0.4558600000000  0.5606490000000  0.4466220000000 1.0
C      1  0.5548260000000  0.4864210000000  0.5185210000000 1.0
C      1  0.4176990000000  0.5715440000000  0.5067530000000 1.0
C      1  0.4359700000000  0.4379440000000  0.4265010000000 1.0
C      1  0.4930970000000  0.3929510000000  0.5297380000000 1.0
C      1  0.5317330000000  0.4937030000000  0.6030800000000 1.0
C      1  0.4882440000000  0.4577800000000  0.6119430000000 1.0
C      1  0.5179900000000  0.4934630000000  0.5316260000000 1.0
C      1  0.4169140000000  0.4388960000000  0.5246070000000 1.0
C      1  0.5829200000000  0.4931700000000  0.5622210000000 1.0
C      1  0.5482890000000  0.4970100000000  0.4338700000000 1.0
C      1  0.4617090000000  0.5947500000000  0.4730350000000 1.0
C      1  0.4675670000000  0.5000380000000  0.5949620000000 1.0
C      1  0.4073440000000  0.4333230000000  0.4726470000000 1.0
C      1  0.5143290000000  0.4696090000000  0.3690270000000 1.0
C      1  0.4706830000000  0.5539110000000  0.5829460000000 1.0
C      1  0.4079400000000  0.4983720000000  0.4978480000000 1.0
C      1  0.5452010000000  0.5652730000000  0.4476550000000 1.0
C      1  0.5832820000000  0.5155640000000  0.5000790000000 1.0
C      1  0.4640980000000  0.4913840000000  0.5528620000000 1.0
C      1  0.5086220000000  0.4907550000000  0.4743480000000 1.0
C      1  0.5426990000000  0.6046440000000  0.5279870000000 1.0
C      1  0.4426530000000  0.4588730000000  0.5970420000000 1.0
C      1  0.5080140000000  0.5198310000000  0.5496370000000 1.0
C      1  0.5471160000000  0.5763200000000  0.5002450000000 1.0
C      1  0.5809000000000  0.4425220000000  0.4863560000000 1.0
C      1  0.4054510000000  0.4741200000000  0.5110680000000 1.0
C      1  0.4733960000000  0.5574010000000  0.4171710000000 1.0
C      1  0.4803370000000  0.5662760000000  0.4955290000000 1.0
C      1  0.5266640000000  0.4661590000000  0.4208210000000 1.0
C      1  0.5488660000000  0.5460610000000  0.4242430000000 1.0
C      1  0.4778090000000  0.4601770000000  0.4410380000000 1.0
C      1  0.5987920000000  0.5615320000000  0.5155920000000 1.0
C      1  0.4785510000000  0.4502940000000  0.4125780000000 1.0
C      1  0.4842260000000  0.4733400000000  0.5314050000000 1.0
C      1  0.5588820000000  0.4394090000000  0.4681890000000 1.0
C      1  0.4586690000000  0.4189890000000  0.5027380000000 1.0
C      1  0.5611960000000  0.4754530000000  0.5691090000000 1.0
C      1  0.5091030000000  0.4335800000000  0.4846310000000 1.0
C      1  0.5177330000000  0.4876130000000  0.4427400000000 1.0
C      1  0.4505320000000  0.5209320000000  0.5049440000000 1.0
C      1  0.4946350000000  0.4135320000000  0.5479560000000 1.0
C      1  0.6052270000000  0.5356470000000  0.5087210000000 1.0
C      1  0.5495090000000  0.4914970000000  0.4665010000000 1.0
C      1  0.4657260000000  0.6023960000000  0.5059900000000 1.0
C      1  0.5083390000000  0.4686520000000  0.5661540000000 1.0
C      1  0.5876110000000  0.4763830000000  0.4564850000000 1.0
C      1  0.5860700000000  0.4871080000000  0.5099430000000 1.0
C      1  0.4303840000000  0.5539040000000  0.5515470000000 1.0
C      1  0.4899030000000  0.5047090000000  0.4422440000000 1.0
C      1  0.5760150000000  0.4335690000000  0.5120760000000 1.0
C      1  0.5119800000000  0.6008770000000  0.4695300000000 1.0
C      1  0.4742030000000  0.5458490000000  0.4705320000000 1.0
C      1  0.5532550000000  0.4563710000000  0.5258010000000 1.0
C      1  0.5774800000000  0.5407030000000  0.4269820000000 1.0
C      1  0.4967500000000  0.4924410000000  0.5054150000000 1.0
C      1  0.4485030000000  0.5694150000000  0.4920920000000 1.0
C      1  0.5082710000000  0.4713030000000  0.3435860000000 1.0
C      1  0.4745550000000  0.4951160000000  0.4698910000000 1.0
C      1  0.5311140000000  0.5598980000000  0.5179010000000 1.0
C      1  0.4604760000000  0.5345980000000  0.5339560000000 1.0
C      1  0.5014450000000  0.4280170000000  0.4404760000000 1.0
C      1  0.4436240000000  0.5046470000000  0.4196750000000 1.0
C      1  0.5081560000000  0.5830740000000  0.4951460000000 1.0
C      1  0.5524960000000  0.4392950000000  0.5842190000000 1.0
C      1  0.4603090000000  0.4951300000000  0.3990950000000 1.0
C      1  0.4559970000000  0.4326310000000  0.4085800000000 1.0
C      1  0.4311910000000  0.4899990000000  0.4433390000000 1.0
C      1  0.4806920000000  0.4712800000000  0.3933950000000 1.0
C      1  0.5456720000000  0.5084520000000  0.5425430000000 1.0
C      1  0.3858530000000  0.5464630000000  0.4763620000000 1.0
C      1  0.5198870000000  0.5982310000000  0.5196200000000 1.0
C      1  0.5251420000000  0.5258310000000  0.4973400000000 1.0
C      1  0.3975600000000  0.5467680000000  0.5038580000000 1.0
C      1  0.5655660000000  0.5648080000000  0.5680940000000 1.0
C      1  0.4580380000000  0.4488090000000  0.5485970000000 1.0
C      1  0.3870140000000  0.4187710000000  0.4608170000000 1.0
C      1  0.5675070000000  0.5382680000000  0.5784820000000 1.0
C      1  0.5684340000000  0.5172430000000  0.4723700000000 1.0
C      1  0.4997480000000  0.3869170000000  0.4973440000000 1.0
C      1  0.5337430000000  0.5213990000000  0.4201380000000 1.0
C      1  0.5398770000000  0.5769400000000  0.5705630000000 1.0
C      1  0.5992150000000  0.4861940000000  0.5385230000000 1.0
C      1  0.5066340000000  0.5134510000000  0.4143880000000 1.0
C      1  0.4789300000000  0.5306330000000  0.5590350000000 1.0
C      1  0.4119690000000  0.4662740000000  0.5430780000000 1.0
C      1  0.4453450000000  0.5109040000000  0.5741460000000 1.0
C      1  0.5232060000000  0.5181050000000  0.5938110000000 1.0
C      1  0.5047000000000  0.4540400000000  0.4592680000000 1.0
C      1  0.4094170000000  0.4995690000000  0.4676490000000 1.0
END
