TITL C-2778425-5191-398 -0.000540421885607287 125000 -671.31159710379 0 0 117 (C1) n - 1
REM
REM in /home/nfs/bkarasulu/CARBON/AIRSS/Generating-Clusters/REBO/Only-C1/SD-CG/HFTN-CG
REM
REM
REM
REM
REM
REM ./C.cell (11c1c37f851c82e70ff6c80c92926a4b)
REM
REM compiler GCC version 9.2.1 20190827 (Red Hat 9.2.1-1)
REM options -cpp -mtune=generic -march=x86-64 -g -O0 -fpre-include=/usr/include/finclude/math-vector-fortran.h
REM seed -1183222727 1447028093 1554648027 -807486267 -1763207156 484405091 -1156098945 470987112 2023994464 -885818408 -211425513 1837746268 -1389620330 -1221796632 762201562 1312651499 1178619825 1682463993 1529630287 795444800 -1537780489 1807523682 607911690 1856292171 1792088745 1456766105 -1310295076 -1955093181 -1892804797 -135705303 -1936208456 355829545 -2098129750
REM
CELL 1.54180   50.00000   50.00000   50.00000   90.00000   90.00000   90.00000
LATT -1
SFAC C  
C      1  0.5099890000000  0.5437240000000  0.4113480000000 1.0
C      1  0.5030020000000  0.4929000000000  0.5861830000000 1.0
C      1  0.4768440000000  0.4849840000000  0.5909060000000 1.0
C      1  0.4944250000000  0.4513090000000  0.4772460000000 1.0
C      1  0.4476040000000  0.4231900000000  0.4596300000000 1.0
C      1  0.4999050000000  0.4534360000000  0.4287100000000 1.0
C      1  0.5652930000000  0.4489450000000  0.5393420000000 1.0
C      1  0.5215630000000  0.4595890000000  0.5240960000000 1.0
C      1  0.4830380000000  0.5527810000000  0.4830250000000 1.0
C      1  0.5227790000000  0.4748010000000  0.5694110000000 1.0
C      1  0.4569620000000  0.5414620000000  0.4200020000000 1.0
C      1  0.5476200000000  0.5340930000000  0.5134220000000 1.0
C      1  0.5380980000000  0.4634960000000  0.4242340000000 1.0
C      1  0.4617390000000  0.4779740000000  0.4069160000000 1.0
C      1  0.5032910000000  0.5266170000000  0.5357980000000 1.0
C      1  0.4140250000000  0.5321350000000  0.5204300000000 1.0
C      1  0.5873960000000  0.5163400000000  0.4688920000000 1.0
C      1  0.4536980000000  0.4852380000000  0.4451510000000 1.0
C      1  0.5490810000000  0.5108440000000  0.4386700000000 1.0
C      1  0.4649940000000  0.5338330000000  0.5423740000000 1.0
C      1  0.5431150000000  0.4676590000000  0.4639820000000 1.0
C      1  0.4775690000000  0.5228390000000  0.5151080000000 1.0
C      1  0.4879520000000  0.4819600000000  0.4862670000000 1.0
C      1  0.5469230000000  0.4399020000000  0.5120630000000 1.0
C      1  0.4070730000000  0.4916050000000  0.4889080000000 1.0
C      1  0.5183770000000  0.5876720000000  0.5293960000000 1.0
C      1  0.4894890000000  0.4660510000000  0.5144840000000 1.0
C      1  0.5302480000000  0.5129310000000  0.5339270000000 1.0
C      1  0.5382020000000  0.5341270000000  0.6007190000000 1.0
C      1  0.4217690000000  0.5580810000000  0.5233260000000 1.0
C      1  0.4578830000000  0.5526380000000  0.4494320000000 1.0
C      1  0.4354280000000  0.5313520000000  0.5541350000000 1.0
C      1  0.5665940000000  0.4796420000000  0.5407170000000 1.0
C      1  0.5054790000000  0.5441270000000  0.5802890000000 1.0
C      1  0.5726690000000  0.5258380000000  0.4510430000000 1.0
C      1  0.5127910000000  0.5174610000000  0.5947660000000 1.0
C      1  0.5223030000000  0.5521930000000  0.5118520000000 1.0
C      1  0.4532110000000  0.5150070000000  0.4957390000000 1.0
C      1  0.4270410000000  0.5070840000000  0.5076800000000 1.0
C      1  0.4285680000000  0.5703490000000  0.5486690000000 1.0
C      1  0.4018340000000  0.4364630000000  0.5461520000000 1.0
C      1  0.5662470000000  0.5786310000000  0.5143940000000 1.0
C      1  0.5099330000000  0.4718040000000  0.4544570000000 1.0
C      1  0.5344520000000  0.4836210000000  0.5411360000000 1.0
C      1  0.5255090000000  0.4430680000000  0.4764540000000 1.0
C      1  0.4608970000000  0.5868800000000  0.5173120000000 1.0
C      1  0.5442260000000  0.4184860000000  0.4649230000000 1.0
C      1  0.5416120000000  0.4609120000000  0.5849860000000 1.0
C      1  0.4937240000000  0.4189480000000  0.4737970000000 1.0
C      1  0.4422430000000  0.5756810000000  0.4690090000000 1.0
C      1  0.5036150000000  0.5343630000000  0.4962370000000 1.0
C      1  0.5173390000000  0.5075810000000  0.4268280000000 1.0
C      1  0.5177170000000  0.4041300000000  0.4791060000000 1.0
C      1  0.5426750000000  0.4071790000000  0.5194150000000 1.0
C      1  0.4863030000000  0.5844110000000  0.5395670000000 1.0
C      1  0.5900140000000  0.5582700000000  0.5110760000000 1.0
C      1  0.4689410000000  0.4085360000000  0.4659600000000 1.0
C      1  0.4569240000000  0.5452210000000  0.4892510000000 1.0
C      1  0.5506250000000  0.4222610000000  0.5473960000000 1.0
C      1  0.4723590000000  0.5822170000000  0.4584090000000 1.0
C      1  0.3901100000000  0.4769130000000  0.5059070000000 1.0
C      1  0.4844430000000  0.5330310000000  0.4106200000000 1.0
C      1  0.4283300000000  0.4462140000000  0.4731520000000 1.0
C      1  0.5362680000000  0.5488580000000  0.4537930000000 1.0
C      1  0.6032850000000  0.5141540000000  0.5307740000000 1.0
C      1  0.4637740000000  0.4972560000000  0.4738560000000 1.0
C      1  0.5683800000000  0.5440800000000  0.4945070000000 1.0
C      1  0.4340450000000  0.4939790000000  0.4186400000000 1.0
C      1  0.5206830000000  0.3952250000000  0.5060860000000 1.0
C      1  0.4721960000000  0.5046480000000  0.4225550000000 1.0
C      1  0.4506520000000  0.4535290000000  0.4482660000000 1.0
C      1  0.5145080000000  0.4811090000000  0.4159580000000 1.0
C      1  0.4699990000000  0.5209430000000  0.4516680000000 1.0
C      1  0.4950100000000  0.5798860000000  0.4780090000000 1.0
C      1  0.4090200000000  0.4824040000000  0.4153750000000 1.0
C      1  0.4112420000000  0.3919230000000  0.5224660000000 1.0
C      1  0.4099310000000  0.4589100000000  0.5229330000000 1.0
C      1  0.4108180000000  0.4189880000000  0.5223640000000 1.0
C      1  0.4969130000000  0.3957180000000  0.5224200000000 1.0
C      1  0.5886300000000  0.4902180000000  0.4837920000000 1.0
C      1  0.4536640000000  0.5841760000000  0.5483740000000 1.0
C      1  0.4800020000000  0.5455080000000  0.5683880000000 1.0
C      1  0.4701790000000  0.4541700000000  0.4233080000000 1.0
C      1  0.5506010000000  0.5581660000000  0.5565890000000 1.0
C      1  0.5319960000000  0.5515780000000  0.4257300000000 1.0
C      1  0.5110780000000  0.4990450000000  0.4836970000000 1.0
C      1  0.4327390000000  0.4805900000000  0.5248190000000 1.0
C      1  0.5343960000000  0.5570220000000  0.5796600000000 1.0
C      1  0.5063320000000  0.5579380000000  0.5410130000000 1.0
C      1  0.5315350000000  0.4969590000000  0.4624280000000 1.0
C      1  0.4941320000000  0.4604760000000  0.5645220000000 1.0
C      1  0.5726290000000  0.4653480000000  0.4683060000000 1.0
C      1  0.4188000000000  0.4367250000000  0.4996840000000 1.0
C      1  0.4853510000000  0.4476420000000  0.5418890000000 1.0
C      1  0.4503960000000  0.5430810000000  0.5780590000000 1.0
C      1  0.5487820000000  0.5792290000000  0.5375490000000 1.0
C      1  0.5591570000000  0.5288220000000  0.6167480000000 1.0
C      1  0.5639110000000  0.4375040000000  0.4852230000000 1.0
C      1  0.5590770000000  0.4806160000000  0.4296750000000 1.0
C      1  0.6086360000000  0.5406380000000  0.5229430000000 1.0
C      1  0.4364100000000  0.5245340000000  0.4138030000000 1.0
C      1  0.4404720000000  0.5693800000000  0.5009840000000 1.0
C      1  0.4949440000000  0.4186770000000  0.5390630000000 1.0
C      1  0.5568310000000  0.5306960000000  0.5445050000000 1.0
C      1  0.5220690000000  0.4323650000000  0.5424230000000 1.0
C      1  0.5506230000000  0.5804450000000  0.4899290000000 1.0
C      1  0.5570230000000  0.5586360000000  0.4705870000000 1.0
C      1  0.4521250000000  0.4775120000000  0.5953770000000 1.0
C      1  0.5877440000000  0.4587620000000  0.4976800000000 1.0
C      1  0.5783670000000  0.5092690000000  0.5475040000000 1.0
C      1  0.4180560000000  0.4766790000000  0.4684080000000 1.0
C      1  0.5149070000000  0.5344790000000  0.4656330000000 1.0
C      1  0.5005400000000  0.5202770000000  0.4460120000000 1.0
C      1  0.4591660000000  0.4729860000000  0.5264540000000 1.0
C      1  0.5276510000000  0.4381360000000  0.4421270000000 1.0
C      1  0.5199830000000  0.5825510000000  0.4963670000000 1.0
C      1  0.5902340000000  0.4865300000000  0.5172440000000 1.0
END
