TITL C-2778429-3646-1082 -0.00167907192242048 125000 -354.391825143766 0 0 63 (C1) n - 1
REM
REM in /home/nfs/bkarasulu/CARBON/AIRSS/Generating-Clusters/REBO/Only-C1/SD-CG/HFTN-CG
REM
REM
REM
REM
REM
REM ./C.cell (11c1c37f851c82e70ff6c80c92926a4b)
REM
REM compiler GCC version 9.2.1 20190827 (Red Hat 9.2.1-1)
REM options -cpp -mtune=generic -march=x86-64 -g -O0 -fpre-include=/usr/include/finclude/math-vector-fortran.h
REM seed 545276903 1452488242 1801617386 1390814422 156060491 -376554620 -795201612 1372105408 1037847340 1565088490 87386057 -818913066 542494957 638400395 -1132752388 -1852278403 -323792871 -541326204 -1839283924 1915316612 -2109982338 -488800009 -1122937455 -1687150396 1049696298 265103810 -1636069136 187707169 -1584348100 1897726170 392420996 -298592693 1121900984
REM
CELL 1.54180   50.00000   50.00000   50.00000   90.00000   90.00000   90.00000
LATT -1
SFAC C  
C      1  0.5065150000000  0.5036080000000  0.4200900000000 1.0
C      1  0.4901950000000  0.5302480000000  0.4667140000000 1.0
C      1  0.5204720000000  0.4604220000000  0.5253720000000 1.0
C      1  0.4703210000000  0.4920010000000  0.4321540000000 1.0
C      1  0.5028780000000  0.5320120000000  0.5671540000000 1.0
C      1  0.5004250000000  0.5382110000000  0.5169170000000 1.0
C      1  0.5542230000000  0.5353800000000  0.5228030000000 1.0
C      1  0.5499400000000  0.4681420000000  0.5510960000000 1.0
C      1  0.5328300000000  0.5445220000000  0.5681490000000 1.0
C      1  0.5195580000000  0.4874970000000  0.5186480000000 1.0
C      1  0.4848240000000  0.4573320000000  0.4843420000000 1.0
C      1  0.4945220000000  0.4200980000000  0.4738420000000 1.0
C      1  0.5555870000000  0.4870830000000  0.4951340000000 1.0
C      1  0.5209020000000  0.5049430000000  0.4687860000000 1.0
C      1  0.5065020000000  0.4833600000000  0.4807100000000 1.0
C      1  0.5053020000000  0.5751460000000  0.5416530000000 1.0
C      1  0.4570900000000  0.5189680000000  0.5498580000000 1.0
C      1  0.5591220000000  0.4862740000000  0.5235360000000 1.0
C      1  0.4625480000000  0.5464760000000  0.4620620000000 1.0
C      1  0.5446810000000  0.4611500000000  0.4764890000000 1.0
C      1  0.4663710000000  0.4682070000000  0.5090860000000 1.0
C      1  0.5236040000000  0.5637910000000  0.5178920000000 1.0
C      1  0.4280150000000  0.4488900000000  0.4891810000000 1.0
C      1  0.4379630000000  0.5027410000000  0.4997260000000 1.0
C      1  0.4518380000000  0.4722250000000  0.4498580000000 1.0
C      1  0.4795770000000  0.5631700000000  0.5399100000000 1.0
C      1  0.4657800000000  0.5121930000000  0.4821090000000 1.0
C      1  0.5508180000000  0.4672950000000  0.4438700000000 1.0
C      1  0.4757270000000  0.5598780000000  0.5071050000000 1.0
C      1  0.5596630000000  0.4463880000000  0.5007930000000 1.0
C      1  0.4431670000000  0.4270220000000  0.4820450000000 1.0
C      1  0.5546880000000  0.5321090000000  0.5509730000000 1.0
C      1  0.5319050000000  0.5142800000000  0.5123750000000 1.0
C      1  0.5560430000000  0.5008310000000  0.5544160000000 1.0
C      1  0.5217270000000  0.4602350000000  0.4437750000000 1.0
C      1  0.4437720000000  0.4987940000000  0.4607850000000 1.0
C      1  0.5090190000000  0.5179490000000  0.4427720000000 1.0
C      1  0.5042400000000  0.5672210000000  0.4902710000000 1.0
C      1  0.4531170000000  0.5533480000000  0.4884240000000 1.0
C      1  0.4639350000000  0.4921890000000  0.5563470000000 1.0
C      1  0.4585340000000  0.5216590000000  0.4439710000000 1.0
C      1  0.5144350000000  0.4462020000000  0.4718800000000 1.0
C      1  0.5559560000000  0.5132210000000  0.4806440000000 1.0
C      1  0.5479740000000  0.4479350000000  0.5251670000000 1.0
C      1  0.4341210000000  0.5365100000000  0.5002660000000 1.0
C      1  0.4955550000000  0.4855230000000  0.5504220000000 1.0
C      1  0.4373190000000  0.4718250000000  0.5005180000000 1.0
C      1  0.5158610000000  0.5308760000000  0.4884600000000 1.0
C      1  0.4830760000000  0.4936510000000  0.5004730000000 1.0
C      1  0.4679690000000  0.4163490000000  0.4782500000000 1.0
C      1  0.4980040000000  0.4733260000000  0.4247210000000 1.0
C      1  0.4687810000000  0.4508460000000  0.4581060000000 1.0
C      1  0.4857550000000  0.4449600000000  0.4366620000000 1.0
C      1  0.4398700000000  0.5217080000000  0.5279160000000 1.0
C      1  0.4988750000000  0.4475330000000  0.5386030000000 1.0
C      1  0.5291830000000  0.5110690000000  0.5731890000000 1.0
C      1  0.5222910000000  0.4820680000000  0.5629260000000 1.0
C      1  0.5500920000000  0.5852230000000  0.4713480000000 1.0
C      1  0.4779070000000  0.5387790000000  0.5554230000000 1.0
C      1  0.5381580000000  0.5660210000000  0.4871250000000 1.0
C      1  0.4715780000000  0.4642160000000  0.5385320000000 1.0
C      1  0.5546400000000  0.5397700000000  0.4924220000000 1.0
C      1  0.4946570000000  0.5090970000000  0.5257520000000 1.0
END
