TITL C-2778434-4341-1062 0.00174498811676279 125000 -671.269240817181 0 0 116 (C1) n - 1
REM
REM in /home/nfs/bkarasulu/CARBON/AIRSS/Generating-Clusters/REBO/Only-C1/SD-CG/HFTN-CG
REM
REM
REM
REM
REM
REM ./C.cell (11c1c37f851c82e70ff6c80c92926a4b)
REM
REM compiler GCC version 9.2.1 20190827 (Red Hat 9.2.1-1)
REM options -cpp -mtune=generic -march=x86-64 -g -O0 -fpre-include=/usr/include/finclude/math-vector-fortran.h
REM seed -1948692559 -83946180 1188028383 301281499 1813323423 -365834103 1624855474 756309678 -1468856282 -52596708 -169878406 -341613257 196249224 -1560595520 -1673667798 -921831894 -1685433825 -492444444 -752813476 1702436503 -756784298 233061542 -27159826 -1586005976 845673180 -875339555 -837436593 1739732276 1940188787 -76782484 1306831142 -370938960 -1590325898
REM
CELL 1.54180   50.00000   50.00000   50.00000   90.00000   90.00000   90.00000
LATT -1
SFAC C  
C      1  0.5622570000000  0.4375700000000  0.5311280000000 1.0
C      1  0.4974140000000  0.5437930000000  0.4243520000000 1.0
C      1  0.5446940000000  0.4583500000000  0.4310780000000 1.0
C      1  0.5175770000000  0.4576490000000  0.5560950000000 1.0
C      1  0.4496410000000  0.5107290000000  0.5363480000000 1.0
C      1  0.4478610000000  0.4525470000000  0.5429830000000 1.0
C      1  0.4222760000000  0.4825650000000  0.4766430000000 1.0
C      1  0.5625990000000  0.5213410000000  0.5544950000000 1.0
C      1  0.5054700000000  0.5453790000000  0.5154430000000 1.0
C      1  0.4855830000000  0.4844050000000  0.5477760000000 1.0
C      1  0.5276870000000  0.4320410000000  0.4666860000000 1.0
C      1  0.4254920000000  0.4513590000000  0.5173890000000 1.0
C      1  0.5332770000000  0.5279950000000  0.5121250000000 1.0
C      1  0.5206400000000  0.4421300000000  0.4180300000000 1.0
C      1  0.5050580000000  0.5907900000000  0.4754590000000 1.0
C      1  0.4434330000000  0.5184510000000  0.5679980000000 1.0
C      1  0.4549950000000  0.4098950000000  0.5297500000000 1.0
C      1  0.4975720000000  0.4180620000000  0.4759710000000 1.0
C      1  0.4892280000000  0.5358450000000  0.5426820000000 1.0
C      1  0.5395780000000  0.5749380000000  0.5456550000000 1.0
C      1  0.5184250000000  0.5586030000000  0.4683120000000 1.0
C      1  0.5246420000000  0.4987150000000  0.5981070000000 1.0
C      1  0.4068070000000  0.5253280000000  0.4494230000000 1.0
C      1  0.4639070000000  0.5270560000000  0.4382810000000 1.0
C      1  0.5944160000000  0.4553580000000  0.4952220000000 1.0
C      1  0.4931530000000  0.5549320000000  0.4878320000000 1.0
C      1  0.4532320000000  0.5758830000000  0.5010980000000 1.0
C      1  0.5223110000000  0.4820250000000  0.5043970000000 1.0
C      1  0.5215870000000  0.4432310000000  0.4953950000000 1.0
C      1  0.4174790000000  0.5401510000000  0.4292410000000 1.0
C      1  0.4617910000000  0.4810930000000  0.4491760000000 1.0
C      1  0.5372590000000  0.4318460000000  0.5525770000000 1.0
C      1  0.4926850000000  0.4838720000000  0.4161810000000 1.0
C      1  0.4849680000000  0.5213250000000  0.5896200000000 1.0
C      1  0.4901130000000  0.4518440000000  0.4139520000000 1.0
C      1  0.5762030000000  0.5402170000000  0.5296730000000 1.0
C      1  0.4805490000000  0.5636030000000  0.4300360000000 1.0
C      1  0.4931550000000  0.5130140000000  0.5607130000000 1.0
C      1  0.4753540000000  0.5870260000000  0.5180410000000 1.0
C      1  0.5693300000000  0.5680670000000  0.5341550000000 1.0
C      1  0.4158440000000  0.4767590000000  0.5081790000000 1.0
C      1  0.5541300000000  0.5759310000000  0.5086040000000 1.0
C      1  0.5495500000000  0.5035760000000  0.5232330000000 1.0
C      1  0.5150480000000  0.4110670000000  0.5367570000000 1.0
C      1  0.5452290000000  0.4588350000000  0.5142040000000 1.0
C      1  0.4639540000000  0.4290620000000  0.5492010000000 1.0
C      1  0.4881680000000  0.4570520000000  0.5982400000000 1.0
C      1  0.4188870000000  0.5249670000000  0.4974870000000 1.0
C      1  0.5631080000000  0.4872730000000  0.5577850000000 1.0
C      1  0.5679790000000  0.5613610000000  0.4839640000000 1.0
C      1  0.5493970000000  0.4876540000000  0.4171430000000 1.0
C      1  0.4338750000000  0.5516610000000  0.5074380000000 1.0
C      1  0.5572000000000  0.4598050000000  0.5566090000000 1.0
C      1  0.4219570000000  0.5049960000000  0.5176520000000 1.0
C      1  0.5369630000000  0.5409190000000  0.5433890000000 1.0
C      1  0.4120400000000  0.5304810000000  0.5468250000000 1.0
C      1  0.4912390000000  0.4835440000000  0.5151250000000 1.0
C      1  0.5221120000000  0.5750250000000  0.5164250000000 1.0
C      1  0.4721620000000  0.4338450000000  0.4868970000000 1.0
C      1  0.4441410000000  0.4497350000000  0.4822160000000 1.0
C      1  0.5830620000000  0.4962520000000  0.5355910000000 1.0
C      1  0.4512280000000  0.4549720000000  0.4432690000000 1.0
C      1  0.4175980000000  0.5022500000000  0.5584380000000 1.0
C      1  0.5534220000000  0.4440790000000  0.4566900000000 1.0
C      1  0.4335680000000  0.5473310000000  0.5377130000000 1.0
C      1  0.4796750000000  0.5741930000000  0.5435570000000 1.0
C      1  0.4999260000000  0.5913210000000  0.5033660000000 1.0
C      1  0.4736890000000  0.5125100000000  0.5140610000000 1.0
C      1  0.5101720000000  0.5171400000000  0.4297550000000 1.0
C      1  0.4916560000000  0.5150550000000  0.4851720000000 1.0
C      1  0.5019890000000  0.4894030000000  0.4485410000000 1.0
C      1  0.4141140000000  0.5121620000000  0.4726890000000 1.0
C      1  0.4821920000000  0.4836760000000  0.4761210000000 1.0
C      1  0.4446620000000  0.4258250000000  0.5053230000000 1.0
C      1  0.4526460000000  0.4789990000000  0.4929810000000 1.0
C      1  0.5241590000000  0.5056890000000  0.4050460000000 1.0
C      1  0.5803330000000  0.5130560000000  0.4860880000000 1.0
C      1  0.4702440000000  0.5685170000000  0.4788840000000 1.0
C      1  0.5753510000000  0.4611430000000  0.4717400000000 1.0
C      1  0.4772440000000  0.4324220000000  0.5791110000000 1.0
C      1  0.5754210000000  0.5332810000000  0.4338530000000 1.0
C      1  0.4444110000000  0.5424610000000  0.4246600000000 1.0
C      1  0.5093480000000  0.4060500000000  0.5033880000000 1.0
C      1  0.4524760000000  0.4800520000000  0.5235660000000 1.0
C      1  0.4974280000000  0.4322740000000  0.5517400000000 1.0
C      1  0.5205220000000  0.5269820000000  0.4808470000000 1.0
C      1  0.5381990000000  0.4201660000000  0.5145100000000 1.0
C      1  0.5196190000000  0.4962590000000  0.5650480000000 1.0
C      1  0.4691830000000  0.5307980000000  0.4656600000000 1.0
C      1  0.4797160000000  0.4648340000000  0.5665490000000 1.0
C      1  0.5451190000000  0.4755560000000  0.4799140000000 1.0
C      1  0.5611620000000  0.5061960000000  0.4400460000000 1.0
C      1  0.5286220000000  0.4837600000000  0.5379370000000 1.0
C      1  0.4935980000000  0.4567340000000  0.4940270000000 1.0
C      1  0.5057620000000  0.5161740000000  0.6082390000000 1.0
C      1  0.4242890000000  0.4546430000000  0.4573800000000 1.0
C      1  0.5143410000000  0.4696840000000  0.5859360000000 1.0
C      1  0.5653310000000  0.4903280000000  0.5006260000000 1.0
C      1  0.5738790000000  0.5544600000000  0.4510240000000 1.0
C      1  0.4675950000000  0.5736850000000  0.4515310000000 1.0
C      1  0.5025860000000  0.4286680000000  0.4438250000000 1.0
C      1  0.4593970000000  0.5513360000000  0.5482050000000 1.0
C      1  0.4576880000000  0.5335670000000  0.4936700000000 1.0
C      1  0.5472370000000  0.5702730000000  0.4594250000000 1.0
C      1  0.5793700000000  0.5367500000000  0.5004440000000 1.0
C      1  0.5331590000000  0.4808290000000  0.4530370000000 1.0
C      1  0.5905230000000  0.4749850000000  0.5146150000000 1.0
C      1  0.4715270000000  0.4379830000000  0.4331890000000 1.0
C      1  0.5320620000000  0.5147950000000  0.4540040000000 1.0
C      1  0.5217210000000  0.4726320000000  0.4022890000000 1.0
C      1  0.4575870000000  0.5262940000000  0.5902050000000 1.0
C      1  0.5770650000000  0.4930430000000  0.4626440000000 1.0
C      1  0.4268510000000  0.4783690000000  0.5467660000000 1.0
C      1  0.5286430000000  0.5960380000000  0.4593080000000 1.0
C      1  0.4688970000000  0.5004580000000  0.4291240000000 1.0
C      1  0.5100530000000  0.5610300000000  0.5517410000000 1.0
END
