TITL C-2778423-5760-1252 0.514581950648693 125000 -675.369584120788 0 0 115 (C1) n - 1
REM
REM in /home/nfs/bkarasulu/CARBON/AIRSS/Generating-Clusters/REBO/Only-C1/SD-CG/HFTN-CG
REM
REM
REM
REM
REM
REM ./C.cell (11c1c37f851c82e70ff6c80c92926a4b)
REM
REM compiler GCC version 9.2.1 20190827 (Red Hat 9.2.1-1)
REM options -cpp -mtune=generic -march=x86-64 -g -O0 -fpre-include=/usr/include/finclude/math-vector-fortran.h
REM seed 1990490853 -1040324368 -402262727 -501927295 -1829933529 -365445600 -267980131 346680624 -1149996866 811290735 -1669419906 -1737190433 -1799064531 625417601 1833269728 914576031 1891010360 1163829201 307976585 -1686383808 1247537065 -1062099821 -317709818 1371174654 734908307 -1019939848 -1760695252 164093130 2040405826 964877910 -1949775385 -685307305 2000873912
REM
CELL 1.54180   50.00000   50.00000   50.00000   90.00000   90.00000   90.00000
LATT -1
SFAC C  
C      1  0.5081450000000  0.5463570000000  0.5368580000000 1.0
C      1  0.5061750000000  0.4998560000000  0.5326870000000 1.0
C      1  0.4523840000000  0.4052950000000  0.4924110000000 1.0
C      1  0.5790170000000  0.5654000000000  0.5624670000000 1.0
C      1  0.4672270000000  0.4892560000000  0.4476730000000 1.0
C      1  0.4596600000000  0.3930020000000  0.5209760000000 1.0
C      1  0.5298600000000  0.5400210000000  0.5601460000000 1.0
C      1  0.5153020000000  0.4725120000000  0.5263540000000 1.0
C      1  0.3777170000000  0.4740300000000  0.4997920000000 1.0
C      1  0.5196780000000  0.5345350000000  0.5857650000000 1.0
C      1  0.5384580000000  0.4371160000000  0.5697080000000 1.0
C      1  0.5297710000000  0.5422350000000  0.4909450000000 1.0
C      1  0.4836980000000  0.5866900000000  0.4710740000000 1.0
C      1  0.4935390000000  0.5047580000000  0.4080800000000 1.0
C      1  0.4743870000000  0.4823130000000  0.4882210000000 1.0
C      1  0.4615880000000  0.5030780000000  0.5823590000000 1.0
C      1  0.5147320000000  0.4068940000000  0.4757680000000 1.0
C      1  0.5009080000000  0.4677610000000  0.5784500000000 1.0
C      1  0.4811290000000  0.4814880000000  0.4256360000000 1.0
C      1  0.5021490000000  0.4646350000000  0.4781230000000 1.0
C      1  0.3902020000000  0.5066700000000  0.4622490000000 1.0
C      1  0.4919840000000  0.5401450000000  0.5862810000000 1.0
C      1  0.5079270000000  0.5252420000000  0.5101140000000 1.0
C      1  0.5278810000000  0.4622210000000  0.4140640000000 1.0
C      1  0.3977880000000  0.5758790000000  0.4373140000000 1.0
C      1  0.5339580000000  0.4715290000000  0.4396650000000 1.0
C      1  0.5878150000000  0.5325760000000  0.5257910000000 1.0
C      1  0.5015750000000  0.4206420000000  0.4299150000000 1.0
C      1  0.5613530000000  0.5093400000000  0.4280140000000 1.0
C      1  0.4839700000000  0.5442220000000  0.5577190000000 1.0
C      1  0.4543850000000  0.4560930000000  0.5731610000000 1.0
C      1  0.5297990000000  0.5426900000000  0.4125890000000 1.0
C      1  0.4614080000000  0.5870010000000  0.4895850000000 1.0
C      1  0.5845840000000  0.4791070000000  0.5214300000000 1.0
C      1  0.5388150000000  0.5472120000000  0.5220020000000 1.0
C      1  0.4650820000000  0.4273530000000  0.4761580000000 1.0
C      1  0.4497000000000  0.4992320000000  0.4831660000000 1.0
C      1  0.5242190000000  0.4058920000000  0.4460660000000 1.0
C      1  0.5822630000000  0.5075570000000  0.5025200000000 1.0
C      1  0.4946460000000  0.4283060000000  0.5472370000000 1.0
C      1  0.4930920000000  0.5562730000000  0.4661340000000 1.0
C      1  0.4504330000000  0.5273380000000  0.4805520000000 1.0
C      1  0.5797080000000  0.5130810000000  0.4495860000000 1.0
C      1  0.4925870000000  0.5304060000000  0.4200830000000 1.0
C      1  0.4342970000000  0.3768150000000  0.5132200000000 1.0
C      1  0.5095780000000  0.4068730000000  0.5254580000000 1.0
C      1  0.5711990000000  0.4573980000000  0.4984490000000 1.0
C      1  0.4452010000000  0.4393510000000  0.4569680000000 1.0
C      1  0.4726610000000  0.4758510000000  0.5787210000000 1.0
C      1  0.4277210000000  0.5028990000000  0.5443360000000 1.0
C      1  0.4818070000000  0.5164760000000  0.5391060000000 1.0
C      1  0.4265400000000  0.5562930000000  0.5080990000000 1.0
C      1  0.5353360000000  0.5667490000000  0.4705570000000 1.0
C      1  0.5301060000000  0.5042370000000  0.4789070000000 1.0
C      1  0.4264280000000  0.3878090000000  0.4857140000000 1.0
C      1  0.5052200000000  0.4402170000000  0.4105430000000 1.0
C      1  0.5186050000000  0.4181180000000  0.5013030000000 1.0
C      1  0.4331680000000  0.5762030000000  0.4832540000000 1.0
C      1  0.5577960000000  0.6106070000000  0.5587500000000 1.0
C      1  0.4962750000000  0.5620640000000  0.4998310000000 1.0
C      1  0.4810640000000  0.5106700000000  0.4611490000000 1.0
C      1  0.5231160000000  0.4786780000000  0.4631040000000 1.0
C      1  0.4252590000000  0.4840730000000  0.4777230000000 1.0
C      1  0.5337320000000  0.5287390000000  0.4599160000000 1.0
C      1  0.4633740000000  0.5194810000000  0.5175300000000 1.0
C      1  0.4986460000000  0.5040080000000  0.4871570000000 1.0
C      1  0.4754420000000  0.5213740000000  0.5994160000000 1.0
C      1  0.4337380000000  0.5458330000000  0.4690250000000 1.0
C      1  0.3982410000000  0.4643550000000  0.4325930000000 1.0
C      1  0.5805030000000  0.5380780000000  0.5540340000000 1.0
C      1  0.5575170000000  0.5604170000000  0.4533730000000 1.0
C      1  0.5486510000000  0.5016920000000  0.5016410000000 1.0
C      1  0.4437690000000  0.5168380000000  0.5632950000000 1.0
C      1  0.4176280000000  0.5296920000000  0.5033090000000 1.0
C      1  0.5461400000000  0.4717900000000  0.5143540000000 1.0
C      1  0.4760670000000  0.4497070000000  0.4946500000000 1.0
C      1  0.4153360000000  0.5682780000000  0.4561650000000 1.0
C      1  0.5262610000000  0.5092630000000  0.5966390000000 1.0
C      1  0.5845970000000  0.4944020000000  0.4710240000000 1.0
C      1  0.4475410000000  0.5585160000000  0.5281580000000 1.0
C      1  0.5634570000000  0.5853970000000  0.5490040000000 1.0
C      1  0.5151460000000  0.4484540000000  0.5022590000000 1.0
C      1  0.4993520000000  0.4721630000000  0.4000510000000 1.0
C      1  0.5239330000000  0.5804480000000  0.5061930000000 1.0
C      1  0.5534080000000  0.5758770000000  0.5219900000000 1.0
C      1  0.4691420000000  0.5736900000000  0.5156660000000 1.0
C      1  0.4010630000000  0.4789620000000  0.4889550000000 1.0
C      1  0.4007950000000  0.5203340000000  0.4829100000000 1.0
C      1  0.4888460000000  0.4169950000000  0.4596450000000 1.0
C      1  0.4908120000000  0.4493750000000  0.5252740000000 1.0
C      1  0.5382930000000  0.5260350000000  0.4322860000000 1.0
C      1  0.5144760000000  0.5885370000000  0.4761460000000 1.0
C      1  0.5440050000000  0.4824130000000  0.5608140000000 1.0
C      1  0.3876740000000  0.4867740000000  0.4441270000000 1.0
C      1  0.4537270000000  0.5421750000000  0.5512240000000 1.0
C      1  0.4808160000000  0.3994240000000  0.5370990000000 1.0
C      1  0.4350320000000  0.5115410000000  0.5181850000000 1.0
C      1  0.5566520000000  0.4573620000000  0.5603700000000 1.0
C      1  0.5097470000000  0.4412670000000  0.5697010000000 1.0
C      1  0.4231880000000  0.4527200000000  0.4372530000000 1.0
C      1  0.5528070000000  0.5271160000000  0.5440520000000 1.0
C      1  0.5767020000000  0.5576710000000  0.5093770000000 1.0
C      1  0.5802560000000  0.4288260000000  0.5068500000000 1.0
C      1  0.5233180000000  0.4862830000000  0.5803530000000 1.0
C      1  0.4728200000000  0.5387570000000  0.4965940000000 1.0
C      1  0.4434640000000  0.4720740000000  0.4546900000000 1.0
C      1  0.5767830000000  0.4507680000000  0.4488110000000 1.0
C      1  0.5782630000000  0.4671840000000  0.4708800000000 1.0
C      1  0.5488810000000  0.4988660000000  0.5356580000000 1.0
C      1  0.5765640000000  0.5398500000000  0.4602110000000 1.0
C      1  0.4888820000000  0.5348930000000  0.4483510000000 1.0
C      1  0.5524240000000  0.6345320000000  0.5680000000000 1.0
C      1  0.5803920000000  0.4566910000000  0.5437950000000 1.0
C      1  0.5820380000000  0.5389670000000  0.4872090000000 1.0
C      1  0.5875890000000  0.4304980000000  0.5336610000000 1.0
END
