TITL C-2778422-5617-1167 0.0439678584872363 125000 -235.338024104463 0 0 42 (C1) n - 1
REM
REM in /home/nfs/bkarasulu/CARBON/AIRSS/Generating-Clusters/REBO/Only-C1/SD-CG/HFTN-CG
REM
REM
REM
REM
REM
REM ./C.cell (11c1c37f851c82e70ff6c80c92926a4b)
REM
REM compiler GCC version 9.2.1 20190827 (Red Hat 9.2.1-1)
REM options -cpp -mtune=generic -march=x86-64 -g -O0 -fpre-include=/usr/include/finclude/math-vector-fortran.h
REM seed -1851927773 54755557 -1977527288 -81129598 -1975508087 -404865669 1949097749 915485627 -1166587177 -900330129 282327452 -943614671 -1308298853 1794068649 114509903 504842521 1940585631 692542015 509905374 -633760402 91530640 636206103 -1003895183 -63634243 -1013013652 1025981219 -1948002986 1954095729 -49516942 905119939 -656672810 1493869548 2029450744
REM
CELL 1.54180   50.00000   50.00000   50.00000   90.00000   90.00000   90.00000
LATT -1
SFAC C  
C      1  0.4881230000000  0.4037260000000  0.4703000000000 1.0
C      1  0.4361880000000  0.5214070000000  0.4709450000000 1.0
C      1  0.5060880000000  0.5231780000000  0.3979690000000 1.0
C      1  0.5292300000000  0.4984310000000  0.4749350000000 1.0
C      1  0.4733770000000  0.5736590000000  0.5002500000000 1.0
C      1  0.4520760000000  0.4850530000000  0.5040670000000 1.0
C      1  0.5184160000000  0.5391100000000  0.4988580000000 1.0
C      1  0.5266280000000  0.5691350000000  0.4929020000000 1.0
C      1  0.4903760000000  0.4834720000000  0.4257730000000 1.0
C      1  0.4906660000000  0.5197080000000  0.5345470000000 1.0
C      1  0.4409060000000  0.4961640000000  0.4803330000000 1.0
C      1  0.4389110000000  0.5484670000000  0.4721160000000 1.0
C      1  0.5058300000000  0.5203320000000  0.4242140000000 1.0
C      1  0.5185460000000  0.4465750000000  0.5230240000000 1.0
C      1  0.4651770000000  0.5345480000000  0.4988430000000 1.0
C      1  0.5429690000000  0.5866510000000  0.4807540000000 1.0
C      1  0.5029060000000  0.4953600000000  0.5184290000000 1.0
C      1  0.4890310000000  0.4276550000000  0.4806900000000 1.0
C      1  0.4524630000000  0.5692320000000  0.4836250000000 1.0
C      1  0.5589410000000  0.4487580000000  0.4946390000000 1.0
C      1  0.4877330000000  0.4601360000000  0.4749650000000 1.0
C      1  0.4811740000000  0.4761390000000  0.5034410000000 1.0
C      1  0.5183490000000  0.5123010000000  0.4973980000000 1.0
C      1  0.4934430000000  0.4454890000000  0.5077200000000 1.0
C      1  0.5187470000000  0.5081270000000  0.4509590000000 1.0
C      1  0.4872110000000  0.3797020000000  0.4598680000000 1.0
C      1  0.5439450000000  0.4755650000000  0.4820420000000 1.0
C      1  0.5273650000000  0.4818550000000  0.5623170000000 1.0
C      1  0.5351440000000  0.4906670000000  0.6140200000000 1.0
C      1  0.4760620000000  0.5337800000000  0.4740590000000 1.0
C      1  0.5249500000000  0.5497740000000  0.5551160000000 1.0
C      1  0.4918930000000  0.5262770000000  0.4528540000000 1.0
C      1  0.4639070000000  0.5241150000000  0.5253390000000 1.0
C      1  0.5389890000000  0.4950230000000  0.6395750000000 1.0
C      1  0.4891520000000  0.4725720000000  0.4488230000000 1.0
C      1  0.5477150000000  0.4725040000000  0.5142610000000 1.0
C      1  0.5229410000000  0.4768420000000  0.5329110000000 1.0
C      1  0.5055630000000  0.5437740000000  0.5364340000000 1.0
C      1  0.5407320000000  0.4331750000000  0.5135310000000 1.0
C      1  0.5312370000000  0.4862410000000  0.5880520000000 1.0
C      1  0.4470060000000  0.5012360000000  0.5269340000000 1.0
C      1  0.4998950000000  0.5640850000000  0.5121710000000 1.0
END
