TITL C-2778422-5617-4 0.0316367957148228 125000 -296.163486210164 0 0 53 (C1) n - 1
REM
REM in /home/nfs/bkarasulu/CARBON/AIRSS/Generating-Clusters/REBO/Only-C1/SD-CG/HFTN-CG
REM
REM
REM
REM
REM
REM ./C.cell (11c1c37f851c82e70ff6c80c92926a4b)
REM
REM compiler GCC version 9.2.1 20190827 (Red Hat 9.2.1-1)
REM options -cpp -mtune=generic -march=x86-64 -g -O0 -fpre-include=/usr/include/finclude/math-vector-fortran.h
REM seed 160765138 1856852182 -422967813 -1856143393 -1596100166 581586977 520525126 -1785500636 -1286286660 1015852677 1518305964 686706843 583752507 -2015898101 225177096 1722491984 1216839977 -1239587356 330159517 -211292088 -1968472681 -1979333685 -734642927 -813667195 -1413258124 -279802133 889428641 1563883657 -486212041 -2048565805 1122594882 -823296386 -465670457
REM
CELL 1.54180   50.00000   50.00000   50.00000   90.00000   90.00000   90.00000
LATT -1
SFAC C  
C      1  0.5019210000000  0.4465460000000  0.5365360000000 1.0
C      1  0.4378650000000  0.4608680000000  0.4957590000000 1.0
C      1  0.5035970000000  0.5320260000000  0.5885980000000 1.0
C      1  0.4714150000000  0.4596090000000  0.5418370000000 1.0
C      1  0.4575170000000  0.5632220000000  0.4930930000000 1.0
C      1  0.5195240000000  0.4729200000000  0.5257140000000 1.0
C      1  0.5528380000000  0.5380100000000  0.4781070000000 1.0
C      1  0.4710900000000  0.5258580000000  0.4661420000000 1.0
C      1  0.5102080000000  0.5236450000000  0.5050620000000 1.0
C      1  0.5378350000000  0.4687650000000  0.4463080000000 1.0
C      1  0.4339670000000  0.5032380000000  0.4691210000000 1.0
C      1  0.5600910000000  0.4825500000000  0.4875290000000 1.0
C      1  0.4782760000000  0.4440460000000  0.4694390000000 1.0
C      1  0.5589680000000  0.5334830000000  0.4514810000000 1.0
C      1  0.5275160000000  0.5541130000000  0.5232790000000 1.0
C      1  0.4958280000000  0.5433110000000  0.4571440000000 1.0
C      1  0.4827020000000  0.4871660000000  0.5313340000000 1.0
C      1  0.4997340000000  0.5094880000000  0.4568280000000 1.0
C      1  0.4684100000000  0.5247050000000  0.5539110000000 1.0
C      1  0.4734560000000  0.4925930000000  0.4988640000000 1.0
C      1  0.5085170000000  0.5633460000000  0.4755760000000 1.0
C      1  0.5533190000000  0.5356850000000  0.5118110000000 1.0
C      1  0.5338600000000  0.4444600000000  0.5377710000000 1.0
C      1  0.5110810000000  0.4952490000000  0.5465570000000 1.0
C      1  0.4529710000000  0.5356140000000  0.4855820000000 1.0
C      1  0.5063060000000  0.5671230000000  0.5068890000000 1.0
C      1  0.5770760000000  0.5381270000000  0.5261100000000 1.0
C      1  0.4766690000000  0.4353460000000  0.5185740000000 1.0
C      1  0.4874030000000  0.4682510000000  0.4576370000000 1.0
C      1  0.4969450000000  0.4881050000000  0.4805850000000 1.0
C      1  0.4431100000000  0.5193340000000  0.5095150000000 1.0
C      1  0.5449880000000  0.5193680000000  0.4328650000000 1.0
C      1  0.5454970000000  0.5056720000000  0.4995300000000 1.0
C      1  0.4782870000000  0.5676460000000  0.5146340000000 1.0
C      1  0.4822260000000  0.5169530000000  0.5172430000000 1.0
C      1  0.5872280000000  0.4811910000000  0.4870770000000 1.0
C      1  0.5219380000000  0.4861860000000  0.4989530000000 1.0
C      1  0.5218060000000  0.4514770000000  0.4249110000000 1.0
C      1  0.4640900000000  0.5414550000000  0.5259490000000 1.0
C      1  0.5160900000000  0.5259650000000  0.5385740000000 1.0
C      1  0.4267440000000  0.4643150000000  0.5220670000000 1.0
C      1  0.4484180000000  0.5065900000000  0.5375410000000 1.0
C      1  0.5007140000000  0.4734220000000  0.4334360000000 1.0
C      1  0.4449200000000  0.4775540000000  0.5400200000000 1.0
C      1  0.4582650000000  0.4406970000000  0.4926200000000 1.0
C      1  0.5428060000000  0.4631040000000  0.4738600000000 1.0
C      1  0.5234990000000  0.5380660000000  0.4854790000000 1.0
C      1  0.4947920000000  0.5278380000000  0.5628180000000 1.0
C      1  0.5148410000000  0.4887170000000  0.5758190000000 1.0
C      1  0.4472970000000  0.4863120000000  0.4862220000000 1.0
C      1  0.5243530000000  0.4457950000000  0.4876400000000 1.0
C      1  0.4978670000000  0.4363700000000  0.4920090000000 1.0
C      1  0.5233200000000  0.4985070000000  0.4380400000000 1.0
END
