TITL C-2778433-5640-838 -0.000916787751943097 125000 -509.328847134759 0 0 88 (C1) n - 1
REM
REM in /home/nfs/bkarasulu/CARBON/AIRSS/Generating-Clusters/REBO/Only-C1/SD-CG/HFTN-CG
REM
REM
REM
REM
REM
REM ./C.cell (11c1c37f851c82e70ff6c80c92926a4b)
REM
REM compiler GCC version 9.2.1 20190827 (Red Hat 9.2.1-1)
REM options -cpp -mtune=generic -march=x86-64 -g -O0 -fpre-include=/usr/include/finclude/math-vector-fortran.h
REM seed -1690067721 53993374 1829593870 -521085678 -628220752 -2047052096 653761070 -1652796588 954727794 -1814020338 992266752 1329793620 868341357 1563772461 589160506 -1761309969 1659576908 -1319737158 754721783 1539955155 153623939 -243511201 -1087619177 1037013426 -1785284501 -2098592528 2066688002 1236628560 472230838 -760845159 42720829 1913427419 -1275541845
REM
CELL 1.54180   50.00000   50.00000   50.00000   90.00000   90.00000   90.00000
LATT -1
SFAC C  
C      1  0.5652130000000  0.4875540000000  0.5271000000000 1.0
C      1  0.4617230000000  0.5369120000000  0.5093160000000 1.0
C      1  0.4916730000000  0.4701860000000  0.4320830000000 1.0
C      1  0.4895410000000  0.5457460000000  0.4821900000000 1.0
C      1  0.4845470000000  0.5823860000000  0.5173480000000 1.0
C      1  0.5698560000000  0.4925550000000  0.4393200000000 1.0
C      1  0.4512840000000  0.4412540000000  0.5179010000000 1.0
C      1  0.5237430000000  0.4547910000000  0.5661080000000 1.0
C      1  0.4981340000000  0.4201400000000  0.5196670000000 1.0
C      1  0.5398140000000  0.5006880000000  0.4968440000000 1.0
C      1  0.4499380000000  0.4439660000000  0.4489340000000 1.0
C      1  0.4813660000000  0.4959160000000  0.4810590000000 1.0
C      1  0.6509100000000  0.4388420000000  0.4891250000000 1.0
C      1  0.4409150000000  0.5642790000000  0.5149060000000 1.0
C      1  0.5000230000000  0.5085390000000  0.5430260000000 1.0
C      1  0.4955070000000  0.5314210000000  0.4299940000000 1.0
C      1  0.4761690000000  0.4241230000000  0.4762570000000 1.0
C      1  0.4329720000000  0.4384490000000  0.4719160000000 1.0
C      1  0.5025190000000  0.5750660000000  0.4464880000000 1.0
C      1  0.5783670000000  0.4839960000000  0.4614520000000 1.0
C      1  0.4837430000000  0.4725460000000  0.5377800000000 1.0
C      1  0.5593350000000  0.4753400000000  0.4841630000000 1.0
C      1  0.5217780000000  0.5624960000000  0.5388840000000 1.0
C      1  0.4629980000000  0.4909160000000  0.5250680000000 1.0
C      1  0.5230040000000  0.5674420000000  0.4798800000000 1.0
C      1  0.4507130000000  0.4999420000000  0.4343880000000 1.0
C      1  0.5168150000000  0.4807610000000  0.4315630000000 1.0
C      1  0.5481600000000  0.5231290000000  0.5208880000000 1.0
C      1  0.5327760000000  0.5049430000000  0.5686660000000 1.0
C      1  0.5256040000000  0.5478220000000  0.4992760000000 1.0
C      1  0.5734870000000  0.5188420000000  0.4855480000000 1.0
C      1  0.5199010000000  0.5330140000000  0.5359440000000 1.0
C      1  0.4559300000000  0.5497300000000  0.4536430000000 1.0
C      1  0.4850000000000  0.5732140000000  0.4904700000000 1.0
C      1  0.4901900000000  0.5332900000000  0.5723270000000 1.0
C      1  0.5110480000000  0.4826550000000  0.5256210000000 1.0
C      1  0.5628300000000  0.4593380000000  0.5278380000000 1.0
C      1  0.5333870000000  0.5605890000000  0.4503060000000 1.0
C      1  0.5102170000000  0.4740400000000  0.4978460000000 1.0
C      1  0.4380860000000  0.4702530000000  0.5616780000000 1.0
C      1  0.4538860000000  0.4935320000000  0.4654520000000 1.0
C      1  0.4956570000000  0.5726500000000  0.5418870000000 1.0
C      1  0.4167550000000  0.5319100000000  0.4956830000000 1.0
C      1  0.4355170000000  0.5241420000000  0.4478610000000 1.0
C      1  0.5991510000000  0.4454690000000  0.4957320000000 1.0
C      1  0.5313790000000  0.4703780000000  0.4722990000000 1.0
C      1  0.5788720000000  0.5022180000000  0.5064230000000 1.0
C      1  0.5277380000000  0.5316000000000  0.4370550000000 1.0
C      1  0.5440530000000  0.5718280000000  0.5254160000000 1.0
C      1  0.4248100000000  0.5275130000000  0.5215070000000 1.0
C      1  0.4832350000000  0.4482710000000  0.4527600000000 1.0
C      1  0.4408300000000  0.5126840000000  0.5385840000000 1.0
C      1  0.4787260000000  0.5022370000000  0.5684920000000 1.0
C      1  0.4907810000000  0.4503540000000  0.5619820000000 1.0
C      1  0.4217620000000  0.5160680000000  0.4726090000000 1.0
C      1  0.5470950000000  0.5118480000000  0.4659020000000 1.0
C      1  0.4553110000000  0.5497850000000  0.5400090000000 1.0
C      1  0.4939870000000  0.4774960000000  0.5799600000000 1.0
C      1  0.5392850000000  0.5017650000000  0.4361200000000 1.0
C      1  0.4672760000000  0.5239630000000  0.4719300000000 1.0
C      1  0.5116280000000  0.5178690000000  0.5062230000000 1.0
C      1  0.5448000000000  0.4495750000000  0.5476480000000 1.0
C      1  0.4291860000000  0.4861830000000  0.4819580000000 1.0
C      1  0.5011440000000  0.4209240000000  0.4927650000000 1.0
C      1  0.5190040000000  0.5293480000000  0.5757170000000 1.0
C      1  0.5058690000000  0.5241260000000  0.4615860000000 1.0
C      1  0.4134270000000  0.4536830000000  0.5148960000000 1.0
C      1  0.5101630000000  0.4954050000000  0.4707790000000 1.0
C      1  0.4787660000000  0.5124590000000  0.5083780000000 1.0
C      1  0.6251210000000  0.4421440000000  0.4924170000000 1.0
C      1  0.4516310000000  0.4269490000000  0.4904400000000 1.0
C      1  0.4163860000000  0.4576780000000  0.4848500000000 1.0
C      1  0.4423310000000  0.4733630000000  0.5106480000000 1.0
C      1  0.5581590000000  0.5494800000000  0.5055540000000 1.0
C      1  0.4781890000000  0.5542000000000  0.5562080000000 1.0
C      1  0.4819100000000  0.5566730000000  0.4366410000000 1.0
C      1  0.4296590000000  0.4520240000000  0.5418690000000 1.0
C      1  0.4925450000000  0.5905100000000  0.4686370000000 1.0
C      1  0.4495940000000  0.4963890000000  0.5621880000000 1.0
C      1  0.5541910000000  0.4262940000000  0.4924480000000 1.0
C      1  0.5239360000000  0.4814460000000  0.5823470000000 1.0
C      1  0.4699980000000  0.4849830000000  0.4201820000000 1.0
C      1  0.5381930000000  0.4978480000000  0.5394800000000 1.0
C      1  0.4490600000000  0.5567750000000  0.4846130000000 1.0
C      1  0.5689140000000  0.4493400000000  0.4995920000000 1.0
C      1  0.4784560000000  0.4394800000000  0.5333200000000 1.0
C      1  0.5545440000000  0.5442940000000  0.4719110000000 1.0
C      1  0.5078710000000  0.4477360000000  0.4762280000000 1.0
END
