TITL C-2778426-5645-240 -0.00377973503460802 125000 -750.667892328795 0 0 131 (C1) n - 1
REM
REM in /home/nfs/bkarasulu/CARBON/AIRSS/Generating-Clusters/REBO/Only-C1/SD-CG/HFTN-CG
REM
REM
REM
REM
REM
REM ./C.cell (11c1c37f851c82e70ff6c80c92926a4b)
REM
REM compiler GCC version 9.2.1 20190827 (Red Hat 9.2.1-1)
REM options -cpp -mtune=generic -march=x86-64 -g -O0 -fpre-include=/usr/include/finclude/math-vector-fortran.h
REM seed -1215652807 2041337090 540354601 -1234409686 1201947941 1688497720 1636033949 -1004782186 -1746629515 -1652436485 -2010058853 1225950764 197282397 -232475772 -1104612252 725691938 -1159134640 68328046 -2068713241 -784993577 1518977766 -1841105634 1658707300 -1725865571 -409374117 2033843973 -77422141 -2103303145 -926178689 -1772694352 938363362 -383445117 -1606860696
REM
CELL 1.54180   50.00000   50.00000   50.00000   90.00000   90.00000   90.00000
LATT -1
SFAC C  
C      1  0.4293400000000  0.4433480000000  0.5231510000000 1.0
C      1  0.5288530000000  0.4489760000000  0.4341540000000 1.0
C      1  0.4484800000000  0.4887060000000  0.5241430000000 1.0
C      1  0.4625940000000  0.5279440000000  0.4295590000000 1.0
C      1  0.5136610000000  0.4589990000000  0.5270620000000 1.0
C      1  0.5046120000000  0.5911500000000  0.4638350000000 1.0
C      1  0.4117850000000  0.5044910000000  0.5228040000000 1.0
C      1  0.4518710000000  0.5213570000000  0.4582250000000 1.0
C      1  0.5285660000000  0.4209830000000  0.5584010000000 1.0
C      1  0.6005900000000  0.5276000000000  0.5397520000000 1.0
C      1  0.4855590000000  0.5450250000000  0.4761550000000 1.0
C      1  0.4715680000000  0.5017190000000  0.4715850000000 1.0
C      1  0.5298680000000  0.5397180000000  0.4149470000000 1.0
C      1  0.4230440000000  0.4564580000000  0.4753560000000 1.0
C      1  0.5116370000000  0.5001070000000  0.5608270000000 1.0
C      1  0.5190670000000  0.4852740000000  0.4160440000000 1.0
C      1  0.4748340000000  0.5314550000000  0.5485920000000 1.0
C      1  0.5627190000000  0.4879400000000  0.4622560000000 1.0
C      1  0.5189170000000  0.5225870000000  0.4949220000000 1.0
C      1  0.4930470000000  0.5725660000000  0.4387730000000 1.0
C      1  0.4531080000000  0.4515400000000  0.4271890000000 1.0
C      1  0.4134060000000  0.4544550000000  0.5479740000000 1.0
C      1  0.4859600000000  0.4831490000000  0.5113770000000 1.0
C      1  0.5011480000000  0.4345170000000  0.4260970000000 1.0
C      1  0.4784760000000  0.4594390000000  0.5721080000000 1.0
C      1  0.5354090000000  0.4816000000000  0.4810910000000 1.0
C      1  0.4183060000000  0.5257010000000  0.4604450000000 1.0
C      1  0.5899270000000  0.4724040000000  0.5094000000000 1.0
C      1  0.4801570000000  0.4555170000000  0.5018340000000 1.0
C      1  0.4982040000000  0.4639250000000  0.4091390000000 1.0
C      1  0.5984290000000  0.4961960000000  0.5326020000000 1.0
C      1  0.5056280000000  0.5575310000000  0.5286170000000 1.0
C      1  0.4972680000000  0.4741670000000  0.5485180000000 1.0
C      1  0.4948260000000  0.5163700000000  0.4501340000000 1.0
C      1  0.5188800000000  0.5270000000000  0.4633520000000 1.0
C      1  0.4940500000000  0.5948640000000  0.5365220000000 1.0
C      1  0.5472140000000  0.4361700000000  0.4574680000000 1.0
C      1  0.4278940000000  0.5602070000000  0.5126320000000 1.0
C      1  0.4696100000000  0.4273280000000  0.4358980000000 1.0
C      1  0.5049010000000  0.5665150000000  0.4864780000000 1.0
C      1  0.4849540000000  0.5750390000000  0.5105580000000 1.0
C      1  0.5290020000000  0.5070800000000  0.5236500000000 1.0
C      1  0.4762950000000  0.5517020000000  0.4498660000000 1.0
C      1  0.5194140000000  0.4763190000000  0.5838880000000 1.0
C      1  0.5289210000000  0.5252200000000  0.5525270000000 1.0
C      1  0.5062530000000  0.5598790000000  0.4163760000000 1.0
C      1  0.4764090000000  0.4285050000000  0.5692430000000 1.0
C      1  0.5609740000000  0.5326490000000  0.4704230000000 1.0
C      1  0.4247140000000  0.4970160000000  0.4427840000000 1.0
C      1  0.5234320000000  0.4466590000000  0.5792030000000 1.0
C      1  0.5352990000000  0.5949030000000  0.4782880000000 1.0
C      1  0.5029870000000  0.4298640000000  0.4778770000000 1.0
C      1  0.5731980000000  0.5032880000000  0.5547150000000 1.0
C      1  0.3973870000000  0.4962870000000  0.4970430000000 1.0
C      1  0.4759540000000  0.4226560000000  0.5373930000000 1.0
C      1  0.5497840000000  0.5745130000000  0.5015150000000 1.0
C      1  0.4389570000000  0.4671020000000  0.4488400000000 1.0
C      1  0.4919950000000  0.5293120000000  0.4185740000000 1.0
C      1  0.4630730000000  0.4750140000000  0.5464550000000 1.0
C      1  0.5708610000000  0.4700170000000  0.5360360000000 1.0
C      1  0.4515660000000  0.4183190000000  0.4889160000000 1.0
C      1  0.4539190000000  0.5691220000000  0.4786320000000 1.0
C      1  0.5051420000000  0.4298060000000  0.5264140000000 1.0
C      1  0.4155420000000  0.5500730000000  0.4840100000000 1.0
C      1  0.4591940000000  0.5069590000000  0.5883190000000 1.0
C      1  0.5348430000000  0.5560010000000  0.5934930000000 1.0
C      1  0.5667690000000  0.4919150000000  0.4290150000000 1.0
C      1  0.4179490000000  0.4887270000000  0.4750580000000 1.0
C      1  0.4462820000000  0.5368320000000  0.4860680000000 1.0
C      1  0.4851560000000  0.4898920000000  0.4364460000000 1.0
C      1  0.6183080000000  0.5122610000000  0.4790940000000 1.0
C      1  0.5089070000000  0.5510080000000  0.5556300000000 1.0
C      1  0.5885130000000  0.4614270000000  0.4774320000000 1.0
C      1  0.5575960000000  0.5728460000000  0.5510050000000 1.0
C      1  0.5462390000000  0.4603480000000  0.5169560000000 1.0
C      1  0.5168450000000  0.4842370000000  0.5050400000000 1.0
C      1  0.4700530000000  0.4299130000000  0.5077040000000 1.0
C      1  0.5971520000000  0.5111260000000  0.5035520000000 1.0
C      1  0.4158380000000  0.5175460000000  0.5543710000000 1.0
C      1  0.5171520000000  0.5118570000000  0.4059240000000 1.0
C      1  0.4577290000000  0.4125850000000  0.4620980000000 1.0
C      1  0.4417670000000  0.4673010000000  0.5020820000000 1.0
C      1  0.4517070000000  0.5755860000000  0.5179200000000 1.0
C      1  0.4340660000000  0.4962440000000  0.5739460000000 1.0
C      1  0.5343360000000  0.4299570000000  0.4804950000000 1.0
C      1  0.5478250000000  0.4930420000000  0.5755460000000 1.0
C      1  0.5599230000000  0.4628210000000  0.4312740000000 1.0
C      1  0.5700680000000  0.5200690000000  0.4400700000000 1.0
C      1  0.5397920000000  0.5774260000000  0.4508170000000 1.0
C      1  0.4108760000000  0.4853620000000  0.5505780000000 1.0
C      1  0.5039840000000  0.4213040000000  0.5791180000000 1.0
C      1  0.4536470000000  0.4954650000000  0.4248460000000 1.0
C      1  0.4787150000000  0.5141250000000  0.5202830000000 1.0
C      1  0.5036740000000  0.4676690000000  0.4482890000000 1.0
C      1  0.4668460000000  0.5811790000000  0.5453010000000 1.0
C      1  0.4959790000000  0.4118350000000  0.4511200000000 1.0
C      1  0.4675030000000  0.5585400000000  0.5627160000000 1.0
C      1  0.5673120000000  0.5213330000000  0.4973920000000 1.0
C      1  0.4356160000000  0.5068080000000  0.4979660000000 1.0
C      1  0.4868930000000  0.4863610000000  0.5888650000000 1.0
C      1  0.5032160000000  0.3905820000000  0.4746390000000 1.0
C      1  0.4493020000000  0.4374830000000  0.5500660000000 1.0
C      1  0.4591490000000  0.4733820000000  0.4734490000000 1.0
C      1  0.5427700000000  0.5791280000000  0.4240650000000 1.0
C      1  0.5710220000000  0.5359490000000  0.5443660000000 1.0
C      1  0.5317720000000  0.4103520000000  0.5284320000000 1.0
C      1  0.5357350000000  0.5551980000000  0.4763410000000 1.0
C      1  0.5604600000000  0.4882860000000  0.5021830000000 1.0
C      1  0.5744450000000  0.4490760000000  0.4566930000000 1.0
C      1  0.5264050000000  0.5454380000000  0.5138760000000 1.0
C      1  0.4601550000000  0.5408730000000  0.5852300000000 1.0
C      1  0.4247960000000  0.5406640000000  0.5329510000000 1.0
C      1  0.5460010000000  0.4904680000000  0.5429290000000 1.0
C      1  0.4391280000000  0.4637870000000  0.5681260000000 1.0
C      1  0.5511200000000  0.5458670000000  0.5681750000000 1.0
C      1  0.4722340000000  0.5845750000000  0.4722500000000 1.0
C      1  0.5451730000000  0.5858890000000  0.5307340000000 1.0
C      1  0.5214300000000  0.6000600000000  0.5368240000000 1.0
C      1  0.4878880000000  0.5185540000000  0.4918090000000 1.0
C      1  0.4850420000000  0.5139340000000  0.5696010000000 1.0
C      1  0.4682310000000  0.4694540000000  0.4078720000000 1.0
C      1  0.5422540000000  0.5363030000000  0.4417630000000 1.0
C      1  0.5442390000000  0.4314340000000  0.5068580000000 1.0
C      1  0.5102460000000  0.4065830000000  0.5019720000000 1.0
C      1  0.5899230000000  0.4937720000000  0.4757310000000 1.0
C      1  0.5581720000000  0.5444220000000  0.5168870000000 1.0
C      1  0.4489590000000  0.5208540000000  0.5326500000000 1.0
C      1  0.4884660000000  0.4562820000000  0.4709570000000 1.0
C      1  0.5318790000000  0.4860290000000  0.4476450000000 1.0
C      1  0.5092520000000  0.5606460000000  0.5824200000000 1.0
C      1  0.4266320000000  0.4314350000000  0.4940340000000 1.0
END
