TITL C-2778431-5191-265 0.00623220058032161 125000 -1115.93897132835 0 0 197 (C1) n - 1
REM
REM in /home/nfs/bkarasulu/CARBON/AIRSS/Generating-Clusters/REBO/Only-C1/SD-CG/HFTN-CG
REM
REM
REM
REM
REM
REM ./C.cell (11c1c37f851c82e70ff6c80c92926a4b)
REM
REM compiler GCC version 9.2.1 20190827 (Red Hat 9.2.1-1)
REM options -cpp -mtune=generic -march=x86-64 -g -O0 -fpre-include=/usr/include/finclude/math-vector-fortran.h
REM seed 14791004 -810021008 -106945111 -506951596 -1944326837 364383067 97797220 -1490569230 263659793 231163353 -2095609430 -1176691668 -1389659032 -455273928 -1868512208 -1031277455 276419056 1657979526 1071642362 -1508750368 -1745502874 1398755304 -1274078405 190213701 -138171948 -864618813 1448859956 805778468 -1351846756 514325715 1023293383 490652347 1401401948
REM
CELL 1.54180   50.00000   50.00000   50.00000   90.00000   90.00000   90.00000
LATT -1
SFAC C  
C      1  0.5084670000000  0.4942210000000  0.6133930000000 1.0
C      1  0.5073770000000  0.5444460000000  0.5574970000000 1.0
C      1  0.4623090000000  0.5109510000000  0.4546840000000 1.0
C      1  0.4018970000000  0.4714710000000  0.4632130000000 1.0
C      1  0.4634480000000  0.6128970000000  0.4549020000000 1.0
C      1  0.4758530000000  0.4916440000000  0.6033070000000 1.0
C      1  0.5724800000000  0.5425920000000  0.5932670000000 1.0
C      1  0.5073510000000  0.4896180000000  0.5655160000000 1.0
C      1  0.4074350000000  0.4627720000000  0.5642200000000 1.0
C      1  0.5673870000000  0.5101860000000  0.5903180000000 1.0
C      1  0.4281180000000  0.5676340000000  0.5018300000000 1.0
C      1  0.6178620000000  0.5091340000000  0.4524740000000 1.0
C      1  0.5706330000000  0.5710950000000  0.5182770000000 1.0
C      1  0.4298490000000  0.5464400000000  0.5472310000000 1.0
C      1  0.5575900000000  0.5047130000000  0.4771090000000 1.0
C      1  0.5386190000000  0.5127650000000  0.5228640000000 1.0
C      1  0.4992950000000  0.4938140000000  0.3990810000000 1.0
C      1  0.4813330000000  0.6058570000000  0.5507060000000 1.0
C      1  0.5329150000000  0.5511320000000  0.5141500000000 1.0
C      1  0.4130910000000  0.5126240000000  0.5050440000000 1.0
C      1  0.4626420000000  0.5546730000000  0.4299380000000 1.0
C      1  0.4565900000000  0.5698140000000  0.5087820000000 1.0
C      1  0.5580910000000  0.5504260000000  0.5638110000000 1.0
C      1  0.5038940000000  0.5800740000000  0.4339620000000 1.0
C      1  0.4203310000000  0.4147760000000  0.4953800000000 1.0
C      1  0.5356670000000  0.4711850000000  0.5694550000000 1.0
C      1  0.4045580000000  0.4513330000000  0.4449670000000 1.0
C      1  0.5048570000000  0.4169440000000  0.5162250000000 1.0
C      1  0.5710000000000  0.4907770000000  0.5295110000000 1.0
C      1  0.5538140000000  0.5917570000000  0.4971370000000 1.0
C      1  0.5948530000000  0.4476580000000  0.5308050000000 1.0
C      1  0.5550780000000  0.5949100000000  0.4388660000000 1.0
C      1  0.5536380000000  0.4561920000000  0.4252700000000 1.0
C      1  0.5213330000000  0.5284200000000  0.5971950000000 1.0
C      1  0.4314340000000  0.5475120000000  0.4283070000000 1.0
C      1  0.5875810000000  0.4906530000000  0.4157870000000 1.0
C      1  0.5325250000000  0.5540810000000  0.4240770000000 1.0
C      1  0.5828980000000  0.5429770000000  0.5334020000000 1.0
C      1  0.4842470000000  0.6211620000000  0.4713350000000 1.0
C      1  0.4960830000000  0.5582860000000  0.4088440000000 1.0
C      1  0.5260430000000  0.4408680000000  0.5298630000000 1.0
C      1  0.4977410000000  0.5270960000000  0.4059890000000 1.0
C      1  0.5354980000000  0.4890730000000  0.4983940000000 1.0
C      1  0.5548430000000  0.4834090000000  0.4082400000000 1.0
C      1  0.5137110000000  0.4835220000000  0.4619710000000 1.0
C      1  0.4930840000000  0.4420650000000  0.5940240000000 1.0
C      1  0.4275050000000  0.4244550000000  0.4632330000000 1.0
C      1  0.5879030000000  0.4908620000000  0.4858800000000 1.0
C      1  0.4119880000000  0.5775260000000  0.5297700000000 1.0
C      1  0.5383950000000  0.4705170000000  0.6028520000000 1.0
C      1  0.5026030000000  0.5052970000000  0.4390550000000 1.0
C      1  0.5449160000000  0.5863910000000  0.5347620000000 1.0
C      1  0.5262840000000  0.5143480000000  0.4199230000000 1.0
C      1  0.5824520000000  0.5279990000000  0.5640280000000 1.0
C      1  0.3980180000000  0.4626040000000  0.5019980000000 1.0
C      1  0.5412630000000  0.5026410000000  0.6082030000000 1.0
C      1  0.5756810000000  0.4285900000000  0.5516350000000 1.0
C      1  0.5465050000000  0.5043070000000  0.4458290000000 1.0
C      1  0.5487060000000  0.5364330000000  0.4068740000000 1.0
C      1  0.6011860000000  0.4623060000000  0.4998260000000 1.0
C      1  0.5705680000000  0.5212300000000  0.5142210000000 1.0
C      1  0.4886910000000  0.4393530000000  0.4057540000000 1.0
C      1  0.4389430000000  0.4567910000000  0.5521160000000 1.0
C      1  0.5519810000000  0.5041510000000  0.5539540000000 1.0
C      1  0.5225440000000  0.4771610000000  0.3990260000000 1.0
C      1  0.4662400000000  0.5139890000000  0.4045640000000 1.0
C      1  0.3899560000000  0.5626270000000  0.5126560000000 1.0
C      1  0.5536190000000  0.4043490000000  0.5402280000000 1.0
C      1  0.4849320000000  0.5874300000000  0.5089630000000 1.0
C      1  0.4258900000000  0.4476840000000  0.4894230000000 1.0
C      1  0.4559490000000  0.4715790000000  0.5875200000000 1.0
C      1  0.4910060000000  0.3843660000000  0.5344690000000 1.0
C      1  0.4964540000000  0.4486560000000  0.5032520000000 1.0
C      1  0.5069680000000  0.5683130000000  0.5227410000000 1.0
C      1  0.3916230000000  0.5507480000000  0.4812530000000 1.0
C      1  0.5656290000000  0.4604120000000  0.4732630000000 1.0
C      1  0.4766580000000  0.4740380000000  0.4993920000000 1.0
C      1  0.5545020000000  0.4143900000000  0.4527560000000 1.0
C      1  0.4807150000000  0.5481360000000  0.5147240000000 1.0
C      1  0.5366750000000  0.4420860000000  0.5856430000000 1.0
C      1  0.6103670000000  0.4770390000000  0.5287120000000 1.0
C      1  0.4470000000000  0.4053530000000  0.5099370000000 1.0
C      1  0.5085570000000  0.5761720000000  0.4659900000000 1.0
C      1  0.4426110000000  0.5278990000000  0.4082910000000 1.0
C      1  0.5153590000000  0.4488010000000  0.4003090000000 1.0
C      1  0.5076920000000  0.5289060000000  0.5208330000000 1.0
C      1  0.4075390000000  0.5088340000000  0.4250510000000 1.0
C      1  0.5445760000000  0.4726830000000  0.4527830000000 1.0
C      1  0.5017650000000  0.4536530000000  0.4505890000000 1.0
C      1  0.4532390000000  0.5755370000000  0.4624390000000 1.0
C      1  0.5660480000000  0.5139670000000  0.4208870000000 1.0
C      1  0.4762830000000  0.4403440000000  0.4781980000000 1.0
C      1  0.5267090000000  0.5484900000000  0.4747710000000 1.0
C      1  0.5280360000000  0.4557610000000  0.4990360000000 1.0
C      1  0.4996480000000  0.4055250000000  0.5596970000000 1.0
C      1  0.4722930000000  0.5862500000000  0.4367890000000 1.0
C      1  0.4739880000000  0.4534410000000  0.5708420000000 1.0
C      1  0.5633990000000  0.4246490000000  0.4976930000000 1.0
C      1  0.4763270000000  0.5406550000000  0.5861830000000 1.0
C      1  0.4145550000000  0.5326320000000  0.5739560000000 1.0
C      1  0.5080250000000  0.4304660000000  0.4699600000000 1.0
C      1  0.4149180000000  0.5410900000000  0.5124910000000 1.0
C      1  0.5883330000000  0.4155370000000  0.4570160000000 1.0
C      1  0.3911980000000  0.4923010000000  0.4876610000000 1.0
C      1  0.4810070000000  0.4314260000000  0.5358380000000 1.0
C      1  0.4618790000000  0.5525920000000  0.4731610000000 1.0
C      1  0.6103740000000  0.5093210000000  0.4813480000000 1.0
C      1  0.4539340000000  0.5262730000000  0.5368010000000 1.0
C      1  0.5522100000000  0.4174650000000  0.5712040000000 1.0
C      1  0.4577730000000  0.4215290000000  0.4485250000000 1.0
C      1  0.5760090000000  0.4569940000000  0.5648290000000 1.0
C      1  0.5781840000000  0.4880790000000  0.5685570000000 1.0
C      1  0.4490560000000  0.4616360000000  0.5101990000000 1.0
C      1  0.5016700000000  0.4995370000000  0.5163850000000 1.0
C      1  0.5825700000000  0.5446430000000  0.4359500000000 1.0
C      1  0.5195510000000  0.3786730000000  0.4794010000000 1.0
C      1  0.4519540000000  0.5142350000000  0.4868560000000 1.0
C      1  0.5290620000000  0.5106730000000  0.5714720000000 1.0
C      1  0.5067930000000  0.4602380000000  0.6100530000000 1.0
C      1  0.5246440000000  0.3869870000000  0.4222250000000 1.0
C      1  0.4385160000000  0.4977190000000  0.4340350000000 1.0
C      1  0.4932230000000  0.5489130000000  0.4769950000000 1.0
C      1  0.4426840000000  0.4640750000000  0.4129170000000 1.0
C      1  0.3819420000000  0.5231100000000  0.4989390000000 1.0
C      1  0.5115840000000  0.5594900000000  0.5868560000000 1.0
C      1  0.5343880000000  0.5843470000000  0.4239880000000 1.0
C      1  0.5961450000000  0.5572410000000  0.4712360000000 1.0
C      1  0.4379200000000  0.5776230000000  0.5498790000000 1.0
C      1  0.5454390000000  0.4684050000000  0.5372780000000 1.0
C      1  0.4600450000000  0.4788770000000  0.4480360000000 1.0
C      1  0.4638660000000  0.4108100000000  0.4805830000000 1.0
C      1  0.4340450000000  0.4413710000000  0.4339840000000 1.0
C      1  0.4521950000000  0.4272520000000  0.5499520000000 1.0
C      1  0.4072910000000  0.5553130000000  0.4509840000000 1.0
C      1  0.5944470000000  0.5528750000000  0.5019470000000 1.0
C      1  0.5130570000000  0.4797930000000  0.5350900000000 1.0
C      1  0.4873900000000  0.4768400000000  0.4331700000000 1.0
C      1  0.5225590000000  0.4279170000000  0.5589040000000 1.0
C      1  0.3976960000000  0.5338070000000  0.5475630000000 1.0
C      1  0.5366970000000  0.5401340000000  0.5455940000000 1.0
C      1  0.4772590000000  0.3964200000000  0.5085260000000 1.0
C      1  0.4821670000000  0.5323410000000  0.4423620000000 1.0
C      1  0.4049560000000  0.4510360000000  0.5322880000000 1.0
C      1  0.6109980000000  0.5255290000000  0.5048910000000 1.0
C      1  0.5231840000000  0.3952870000000  0.5363750000000 1.0
C      1  0.4267130000000  0.4269030000000  0.5271390000000 1.0
C      1  0.4689950000000  0.4802220000000  0.4072910000000 1.0
C      1  0.5630950000000  0.4005310000000  0.5126840000000 1.0
C      1  0.5626880000000  0.5798960000000  0.5584480000000 1.0
C      1  0.5144380000000  0.5431000000000  0.4443470000000 1.0
C      1  0.4792500000000  0.5703890000000  0.5866270000000 1.0
C      1  0.5572900000000  0.5924920000000  0.4703560000000 1.0
C      1  0.4532410000000  0.4592940000000  0.4705210000000 1.0
C      1  0.4641730000000  0.4724170000000  0.5370420000000 1.0
C      1  0.3839370000000  0.5138760000000  0.5318770000000 1.0
C      1  0.4265140000000  0.5087180000000  0.5811470000000 1.0
C      1  0.5076350000000  0.5977660000000  0.5401220000000 1.0
C      1  0.5127310000000  0.4028420000000  0.4861910000000 1.0
C      1  0.6076890000000  0.5365370000000  0.4521680000000 1.0
C      1  0.4761280000000  0.4201120000000  0.5736510000000 1.0
C      1  0.5654860000000  0.4472400000000  0.5180450000000 1.0
C      1  0.4648880000000  0.5864260000000  0.5686010000000 1.0
C      1  0.4252770000000  0.5141450000000  0.4679310000000 1.0
C      1  0.6100830000000  0.4922330000000  0.4307500000000 1.0
C      1  0.3942210000000  0.4834670000000  0.5398520000000 1.0
C      1  0.5253200000000  0.6015740000000  0.5110530000000 1.0
C      1  0.4816870000000  0.5231620000000  0.4913570000000 1.0
C      1  0.4345230000000  0.6008380000000  0.4651900000000 1.0
C      1  0.4973440000000  0.4943980000000  0.4851960000000 1.0
C      1  0.6043650000000  0.4954570000000  0.5553300000000 1.0
C      1  0.6084320000000  0.5111570000000  0.5280420000000 1.0
C      1  0.4191340000000  0.4838450000000  0.4094910000000 1.0
C      1  0.4809160000000  0.4372080000000  0.4321510000000 1.0
C      1  0.4593200000000  0.5950700000000  0.5301850000000 1.0
C      1  0.4500900000000  0.5023440000000  0.5590730000000 1.0
C      1  0.5494040000000  0.5343380000000  0.4909620000000 1.0
C      1  0.5355760000000  0.4349460000000  0.4141170000000 1.0
C      1  0.4287180000000  0.4791050000000  0.5835310000000 1.0
C      1  0.5707420000000  0.4429870000000  0.4475360000000 1.0
C      1  0.5633550000000  0.4742500000000  0.5021120000000 1.0
C      1  0.5375030000000  0.4106390000000  0.4278980000000 1.0
C      1  0.5763480000000  0.5735320000000  0.4523710000000 1.0
C      1  0.4154120000000  0.5764780000000  0.4750060000000 1.0
C      1  0.4798570000000  0.4991290000000  0.5714940000000 1.0
C      1  0.5024220000000  0.5998380000000  0.4858860000000 1.0
C      1  0.4074510000000  0.5240560000000  0.4496250000000 1.0
C      1  0.5230250000000  0.5751160000000  0.5586770000000 1.0
C      1  0.4900690000000  0.5219310000000  0.6055360000000 1.0
C      1  0.4247940000000  0.4833680000000  0.5073510000000 1.0
C      1  0.4911500000000  0.4604150000000  0.5437480000000 1.0
C      1  0.4297880000000  0.4838260000000  0.4737210000000 1.0
C      1  0.4276220000000  0.4869090000000  0.5404250000000 1.0
C      1  0.4794920000000  0.5291650000000  0.5563650000000 1.0
C      1  0.4601600000000  0.4995230000000  0.5164880000000 1.0
C      1  0.5896850000000  0.4375020000000  0.4822000000000 1.0
C      1  0.5393930000000  0.4310110000000  0.4782810000000 1.0
C      1  0.4693250000000  0.5680540000000  0.3991250000000 1.0
END
