TITL C-2778435-5768-44 1.50513388905052e-07 125000 -110.61724081665 0 0 21 (C1) n - 1
REM
REM in /home/nfs/bkarasulu/CARBON/AIRSS/Generating-Clusters/REBO/Only-C1/SD-CG/HFTN-CG
REM
REM
REM
REM
REM
REM ./C.cell (11c1c37f851c82e70ff6c80c92926a4b)
REM
REM compiler GCC version 9.2.1 20190827 (Red Hat 9.2.1-1)
REM options -cpp -mtune=generic -march=x86-64 -g -O0 -fpre-include=/usr/include/finclude/math-vector-fortran.h
REM seed -1881806879 -1140281431 -575789965 1994950979 -1195086906 -1157892350 483173512 -1922363597 1748592368 -1454545344 340955135 -1237052563 -877613123 -137824083 693906323 -1569742627 154836207 -1178396251 -1178288859 -705369446 -71215010 441739682 -684221120 -350297572 -480763755 -778434758 1119223691 2058122114 -2142546023 -12283217 32189835 -701726211 1340110253
REM
CELL 1.54180   50.00000   50.00000   50.00000   90.00000   90.00000   90.00000
LATT -1
SFAC C  
C      1  0.5384340000000  0.4020600000000  0.5128190000000 1.0
C      1  0.4915220000000  0.5026280000000  0.5113460000000 1.0
C      1  0.4405690000000  0.5484970000000  0.5570770000000 1.0
C      1  0.4765450000000  0.5666460000000  0.4870400000000 1.0
C      1  0.4522380000000  0.5543840000000  0.5343610000000 1.0
C      1  0.5330560000000  0.3996100000000  0.5394460000000 1.0
C      1  0.4726660000000  0.5908280000000  0.4750680000000 1.0
C      1  0.5060070000000  0.5534190000000  0.4506670000000 1.0
C      1  0.5347020000000  0.4267660000000  0.5002240000000 1.0
C      1  0.5177400000000  0.5591720000000  0.4279500000000 1.0
C      1  0.4973580000000  0.5228740000000  0.4870620000000 1.0
C      1  0.5399810000000  0.4802150000000  0.4520110000000 1.0
C      1  0.5311500000000  0.4502790000000  0.4882370000000 1.0
C      1  0.4828760000000  0.4727880000000  0.5472110000000 1.0
C      1  0.4789830000000  0.4969920000000  0.5352430000000 1.0
C      1  0.5473950000000  0.3807910000000  0.4982850000000 1.0
C      1  0.4640950000000  0.5603650000000  0.5112780000000 1.0
C      1  0.4627620000000  0.5156550000000  0.5467670000000 1.0
C      1  0.4934900000000  0.5472820000000  0.4749020000000 1.0
C      1  0.5274180000000  0.4749810000000  0.4756430000000 1.0
C      1  0.5110140000000  0.4937690000000  0.4873630000000 1.0
END
