TITL C-2778430-5657-54 0.000733952224601263 125000 -489.705622361981 0 0 86 (C1) n - 1
REM
REM in /home/nfs/bkarasulu/CARBON/AIRSS/Generating-Clusters/REBO/Only-C1/SD-CG/HFTN-CG
REM
REM
REM
REM
REM
REM ./C.cell (11c1c37f851c82e70ff6c80c92926a4b)
REM
REM compiler GCC version 9.2.1 20190827 (Red Hat 9.2.1-1)
REM options -cpp -mtune=generic -march=x86-64 -g -O0 -fpre-include=/usr/include/finclude/math-vector-fortran.h
REM seed -1352895123 -545228238 115225243 -1308532759 1185309811 1408562282 348064012 -1608375185 -598778014 750214560 -556606813 242205927 833678456 -1061600683 575430019 1664340125 -1817843293 921565462 -1013925754 -1930948381 -1625174916 1516783919 687591846 1013560221 2024224052 -933937381 -600015696 1064430570 1517719686 -1182580907 -1425245126 -762783560 1632374453
REM
CELL 1.54180   50.00000   50.00000   50.00000   90.00000   90.00000   90.00000
LATT -1
SFAC C  
C      1  0.5555890000000  0.4869530000000  0.5176410000000 1.0
C      1  0.5272560000000  0.5736520000000  0.5379750000000 1.0
C      1  0.5347530000000  0.4265460000000  0.4658760000000 1.0
C      1  0.5370590000000  0.4431700000000  0.5511760000000 1.0
C      1  0.5051760000000  0.4610550000000  0.4399630000000 1.0
C      1  0.4958590000000  0.5288700000000  0.4954190000000 1.0
C      1  0.5330130000000  0.5907690000000  0.5181030000000 1.0
C      1  0.4344940000000  0.4936210000000  0.4352630000000 1.0
C      1  0.4819920000000  0.5753290000000  0.5424980000000 1.0
C      1  0.5728850000000  0.5024320000000  0.4948440000000 1.0
C      1  0.5531910000000  0.4643830000000  0.4421140000000 1.0
C      1  0.5471970000000  0.5576650000000  0.4547100000000 1.0
C      1  0.5197000000000  0.5361030000000  0.4208080000000 1.0
C      1  0.5103060000000  0.4587170000000  0.5263910000000 1.0
C      1  0.4328280000000  0.5323330000000  0.5133570000000 1.0
C      1  0.4384290000000  0.4662110000000  0.4415380000000 1.0
C      1  0.5001330000000  0.4837170000000  0.5701620000000 1.0
C      1  0.4307440000000  0.4833890000000  0.4900760000000 1.0
C      1  0.4499860000000  0.4376800000000  0.4981340000000 1.0
C      1  0.5100450000000  0.5363620000000  0.4535620000000 1.0
C      1  0.5800680000000  0.5218690000000  0.5198870000000 1.0
C      1  0.4473650000000  0.4589530000000  0.4726260000000 1.0
C      1  0.4692290000000  0.4283750000000  0.5158800000000 1.0
C      1  0.5405390000000  0.5161270000000  0.5194510000000 1.0
C      1  0.4911660000000  0.5628850000000  0.4633770000000 1.0
C      1  0.5187290000000  0.5097590000000  0.5701660000000 1.0
C      1  0.5102660000000  0.5581160000000  0.4979210000000 1.0
C      1  0.5675500000000  0.5108250000000  0.4685820000000 1.0
C      1  0.4388330000000  0.5339190000000  0.5468070000000 1.0
C      1  0.5282740000000  0.5173320000000  0.4709790000000 1.0
C      1  0.5369880000000  0.5119820000000  0.5910480000000 1.0
C      1  0.4754230000000  0.4528890000000  0.4267000000000 1.0
C      1  0.4829620000000  0.5164560000000  0.4456350000000 1.0
C      1  0.5470120000000  0.4622090000000  0.4884700000000 1.0
C      1  0.4975520000000  0.4385690000000  0.5497400000000 1.0
C      1  0.5455770000000  0.4958480000000  0.4510570000000 1.0
C      1  0.5309580000000  0.5925280000000  0.4913050000000 1.0
C      1  0.4861560000000  0.5482580000000  0.5626690000000 1.0
C      1  0.4304420000000  0.4573620000000  0.5087200000000 1.0
C      1  0.5665230000000  0.4666120000000  0.4685300000000 1.0
C      1  0.4673040000000  0.4926440000000  0.5669540000000 1.0
C      1  0.5273640000000  0.5229650000000  0.5432330000000 1.0
C      1  0.4997680000000  0.4880940000000  0.5188400000000 1.0
C      1  0.4324230000000  0.5119220000000  0.4613510000000 1.0
C      1  0.5440000000000  0.5300810000000  0.4949490000000 1.0
C      1  0.4993220000000  0.4326850000000  0.5092120000000 1.0
C      1  0.4907530000000  0.4300110000000  0.4605770000000 1.0
C      1  0.5196560000000  0.4671920000000  0.4812980000000 1.0
C      1  0.5525750000000  0.4452140000000  0.5146560000000 1.0
C      1  0.5549340000000  0.4927580000000  0.5565040000000 1.0
C      1  0.4573150000000  0.5558370000000  0.5338690000000 1.0
C      1  0.5277560000000  0.4833810000000  0.5377100000000 1.0
C      1  0.4521290000000  0.5623810000000  0.4694790000000 1.0
C      1  0.5706680000000  0.5135050000000  0.5458570000000 1.0
C      1  0.5675940000000  0.5406830000000  0.4644920000000 1.0
C      1  0.4579980000000  0.4657580000000  0.5478330000000 1.0
C      1  0.4543810000000  0.5045950000000  0.4825410000000 1.0
C      1  0.4457930000000  0.5618640000000  0.5024410000000 1.0
C      1  0.4700750000000  0.4380650000000  0.5435300000000 1.0
C      1  0.4798250000000  0.4159400000000  0.4413530000000 1.0
C      1  0.4868000000000  0.5200290000000  0.5723550000000 1.0
C      1  0.5110280000000  0.5480890000000  0.5408820000000 1.0
C      1  0.5202780000000  0.4874690000000  0.4324050000000 1.0
C      1  0.4209810000000  0.4918840000000  0.5392470000000 1.0
C      1  0.5056770000000  0.4973540000000  0.4870490000000 1.0
C      1  0.4453190000000  0.5250480000000  0.4354880000000 1.0
C      1  0.5235780000000  0.5702660000000  0.4696260000000 1.0
C      1  0.4300290000000  0.4651280000000  0.5360780000000 1.0
C      1  0.4668290000000  0.5455840000000  0.4467040000000 1.0
C      1  0.4854060000000  0.5404750000000  0.5236750000000 1.0
C      1  0.4944020000000  0.5786160000000  0.5158180000000 1.0
C      1  0.4190370000000  0.5043620000000  0.5127280000000 1.0
C      1  0.5050560000000  0.5100570000000  0.4241180000000 1.0
C      1  0.5385790000000  0.4233780000000  0.4921900000000 1.0
C      1  0.4381290000000  0.5072590000000  0.5573390000000 1.0
C      1  0.4749390000000  0.5750600000000  0.4906760000000 1.0
C      1  0.5313130000000  0.4455980000000  0.4448550000000 1.0
C      1  0.4728710000000  0.4891060000000  0.5280350000000 1.0
C      1  0.4788710000000  0.4952740000000  0.4672670000000 1.0
C      1  0.5613720000000  0.4627820000000  0.5412940000000 1.0
C      1  0.5282870000000  0.4235150000000  0.5247360000000 1.0
C      1  0.5136650000000  0.4589130000000  0.5661490000000 1.0
C      1  0.4629670000000  0.5259420000000  0.5024360000000 1.0
C      1  0.5727450000000  0.5423570000000  0.4955060000000 1.0
C      1  0.5024160000000  0.4443040000000  0.4812230000000 1.0
C      1  0.4755440000000  0.4667460000000  0.4562850000000 1.0
END
