TITL C-2778422-5617-760 -0.000856806232954616 125000 -849.919266873796 0 0 148 (C1) n - 1
REM
REM in /home/nfs/bkarasulu/CARBON/AIRSS/Generating-Clusters/REBO/Only-C1/SD-CG/HFTN-CG
REM
REM
REM
REM
REM
REM ./C.cell (11c1c37f851c82e70ff6c80c92926a4b)
REM
REM compiler GCC version 9.2.1 20190827 (Red Hat 9.2.1-1)
REM options -cpp -mtune=generic -march=x86-64 -g -O0 -fpre-include=/usr/include/finclude/math-vector-fortran.h
REM seed 947214594 -1281869821 -827296199 61061690 1816632568 -1973606066 -912274737 -1156347506 788193703 -749644724 1729820759 -1869520469 -648605107 -524361405 -676861954 283761350 943185219 808928135 -1180060224 1230927707 -578694220 -1083514539 -1501627022 -837559648 -458344935 -580109324 99774313 115464283 -933026844 531657136 126118282 -550724627 -781506389
REM
CELL 1.54180   50.00000   50.00000   50.00000   90.00000   90.00000   90.00000
LATT -1
SFAC C  
C      1  0.3924180000000  0.5149070000000  0.4905440000000 1.0
C      1  0.5286670000000  0.5322040000000  0.5925590000000 1.0
C      1  0.5431990000000  0.5856330000000  0.5042280000000 1.0
C      1  0.5435640000000  0.4320790000000  0.4819500000000 1.0
C      1  0.4308930000000  0.4997410000000  0.5734730000000 1.0
C      1  0.5792290000000  0.4910770000000  0.5190810000000 1.0
C      1  0.4525490000000  0.4072570000000  0.5196760000000 1.0
C      1  0.5341230000000  0.4601490000000  0.4690290000000 1.0
C      1  0.5186820000000  0.4613900000000  0.5855890000000 1.0
C      1  0.5020560000000  0.5026240000000  0.4648050000000 1.0
C      1  0.6165720000000  0.5258620000000  0.5124110000000 1.0
C      1  0.5154970000000  0.4816990000000  0.5088820000000 1.0
C      1  0.4818970000000  0.3991590000000  0.5266050000000 1.0
C      1  0.5039720000000  0.4282430000000  0.4853240000000 1.0
C      1  0.5658210000000  0.4634150000000  0.5112810000000 1.0
C      1  0.4700060000000  0.4740410000000  0.5830160000000 1.0
C      1  0.5961170000000  0.4963560000000  0.4949180000000 1.0
C      1  0.5988540000000  0.5284480000000  0.4843420000000 1.0
C      1  0.5504380000000  0.4874870000000  0.4616580000000 1.0
C      1  0.5724140000000  0.5090640000000  0.4302340000000 1.0
C      1  0.4767190000000  0.4795860000000  0.3870500000000 1.0
C      1  0.5537450000000  0.4932340000000  0.5689790000000 1.0
C      1  0.4497440000000  0.4580410000000  0.4393780000000 1.0
C      1  0.5103810000000  0.5504260000000  0.4627740000000 1.0
C      1  0.5660040000000  0.4524640000000  0.5536000000000 1.0
C      1  0.5326260000000  0.5593390000000  0.5821710000000 1.0
C      1  0.5057220000000  0.5709780000000  0.5820200000000 1.0
C      1  0.4892030000000  0.3986160000000  0.4932910000000 1.0
C      1  0.5639400000000  0.5332220000000  0.5554010000000 1.0
C      1  0.4560940000000  0.5385610000000  0.5182360000000 1.0
C      1  0.5081760000000  0.4743700000000  0.4797120000000 1.0
C      1  0.4645550000000  0.5724960000000  0.4948560000000 1.0
C      1  0.5747240000000  0.5488060000000  0.4919760000000 1.0
C      1  0.4824410000000  0.4371480000000  0.4485110000000 1.0
C      1  0.4169210000000  0.5389480000000  0.5501050000000 1.0
C      1  0.5149610000000  0.4168810000000  0.5572320000000 1.0
C      1  0.4412290000000  0.4884960000000  0.4285070000000 1.0
C      1  0.5396450000000  0.4241970000000  0.5112550000000 1.0
C      1  0.4978330000000  0.5301650000000  0.5935950000000 1.0
C      1  0.4678000000000  0.4715920000000  0.4155200000000 1.0
C      1  0.5891540000000  0.4745870000000  0.4695070000000 1.0
C      1  0.4605870000000  0.5071210000000  0.5628040000000 1.0
C      1  0.4505770000000  0.4136560000000  0.4893950000000 1.0
C      1  0.4419370000000  0.4612390000000  0.5200210000000 1.0
C      1  0.4350820000000  0.4250240000000  0.5346000000000 1.0
C      1  0.5831230000000  0.5432540000000  0.4528080000000 1.0
C      1  0.4535000000000  0.6265220000000  0.4798300000000 1.0
C      1  0.4436640000000  0.5491220000000  0.5461400000000 1.0
C      1  0.4162040000000  0.5807490000000  0.4800990000000 1.0
C      1  0.5335020000000  0.5323370000000  0.5393670000000 1.0
C      1  0.4370900000000  0.5222040000000  0.4314610000000 1.0
C      1  0.5365570000000  0.5054680000000  0.5913630000000 1.0
C      1  0.4940500000000  0.5479010000000  0.4347110000000 1.0
C      1  0.4839330000000  0.4988750000000  0.5956710000000 1.0
C      1  0.4233150000000  0.5017100000000  0.4531250000000 1.0
C      1  0.4214900000000  0.5114670000000  0.4827820000000 1.0
C      1  0.4327620000000  0.4808420000000  0.5390980000000 1.0
C      1  0.5139800000000  0.4046820000000  0.5158390000000 1.0
C      1  0.4169540000000  0.5492180000000  0.4705570000000 1.0
C      1  0.4444660000000  0.5120100000000  0.5080780000000 1.0
C      1  0.5773280000000  0.5310070000000  0.5177880000000 1.0
C      1  0.5370220000000  0.5648990000000  0.5287730000000 1.0
C      1  0.4989900000000  0.5804800000000  0.4392590000000 1.0
C      1  0.5998860000000  0.5237970000000  0.5362690000000 1.0
C      1  0.5436620000000  0.4609100000000  0.5714890000000 1.0
C      1  0.5070780000000  0.5024820000000  0.5419200000000 1.0
C      1  0.4736290000000  0.4096500000000  0.4658320000000 1.0
C      1  0.4491080000000  0.4298670000000  0.4530800000000 1.0
C      1  0.4977440000000  0.4717310000000  0.4310720000000 1.0
C      1  0.4426060000000  0.5948470000000  0.4859090000000 1.0
C      1  0.5016550000000  0.5418140000000  0.5396590000000 1.0
C      1  0.5148920000000  0.4875640000000  0.5970360000000 1.0
C      1  0.4888170000000  0.4084670000000  0.5550010000000 1.0
C      1  0.4533420000000  0.4789710000000  0.4654050000000 1.0
C      1  0.5464320000000  0.5140090000000  0.3946180000000 1.0
C      1  0.5292540000000  0.5063460000000  0.4467450000000 1.0
C      1  0.4895110000000  0.5219840000000  0.5635680000000 1.0
C      1  0.4275660000000  0.4335560000000  0.4790950000000 1.0
C      1  0.5272630000000  0.4971460000000  0.4164790000000 1.0
C      1  0.5304000000000  0.5745900000000  0.4762580000000 1.0
C      1  0.5636260000000  0.4309770000000  0.5344170000000 1.0
C      1  0.4438940000000  0.5708050000000  0.4343280000000 1.0
C      1  0.4884400000000  0.5240340000000  0.4122390000000 1.0
C      1  0.5204410000000  0.4098520000000  0.4406220000000 1.0
C      1  0.5736360000000  0.4268960000000  0.4746790000000 1.0
C      1  0.5246430000000  0.4378860000000  0.5378410000000 1.0
C      1  0.5268460000000  0.5721260000000  0.4273270000000 1.0
C      1  0.4112250000000  0.5489020000000  0.5034230000000 1.0
C      1  0.4287970000000  0.4668770000000  0.4817340000000 1.0
C      1  0.4704320000000  0.5489570000000  0.4727860000000 1.0
C      1  0.4911070000000  0.4493830000000  0.5803040000000 1.0
C      1  0.5436150000000  0.5515710000000  0.4236590000000 1.0
C      1  0.5772990000000  0.4528250000000  0.4873970000000 1.0
C      1  0.5505980000000  0.5615330000000  0.5598420000000 1.0
C      1  0.4899130000000  0.5649210000000  0.5579790000000 1.0
C      1  0.5467190000000  0.5449580000000  0.4780620000000 1.0
C      1  0.5363150000000  0.4925370000000  0.5418420000000 1.0
C      1  0.4674070000000  0.5272300000000  0.4364280000000 1.0
C      1  0.5538860000000  0.5118600000000  0.5233280000000 1.0
C      1  0.5826490000000  0.4747560000000  0.5475700000000 1.0
C      1  0.5830060000000  0.5065450000000  0.5584070000000 1.0
C      1  0.5005840000000  0.5881170000000  0.4715780000000 1.0
C      1  0.4147010000000  0.5009830000000  0.5206130000000 1.0
C      1  0.5618340000000  0.4505550000000  0.3939540000000 1.0
C      1  0.5275340000000  0.4581860000000  0.4369910000000 1.0
C      1  0.4614210000000  0.5498960000000  0.5923630000000 1.0
C      1  0.5494100000000  0.5402350000000  0.3983870000000 1.0
C      1  0.4712030000000  0.4261000000000  0.5682470000000 1.0
C      1  0.4082680000000  0.4744760000000  0.5036830000000 1.0
C      1  0.5739440000000  0.4802030000000  0.4395850000000 1.0
C      1  0.4857150000000  0.5407170000000  0.5134440000000 1.0
C      1  0.5531550000000  0.4638540000000  0.4224140000000 1.0
C      1  0.4459870000000  0.4365610000000  0.5587440000000 1.0
C      1  0.4588460000000  0.5216930000000  0.5931960000000 1.0
C      1  0.4979240000000  0.4963320000000  0.4074020000000 1.0
C      1  0.4134350000000  0.5203460000000  0.5716160000000 1.0
C      1  0.4057330000000  0.5306170000000  0.5247160000000 1.0
C      1  0.4776190000000  0.4909240000000  0.5415160000000 1.0
C      1  0.5739380000000  0.5790760000000  0.4988570000000 1.0
C      1  0.5366510000000  0.6146400000000  0.5104210000000 1.0
C      1  0.4732960000000  0.4350660000000  0.4966190000000 1.0
C      1  0.5079990000000  0.4331020000000  0.4326460000000 1.0
C      1  0.4873900000000  0.5597690000000  0.6047070000000 1.0
C      1  0.5079040000000  0.4485150000000  0.5101960000000 1.0
C      1  0.4812480000000  0.4427730000000  0.5290870000000 1.0
C      1  0.4413360000000  0.4679110000000  0.5675190000000 1.0
C      1  0.4637060000000  0.4646860000000  0.5010170000000 1.0
C      1  0.5869780000000  0.4089730000000  0.4593310000000 1.0
C      1  0.4455700000000  0.5305010000000  0.4696500000000 1.0
C      1  0.4666080000000  0.4917770000000  0.5128320000000 1.0
C      1  0.4266170000000  0.5495070000000  0.4400200000000 1.0
C      1  0.5395590000000  0.4653110000000  0.5265590000000 1.0
C      1  0.5151960000000  0.5143410000000  0.5110910000000 1.0
C      1  0.5251820000000  0.4102400000000  0.4673650000000 1.0
C      1  0.4972950000000  0.5665140000000  0.4966380000000 1.0
C      1  0.4689700000000  0.5737080000000  0.4520700000000 1.0
C      1  0.4948460000000  0.5292750000000  0.4824640000000 1.0
C      1  0.4715920000000  0.6021880000000  0.4690450000000 1.0
C      1  0.4619170000000  0.5597970000000  0.5645970000000 1.0
C      1  0.5526290000000  0.5315350000000  0.4473670000000 1.0
C      1  0.4176780000000  0.4419860000000  0.5106280000000 1.0
C      1  0.5773180000000  0.5065360000000  0.4694420000000 1.0
C      1  0.5480420000000  0.4814400000000  0.3944770000000 1.0
C      1  0.4368830000000  0.5630830000000  0.5094230000000 1.0
C      1  0.4690740000000  0.5070890000000  0.4614870000000 1.0
C      1  0.4778540000000  0.4616430000000  0.5514950000000 1.0
C      1  0.4834020000000  0.4670180000000  0.4606400000000 1.0
C      1  0.5239710000000  0.5462680000000  0.5033620000000 1.0
END
