TITL C-2778436-5916-1014 -0.00747275855510862 125000 -669.582681100335 0 0 116 (C1) n - 1
REM
REM in /home/nfs/bkarasulu/CARBON/AIRSS/Generating-Clusters/REBO/Only-C1/SD-CG/HFTN-CG
REM
REM
REM
REM
REM
REM ./C.cell (11c1c37f851c82e70ff6c80c92926a4b)
REM
REM compiler GCC version 9.2.1 20190827 (Red Hat 9.2.1-1)
REM options -cpp -mtune=generic -march=x86-64 -g -O0 -fpre-include=/usr/include/finclude/math-vector-fortran.h
REM seed 1670498362 1781656282 454254437 -611187040 -1684558847 1575268327 626540170 -1473943174 1709971800 197158328 1027468157 1967611076 227483206 -225186250 -188293739 -1582789433 -1890211887 915133889 -1814417595 -2069784225 -1108140953 1876300823 1743004384 -872674229 1754341111 -1725628630 -1729883578 -2081793999 -778063439 2126111725 -1578132265 1946725082 827123424
REM
CELL 1.54180   50.00000   50.00000   50.00000   90.00000   90.00000   90.00000
LATT -1
SFAC C  
C      1  0.5655780000000  0.5403600000000  0.5018910000000 1.0
C      1  0.4900650000000  0.5610980000000  0.4817260000000 1.0
C      1  0.5663630000000  0.4328590000000  0.5155100000000 1.0
C      1  0.4711260000000  0.5907240000000  0.5236320000000 1.0
C      1  0.5847080000000  0.4785790000000  0.4468380000000 1.0
C      1  0.4544610000000  0.4697770000000  0.4895870000000 1.0
C      1  0.5189720000000  0.4984710000000  0.4098370000000 1.0
C      1  0.5754340000000  0.5268870000000  0.5315630000000 1.0
C      1  0.4354370000000  0.4448500000000  0.4635130000000 1.0
C      1  0.4799420000000  0.4829380000000  0.5872690000000 1.0
C      1  0.4606030000000  0.4516010000000  0.4407500000000 1.0
C      1  0.5634080000000  0.4446390000000  0.5472770000000 1.0
C      1  0.4734260000000  0.4540580000000  0.4705040000000 1.0
C      1  0.5122330000000  0.4389490000000  0.5713590000000 1.0
C      1  0.5180890000000  0.4826160000000  0.4568570000000 1.0
C      1  0.5056930000000  0.4350380000000  0.4307940000000 1.0
C      1  0.4941980000000  0.4987410000000  0.5180900000000 1.0
C      1  0.5295410000000  0.5750220000000  0.4233950000000 1.0
C      1  0.5083140000000  0.4166940000000  0.5501280000000 1.0
C      1  0.5546780000000  0.5032450000000  0.5746930000000 1.0
C      1  0.5642670000000  0.5224970000000  0.4261860000000 1.0
C      1  0.5197000000000  0.5235690000000  0.4885000000000 1.0
C      1  0.5410350000000  0.4547160000000  0.5658940000000 1.0
C      1  0.4787270000000  0.4264450000000  0.4858070000000 1.0
C      1  0.4920610000000  0.5184110000000  0.5528480000000 1.0
C      1  0.4564020000000  0.4387110000000  0.5732720000000 1.0
C      1  0.5056430000000  0.5735370000000  0.4388190000000 1.0
C      1  0.5211160000000  0.4195000000000  0.4517700000000 1.0
C      1  0.5487060000000  0.5357710000000  0.4533710000000 1.0
C      1  0.5443340000000  0.5554030000000  0.5382400000000 1.0
C      1  0.5064650000000  0.4430400000000  0.5322460000000 1.0
C      1  0.5315640000000  0.4781140000000  0.6077090000000 1.0
C      1  0.4641000000000  0.4431030000000  0.5453450000000 1.0
C      1  0.5773500000000  0.4611320000000  0.5139120000000 1.0
C      1  0.4098230000000  0.4871150000000  0.4868790000000 1.0
C      1  0.5119310000000  0.5340700000000  0.4379080000000 1.0
C      1  0.4564690000000  0.5457280000000  0.4968390000000 1.0
C      1  0.5126800000000  0.5255330000000  0.5274470000000 1.0
C      1  0.5211030000000  0.4843620000000  0.5027990000000 1.0
C      1  0.4903760000000  0.5513570000000  0.5513750000000 1.0
C      1  0.5224590000000  0.5792840000000  0.5319510000000 1.0
C      1  0.5383180000000  0.5812050000000  0.4784900000000 1.0
C      1  0.5276290000000  0.4568560000000  0.4404820000000 1.0
C      1  0.4258060000000  0.5679130000000  0.5090250000000 1.0
C      1  0.4467480000000  0.5034330000000  0.4652030000000 1.0
C      1  0.4253280000000  0.5406190000000  0.4885740000000 1.0
C      1  0.4569700000000  0.5344970000000  0.4356130000000 1.0
C      1  0.4707550000000  0.5156690000000  0.5863200000000 1.0
C      1  0.5553080000000  0.5318100000000  0.5557460000000 1.0
C      1  0.4969690000000  0.5493670000000  0.5088960000000 1.0
C      1  0.4722150000000  0.4759640000000  0.5248820000000 1.0
C      1  0.4865740000000  0.5506460000000  0.4319910000000 1.0
C      1  0.4878130000000  0.4610060000000  0.5625250000000 1.0
C      1  0.5662210000000  0.4948900000000  0.5322390000000 1.0
C      1  0.5357430000000  0.5480330000000  0.4765280000000 1.0
C      1  0.4637110000000  0.4975900000000  0.4928670000000 1.0
C      1  0.5305450000000  0.5234810000000  0.4191440000000 1.0
C      1  0.4456980000000  0.4311370000000  0.4879830000000 1.0
C      1  0.4354060000000  0.6150890000000  0.4957750000000 1.0
C      1  0.4071090000000  0.5065730000000  0.4642210000000 1.0
C      1  0.5176570000000  0.4702480000000  0.5480790000000 1.0
C      1  0.5069580000000  0.4885410000000  0.6036550000000 1.0
C      1  0.5257000000000  0.4302150000000  0.4899100000000 1.0
C      1  0.4259780000000  0.4656690000000  0.4961810000000 1.0
C      1  0.4187330000000  0.4919120000000  0.5251130000000 1.0
C      1  0.4447580000000  0.5221700000000  0.5321720000000 1.0
C      1  0.5142850000000  0.4544420000000  0.5028190000000 1.0
C      1  0.5627380000000  0.5715370000000  0.4938870000000 1.0
C      1  0.5744590000000  0.4594150000000  0.4651730000000 1.0
C      1  0.5501310000000  0.5577460000000  0.4282460000000 1.0
C      1  0.4821120000000  0.4451730000000  0.4204260000000 1.0
C      1  0.4900170000000  0.4934500000000  0.4085730000000 1.0
C      1  0.4398480000000  0.4744870000000  0.5353760000000 1.0
C      1  0.5493300000000  0.4376970000000  0.4585960000000 1.0
C      1  0.5363450000000  0.4769340000000  0.4179790000000 1.0
C      1  0.4847750000000  0.4658220000000  0.4008970000000 1.0
C      1  0.5809350000000  0.5202980000000  0.4787660000000 1.0
C      1  0.4746290000000  0.5258680000000  0.5161000000000 1.0
C      1  0.5410780000000  0.5192900000000  0.5130130000000 1.0
C      1  0.5075150000000  0.3897860000000  0.5476350000000 1.0
C      1  0.5337000000000  0.4918060000000  0.5319810000000 1.0
C      1  0.4120500000000  0.5166530000000  0.5025480000000 1.0
C      1  0.4885140000000  0.4820580000000  0.4728410000000 1.0
C      1  0.4327420000000  0.4751370000000  0.4564310000000 1.0
C      1  0.5090760000000  0.5764040000000  0.4674220000000 1.0
C      1  0.5813610000000  0.4700950000000  0.5434520000000 1.0
C      1  0.4462090000000  0.4840930000000  0.5660950000000 1.0
C      1  0.4425190000000  0.5922180000000  0.5087360000000 1.0
C      1  0.5046250000000  0.5139240000000  0.5826490000000 1.0
C      1  0.4537020000000  0.4636110000000  0.5865390000000 1.0
C      1  0.4612970000000  0.5617790000000  0.5262320000000 1.0
C      1  0.5492610000000  0.4774560000000  0.5852550000000 1.0
C      1  0.5681600000000  0.4733470000000  0.4898120000000 1.0
C      1  0.5455260000000  0.4901510000000  0.4848300000000 1.0
C      1  0.4782730000000  0.5120980000000  0.4601310000000 1.0
C      1  0.5455560000000  0.5019800000000  0.4547000000000 1.0
C      1  0.4305100000000  0.5303560000000  0.4569770000000 1.0
C      1  0.4504410000000  0.4826870000000  0.4314110000000 1.0
C      1  0.4664600000000  0.5018630000000  0.5467270000000 1.0
C      1  0.5544730000000  0.4261610000000  0.4905940000000 1.0
C      1  0.5323500000000  0.5250680000000  0.5792240000000 1.0
C      1  0.4428980000000  0.4452810000000  0.5187830000000 1.0
C      1  0.5286890000000  0.5567910000000  0.5083780000000 1.0
C      1  0.5845270000000  0.5060580000000  0.5059510000000 1.0
C      1  0.4683210000000  0.5432330000000  0.4667140000000 1.0
C      1  0.5049300000000  0.4146280000000  0.4765840000000 1.0
C      1  0.5841250000000  0.5114180000000  0.4523070000000 1.0
C      1  0.4951920000000  0.5774840000000  0.5402410000000 1.0
C      1  0.4662440000000  0.5044980000000  0.4224870000000 1.0
C      1  0.4822360000000  0.4496800000000  0.5106420000000 1.0
C      1  0.5085000000000  0.5144760000000  0.4615670000000 1.0
C      1  0.4245240000000  0.5504780000000  0.5355290000000 1.0
C      1  0.4578420000000  0.5362740000000  0.5750760000000 1.0
C      1  0.4105190000000  0.5218480000000  0.5355960000000 1.0
C      1  0.5624490000000  0.4896550000000  0.4272460000000 1.0
C      1  0.4507670000000  0.5542320000000  0.5548820000000 1.0
END
