TITL C-2778428-5639-598 0.000780578754999105 125000 -1086.75361333363 0 0 188 (C1) n - 1
REM
REM in /home/nfs/bkarasulu/CARBON/AIRSS/Generating-Clusters/REBO/Only-C1/SD-CG/HFTN-CG
REM
REM
REM
REM
REM
REM ./C.cell (11c1c37f851c82e70ff6c80c92926a4b)
REM
REM compiler GCC version 9.2.1 20190827 (Red Hat 9.2.1-1)
REM options -cpp -mtune=generic -march=x86-64 -g -O0 -fpre-include=/usr/include/finclude/math-vector-fortran.h
REM seed 1030770799 581133722 -265441500 -205920120 212567272 364814230 64274355 344324931 -1554193153 -1874401459 747409201 -2139322075 -1367434428 871579666 753699536 1934471755 -1171019872 1276249565 -667159932 -828627689 228450033 877836592 -622572837 -773077708 1987254241 1766234253 2060172930 -1295365437 1576856230 -198821835 707636774 -1864557883 -1431809326
REM
CELL 1.54180   50.00000   50.00000   50.00000   90.00000   90.00000   90.00000
LATT -1
SFAC C  
C      1  0.5599020000000  0.4173190000000  0.4507250000000 1.0
C      1  0.4308500000000  0.4960890000000  0.4669480000000 1.0
C      1  0.4511220000000  0.5530220000000  0.4542330000000 1.0
C      1  0.4171860000000  0.5365660000000  0.4949590000000 1.0
C      1  0.5810580000000  0.4518230000000  0.4956850000000 1.0
C      1  0.5784230000000  0.4242400000000  0.4785300000000 1.0
C      1  0.4608700000000  0.4127560000000  0.4963440000000 1.0
C      1  0.4327180000000  0.4899490000000  0.5614240000000 1.0
C      1  0.5228530000000  0.5164400000000  0.4238740000000 1.0
C      1  0.5708300000000  0.4960290000000  0.4162810000000 1.0
C      1  0.5382830000000  0.5589590000000  0.5966190000000 1.0
C      1  0.4840530000000  0.4368140000000  0.5358590000000 1.0
C      1  0.6010600000000  0.5009360000000  0.5294410000000 1.0
C      1  0.4783350000000  0.4454420000000  0.4193370000000 1.0
C      1  0.3890470000000  0.5205960000000  0.4901660000000 1.0
C      1  0.5175230000000  0.5350470000000  0.6062380000000 1.0
C      1  0.5296190000000  0.4147700000000  0.4501580000000 1.0
C      1  0.4908280000000  0.4240730000000  0.4505390000000 1.0
C      1  0.4646100000000  0.5068420000000  0.5108260000000 1.0
C      1  0.5354890000000  0.3950970000000  0.4907220000000 1.0
C      1  0.4652370000000  0.4110830000000  0.5291830000000 1.0
C      1  0.4991240000000  0.6186680000000  0.4697280000000 1.0
C      1  0.5797080000000  0.5548510000000  0.4606370000000 1.0
C      1  0.3806150000000  0.5170230000000  0.4616030000000 1.0
C      1  0.3930560000000  0.5230230000000  0.5482290000000 1.0
C      1  0.5917670000000  0.5733150000000  0.4939760000000 1.0
C      1  0.4473580000000  0.4497940000000  0.4150530000000 1.0
C      1  0.4267950000000  0.5332880000000  0.5852350000000 1.0
C      1  0.5119820000000  0.5753580000000  0.5505900000000 1.0
C      1  0.5044350000000  0.4875870000000  0.5927840000000 1.0
C      1  0.4792240000000  0.4445880000000  0.5663560000000 1.0
C      1  0.5138460000000  0.4628790000000  0.4725130000000 1.0
C      1  0.5584980000000  0.4569460000000  0.5567550000000 1.0
C      1  0.5640660000000  0.4654950000000  0.4532810000000 1.0
C      1  0.5767590000000  0.5258990000000  0.4157500000000 1.0
C      1  0.4605960000000  0.4830710000000  0.5927930000000 1.0
C      1  0.4936550000000  0.4821430000000  0.4188260000000 1.0
C      1  0.5278210000000  0.4630330000000  0.5669750000000 1.0
C      1  0.4561270000000  0.5997270000000  0.4680000000000 1.0
C      1  0.5075700000000  0.4873970000000  0.5131860000000 1.0
C      1  0.4701100000000  0.4363480000000  0.4729590000000 1.0
C      1  0.5476190000000  0.4178520000000  0.5392330000000 1.0
C      1  0.5389670000000  0.4917840000000  0.5576040000000 1.0
C      1  0.4992090000000  0.4423380000000  0.4899270000000 1.0
C      1  0.5208710000000  0.4806170000000  0.3913160000000 1.0
C      1  0.5864730000000  0.4462260000000  0.4564970000000 1.0
C      1  0.3940320000000  0.4942050000000  0.5053670000000 1.0
C      1  0.5278320000000  0.4285990000000  0.4128090000000 1.0
C      1  0.4701180000000  0.4605380000000  0.4488350000000 1.0
C      1  0.5866360000000  0.4823290000000  0.4812320000000 1.0
C      1  0.4940520000000  0.4163140000000  0.5686980000000 1.0
C      1  0.4353170000000  0.5416510000000  0.5366060000000 1.0
C      1  0.5754890000000  0.5312350000000  0.5337300000000 1.0
C      1  0.5149400000000  0.4199470000000  0.5874190000000 1.0
C      1  0.4802830000000  0.4130390000000  0.4201140000000 1.0
C      1  0.4853050000000  0.4609370000000  0.6020910000000 1.0
C      1  0.5644090000000  0.4985390000000  0.5705300000000 1.0
C      1  0.4825980000000  0.4581450000000  0.5107840000000 1.0
C      1  0.4756420000000  0.5193060000000  0.4249550000000 1.0
C      1  0.5452290000000  0.6148150000000  0.4983330000000 1.0
C      1  0.4693960000000  0.5793780000000  0.5270740000000 1.0
C      1  0.5469740000000  0.5109280000000  0.5055460000000 1.0
C      1  0.5938000000000  0.5256550000000  0.5070770000000 1.0
C      1  0.5360980000000  0.5373180000000  0.4425210000000 1.0
C      1  0.4427850000000  0.4730540000000  0.4469980000000 1.0
C      1  0.4637760000000  0.5505710000000  0.5426350000000 1.0
C      1  0.4666870000000  0.5967040000000  0.5000330000000 1.0
C      1  0.4896310000000  0.6163660000000  0.4970370000000 1.0
C      1  0.4507300000000  0.5398140000000  0.4254020000000 1.0
C      1  0.4654920000000  0.4947360000000  0.4057730000000 1.0
C      1  0.4855110000000  0.3809780000000  0.4811410000000 1.0
C      1  0.4137330000000  0.5642530000000  0.5232790000000 1.0
C      1  0.5214380000000  0.5708830000000  0.5000750000000 1.0
C      1  0.5078610000000  0.6171880000000  0.5174830000000 1.0
C      1  0.4149470000000  0.5102620000000  0.5697360000000 1.0
C      1  0.4121600000000  0.5487270000000  0.5602250000000 1.0
C      1  0.5067380000000  0.4604690000000  0.5425650000000 1.0
C      1  0.5287350000000  0.5466850000000  0.5431400000000 1.0
C      1  0.4117550000000  0.4595480000000  0.4482310000000 1.0
C      1  0.5385390000000  0.4047460000000  0.5854340000000 1.0
C      1  0.5054980000000  0.3880180000000  0.5021470000000 1.0
C      1  0.4526040000000  0.5875080000000  0.5527730000000 1.0
C      1  0.5533670000000  0.4049780000000  0.5623630000000 1.0
C      1  0.6065910000000  0.5485640000000  0.4894720000000 1.0
C      1  0.5003410000000  0.5315960000000  0.5766460000000 1.0
C      1  0.5766470000000  0.5796130000000  0.5176750000000 1.0
C      1  0.5919420000000  0.5064710000000  0.5598040000000 1.0
C      1  0.4349720000000  0.4265270000000  0.5309600000000 1.0
C      1  0.5307390000000  0.4632470000000  0.5211310000000 1.0
C      1  0.5548770000000  0.5425890000000  0.4156730000000 1.0
C      1  0.5391790000000  0.4983830000000  0.4554980000000 1.0
C      1  0.5590330000000  0.4719250000000  0.5111560000000 1.0
C      1  0.4578570000000  0.5670630000000  0.4909280000000 1.0
C      1  0.4405400000000  0.4142180000000  0.4475010000000 1.0
C      1  0.5020170000000  0.3808860000000  0.5323700000000 1.0
C      1  0.4108230000000  0.4880290000000  0.4290670000000 1.0
C      1  0.5273060000000  0.5674320000000  0.4402170000000 1.0
C      1  0.4243550000000  0.4646580000000  0.5482270000000 1.0
C      1  0.5263430000000  0.5563020000000  0.4088840000000 1.0
C      1  0.4649970000000  0.5113020000000  0.6059410000000 1.0
C      1  0.5166170000000  0.4498630000000  0.5945810000000 1.0
C      1  0.4873000000000  0.4838190000000  0.4663890000000 1.0
C      1  0.4643290000000  0.4969430000000  0.5616040000000 1.0
C      1  0.5001830000000  0.5346680000000  0.4060980000000 1.0
C      1  0.5979850000000  0.4698720000000  0.5197630000000 1.0
C      1  0.4407890000000  0.4810090000000  0.4140940000000 1.0
C      1  0.4899160000000  0.3907530000000  0.4495830000000 1.0
C      1  0.4693110000000  0.4817910000000  0.4944410000000 1.0
C      1  0.4406130000000  0.5220480000000  0.4611100000000 1.0
C      1  0.4762170000000  0.5585230000000  0.4126490000000 1.0
C      1  0.5444270000000  0.5829640000000  0.5463900000000 1.0
C      1  0.5296200000000  0.4923870000000  0.4938680000000 1.0
C      1  0.4713720000000  0.5187920000000  0.5416860000000 1.0
C      1  0.5675180000000  0.6054900000000  0.5196370000000 1.0
C      1  0.5294070000000  0.5936350000000  0.5196510000000 1.0
C      1  0.4738200000000  0.5141470000000  0.4570380000000 1.0
C      1  0.5082960000000  0.4534010000000  0.4077520000000 1.0
C      1  0.4353570000000  0.5132450000000  0.5253840000000 1.0
C      1  0.5588940000000  0.5563560000000  0.5310110000000 1.0
C      1  0.6137150000000  0.4746440000000  0.4612970000000 1.0
C      1  0.5261970000000  0.5804210000000  0.4705610000000 1.0
C      1  0.4795560000000  0.5570680000000  0.4682020000000 1.0
C      1  0.4987590000000  0.5740930000000  0.4534660000000 1.0
C      1  0.4311670000000  0.4366940000000  0.4350450000000 1.0
C      1  0.5360070000000  0.4678430000000  0.4395960000000 1.0
C      1  0.5600230000000  0.5322430000000  0.5945100000000 1.0
C      1  0.5074910000000  0.4951780000000  0.4430310000000 1.0
C      1  0.4560920000000  0.4499890000000  0.5875540000000 1.0
C      1  0.5402710000000  0.4896140000000  0.4158490000000 1.0
C      1  0.5776200000000  0.5829740000000  0.4690960000000 1.0
C      1  0.3932380000000  0.5380040000000  0.5193780000000 1.0
C      1  0.4956310000000  0.5035860000000  0.3919350000000 1.0
C      1  0.5893840000000  0.4827490000000  0.4407190000000 1.0
C      1  0.4875130000000  0.3987940000000  0.5474950000000 1.0
C      1  0.5157300000000  0.4200650000000  0.5006870000000 1.0
C      1  0.5287670000000  0.5071180000000  0.5930180000000 1.0
C      1  0.4827140000000  0.5838130000000  0.4278720000000 1.0
C      1  0.4605030000000  0.3983310000000  0.4656550000000 1.0
C      1  0.4731480000000  0.5468430000000  0.5741880000000 1.0
C      1  0.4374230000000  0.4399070000000  0.5622380000000 1.0
C      1  0.4367750000000  0.4432880000000  0.4746810000000 1.0
C      1  0.5402020000000  0.4710830000000  0.6060470000000 1.0
C      1  0.3996070000000  0.4536920000000  0.5284260000000 1.0
C      1  0.5394280000000  0.5297250000000  0.5696600000000 1.0
C      1  0.5528880000000  0.5985890000000  0.4699700000000 1.0
C      1  0.4895120000000  0.4770860000000  0.5659660000000 1.0
C      1  0.5114950000000  0.4014050000000  0.4251630000000 1.0
C      1  0.6073680000000  0.5388800000000  0.4597270000000 1.0
C      1  0.4405690000000  0.4735510000000  0.4868840000000 1.0
C      1  0.3923210000000  0.4668020000000  0.5020580000000 1.0
C      1  0.5089680000000  0.5394710000000  0.5031420000000 1.0
C      1  0.4036380000000  0.4499450000000  0.4787560000000 1.0
C      1  0.5421390000000  0.5393140000000  0.4944780000000 1.0
C      1  0.5687280000000  0.4992910000000  0.5234420000000 1.0
C      1  0.4296940000000  0.4637730000000  0.5158580000000 1.0
C      1  0.5158920000000  0.4439570000000  0.4476350000000 1.0
C      1  0.4476570000000  0.5381440000000  0.4969320000000 1.0
C      1  0.4197830000000  0.4284950000000  0.5003970000000 1.0
C      1  0.5616620000000  0.3985150000000  0.4859450000000 1.0
C      1  0.5322750000000  0.4321820000000  0.5227550000000 1.0
C      1  0.4239630000000  0.5699210000000  0.4935890000000 1.0
C      1  0.4090430000000  0.5024520000000  0.5284410000000 1.0
C      1  0.5898710000000  0.5166640000000  0.4444820000000 1.0
C      1  0.5589450000000  0.5644600000000  0.5709950000000 1.0
C      1  0.6166670000000  0.4691640000000  0.4918060000000 1.0
C      1  0.5592240000000  0.4991140000000  0.6029980000000 1.0
C      1  0.3875170000000  0.5058920000000  0.4407930000000 1.0
C      1  0.5452230000000  0.4676910000000  0.4799670000000 1.0
C      1  0.5252810000000  0.5261810000000  0.4693580000000 1.0
C      1  0.4813830000000  0.5782030000000  0.5653240000000 1.0
C      1  0.4260840000000  0.5776190000000  0.5514680000000 1.0
C      1  0.4271270000000  0.5174000000000  0.4228850000000 1.0
C      1  0.5542870000000  0.4292000000000  0.4223760000000 1.0
C      1  0.5788070000000  0.4583850000000  0.5431570000000 1.0
C      1  0.4935350000000  0.5124010000000  0.6107630000000 1.0
C      1  0.4106130000000  0.5826360000000  0.4672770000000 1.0
C      1  0.5083660000000  0.5643340000000  0.5812830000000 1.0
C      1  0.4955150000000  0.5158890000000  0.5191690000000 1.0
C      1  0.5713380000000  0.5316860000000  0.4820080000000 1.0
C      1  0.5784350000000  0.5370170000000  0.5662360000000 1.0
C      1  0.5160460000000  0.5158330000000  0.5513860000000 1.0
C      1  0.5272300000000  0.6203940000000  0.4699020000000 1.0
C      1  0.4549720000000  0.4439910000000  0.5096240000000 1.0
C      1  0.5685810000000  0.5034510000000  0.4675460000000 1.0
C      1  0.4782650000000  0.6079700000000  0.4507750000000 1.0
C      1  0.4938120000000  0.5310630000000  0.4746920000000 1.0
C      1  0.4380980000000  0.5804170000000  0.4577470000000 1.0
C      1  0.4534040000000  0.5333990000000  0.5926780000000 1.0
END
