TITL C-2778422-5617-1225 1.7419764378633e-05 125000 -1117.27609773946 0 0 193 (C1) n - 1
REM
REM in /home/nfs/bkarasulu/CARBON/AIRSS/Generating-Clusters/REBO/Only-C1/SD-CG/HFTN-CG
REM
REM
REM
REM
REM
REM ./C.cell (11c1c37f851c82e70ff6c80c92926a4b)
REM
REM compiler GCC version 9.2.1 20190827 (Red Hat 9.2.1-1)
REM options -cpp -mtune=generic -march=x86-64 -g -O0 -fpre-include=/usr/include/finclude/math-vector-fortran.h
REM seed -1893895413 1496634357 -1847443408 385156058 1547296531 -824865523 -1706375172 954173236 65973024 1750566240 1286785381 426846852 1185734790 -1116688736 -1287181829 -960491608 1543760128 980824813 779787053 -784208285 1019808526 -1782689242 311992106 -391516980 -1088831066 -1980120254 1448260582 1931895866 2135714053 1278200154 1929389372 516495156 -1392074104
REM
CELL 1.54180   50.00000   50.00000   50.00000   90.00000   90.00000   90.00000
LATT -1
SFAC C  
C      1  0.5474410000000  0.5219970000000  0.4099680000000 1.0
C      1  0.5436500000000  0.4152520000000  0.5297320000000 1.0
C      1  0.5816050000000  0.4517560000000  0.4115910000000 1.0
C      1  0.3888880000000  0.4828710000000  0.5580170000000 1.0
C      1  0.4793470000000  0.4852980000000  0.5365090000000 1.0
C      1  0.5076250000000  0.4326890000000  0.5738730000000 1.0
C      1  0.5774710000000  0.5666890000000  0.4928760000000 1.0
C      1  0.4818750000000  0.5965240000000  0.5511040000000 1.0
C      1  0.5072100000000  0.3795140000000  0.4737940000000 1.0
C      1  0.5431910000000  0.5804410000000  0.5028700000000 1.0
C      1  0.4979100000000  0.5839780000000  0.4271920000000 1.0
C      1  0.6030860000000  0.4738500000000  0.4845750000000 1.0
C      1  0.5959980000000  0.5372060000000  0.5422110000000 1.0
C      1  0.5984450000000  0.4509380000000  0.5339980000000 1.0
C      1  0.5270670000000  0.4156440000000  0.5023070000000 1.0
C      1  0.4275400000000  0.4843780000000  0.5482550000000 1.0
C      1  0.5084510000000  0.4727620000000  0.6029140000000 1.0
C      1  0.4959950000000  0.4244180000000  0.5031230000000 1.0
C      1  0.4263920000000  0.5735570000000  0.5019610000000 1.0
C      1  0.4746660000000  0.3986060000000  0.5093880000000 1.0
C      1  0.6008080000000  0.4676080000000  0.4270130000000 1.0
C      1  0.4607680000000  0.4201620000000  0.5729120000000 1.0
C      1  0.5225430000000  0.5420960000000  0.4845950000000 1.0
C      1  0.4893330000000  0.4280390000000  0.4705870000000 1.0
C      1  0.5593630000000  0.5892330000000  0.4743980000000 1.0
C      1  0.4660520000000  0.6005390000000  0.5211840000000 1.0
C      1  0.4570390000000  0.4429510000000  0.4266680000000 1.0
C      1  0.4213170000000  0.5283140000000  0.4761490000000 1.0
C      1  0.4559460000000  0.5000760000000  0.4324540000000 1.0
C      1  0.4555790000000  0.4693560000000  0.5531410000000 1.0
C      1  0.5845820000000  0.4801220000000  0.5097930000000 1.0
C      1  0.4992890000000  0.4172650000000  0.4211030000000 1.0
C      1  0.5104030000000  0.5437880000000  0.5326810000000 1.0
C      1  0.5347110000000  0.5901750000000  0.5555190000000 1.0
C      1  0.5902050000000  0.4685470000000  0.4583690000000 1.0
C      1  0.4049790000000  0.5468640000000  0.5383890000000 1.0
C      1  0.5130870000000  0.5691880000000  0.4950450000000 1.0
C      1  0.4710960000000  0.4765150000000  0.4430620000000 1.0
C      1  0.4911850000000  0.4494340000000  0.5899890000000 1.0
C      1  0.4013020000000  0.4631840000000  0.4989210000000 1.0
C      1  0.4688070000000  0.4944240000000  0.5809950000000 1.0
C      1  0.5812380000000  0.5264280000000  0.5710130000000 1.0
C      1  0.4697370000000  0.5532730000000  0.4793480000000 1.0
C      1  0.6000340000000  0.5225540000000  0.4796290000000 1.0
C      1  0.5078620000000  0.5285140000000  0.6079760000000 1.0
C      1  0.4702710000000  0.5403180000000  0.4313120000000 1.0
C      1  0.4973930000000  0.4849570000000  0.4590070000000 1.0
C      1  0.4060720000000  0.4920030000000  0.4380560000000 1.0
C      1  0.4052530000000  0.5567570000000  0.4731300000000 1.0
C      1  0.4843510000000  0.6028470000000  0.4465740000000 1.0
C      1  0.5462450000000  0.4230110000000  0.4583320000000 1.0
C      1  0.6010070000000  0.5025740000000  0.5238150000000 1.0
C      1  0.5371640000000  0.5361560000000  0.5525570000000 1.0
C      1  0.3925680000000  0.4955010000000  0.4927370000000 1.0
C      1  0.5684090000000  0.4713460000000  0.5784160000000 1.0
C      1  0.5566380000000  0.4692770000000  0.4081480000000 1.0
C      1  0.4723100000000  0.3928890000000  0.4605020000000 1.0
C      1  0.4404450000000  0.4863300000000  0.5012740000000 1.0
C      1  0.4258670000000  0.4562440000000  0.5764750000000 1.0
C      1  0.4552210000000  0.5085670000000  0.4830720000000 1.0
C      1  0.4738260000000  0.5278810000000  0.6077530000000 1.0
C      1  0.4287590000000  0.5499060000000  0.5849040000000 1.0
C      1  0.5773410000000  0.5559100000000  0.5222260000000 1.0
C      1  0.4131130000000  0.4494330000000  0.4718050000000 1.0
C      1  0.5889440000000  0.4246250000000  0.4866590000000 1.0
C      1  0.5613870000000  0.4985950000000  0.5274380000000 1.0
C      1  0.5078960000000  0.3861220000000  0.5497620000000 1.0
C      1  0.4366540000000  0.5269230000000  0.5057600000000 1.0
C      1  0.5796290000000  0.4820610000000  0.5504270000000 1.0
C      1  0.4654180000000  0.5210120000000  0.5625980000000 1.0
C      1  0.4849210000000  0.5050610000000  0.4816170000000 1.0
C      1  0.4942440000000  0.5812630000000  0.5166460000000 1.0
C      1  0.4675440000000  0.4614690000000  0.4712070000000 1.0
C      1  0.3983640000000  0.4753490000000  0.5306740000000 1.0
C      1  0.4238690000000  0.5542730000000  0.4457780000000 1.0
C      1  0.5401950000000  0.4938940000000  0.4729700000000 1.0
C      1  0.4927780000000  0.4509710000000  0.5211350000000 1.0
C      1  0.4994740000000  0.3949370000000  0.4440920000000 1.0
C      1  0.4417220000000  0.5547520000000  0.5247450000000 1.0
C      1  0.5749770000000  0.5525440000000  0.4403650000000 1.0
C      1  0.5688380000000  0.5460190000000  0.4722180000000 1.0
C      1  0.5241010000000  0.4646730000000  0.4803790000000 1.0
C      1  0.5918520000000  0.5241890000000  0.4486700000000 1.0
C      1  0.5134330000000  0.4686260000000  0.3959440000000 1.0
C      1  0.5603220000000  0.4956670000000  0.4223120000000 1.0
C      1  0.5807970000000  0.4439250000000  0.5622990000000 1.0
C      1  0.5668010000000  0.5142390000000  0.4796730000000 1.0
C      1  0.4594730000000  0.4594830000000  0.4023110000000 1.0
C      1  0.4255550000000  0.5623280000000  0.5536900000000 1.0
C      1  0.5356250000000  0.5000590000000  0.4411750000000 1.0
C      1  0.6192730000000  0.4974880000000  0.4819830000000 1.0
C      1  0.4031610000000  0.5487660000000  0.5061270000000 1.0
C      1  0.5586550000000  0.5038410000000  0.5829050000000 1.0
C      1  0.5001330000000  0.6150160000000  0.4696610000000 1.0
C      1  0.4011150000000  0.5193590000000  0.5486410000000 1.0
C      1  0.4925610000000  0.4624300000000  0.4911930000000 1.0
C      1  0.5292790000000  0.5726010000000  0.4196460000000 1.0
C      1  0.5517280000000  0.5626080000000  0.5654100000000 1.0
C      1  0.4421160000000  0.4545010000000  0.5113610000000 1.0
C      1  0.4994930000000  0.4833410000000  0.5707350000000 1.0
C      1  0.5661930000000  0.4053470000000  0.4731700000000 1.0
C      1  0.5062330000000  0.5480590000000  0.4122920000000 1.0
C      1  0.5011040000000  0.5685680000000  0.5536840000000 1.0
C      1  0.5334540000000  0.4825490000000  0.5303110000000 1.0
C      1  0.4383170000000  0.5943130000000  0.5203040000000 1.0
C      1  0.4581930000000  0.5920860000000  0.4655570000000 1.0
C      1  0.3977880000000  0.5091080000000  0.4625010000000 1.0
C      1  0.5550040000000  0.5375040000000  0.5881370000000 1.0
C      1  0.4567650000000  0.4179150000000  0.4656870000000 1.0
C      1  0.4471340000000  0.5291180000000  0.5894500000000 1.0
C      1  0.5083910000000  0.5260080000000  0.5680860000000 1.0
C      1  0.4745060000000  0.5382040000000  0.5014030000000 1.0
C      1  0.5415010000000  0.5231180000000  0.5000720000000 1.0
C      1  0.4127200000000  0.5004170000000  0.5743910000000 1.0
C      1  0.4698660000000  0.5764310000000  0.5758430000000 1.0
C      1  0.4472240000000  0.3986530000000  0.5297620000000 1.0
C      1  0.4781280000000  0.3792440000000  0.4866590000000 1.0
C      1  0.5262070000000  0.5469020000000  0.5970500000000 1.0
C      1  0.5249850000000  0.3841140000000  0.4962590000000 1.0
C      1  0.5096370000000  0.4991710000000  0.4243140000000 1.0
C      1  0.5304590000000  0.4462370000000  0.5659740000000 1.0
C      1  0.5403580000000  0.5481160000000  0.4594820000000 1.0
C      1  0.4649450000000  0.4489510000000  0.5787680000000 1.0
C      1  0.5203030000000  0.4645820000000  0.4485400000000 1.0
C      1  0.4537980000000  0.5470340000000  0.4555950000000 1.0
C      1  0.5155360000000  0.5670400000000  0.5814960000000 1.0
C      1  0.5565760000000  0.5300050000000  0.5275060000000 1.0
C      1  0.5579360000000  0.4370610000000  0.4311230000000 1.0
C      1  0.5747890000000  0.4193370000000  0.5395320000000 1.0
C      1  0.5248660000000  0.5789510000000  0.4583580000000 1.0
C      1  0.4902660000000  0.5195480000000  0.4385260000000 1.0
C      1  0.4974280000000  0.5132190000000  0.5400760000000 1.0
C      1  0.5322600000000  0.5679640000000  0.5298120000000 1.0
C      1  0.4729020000000  0.4193350000000  0.5351360000000 1.0
C      1  0.4923410000000  0.4714150000000  0.4217180000000 1.0
C      1  0.4049510000000  0.4224800000000  0.4690650000000 1.0
C      1  0.5863150000000  0.4960170000000  0.4380850000000 1.0
C      1  0.5368900000000  0.4704610000000  0.5843220000000 1.0
C      1  0.5919310000000  0.4147480000000  0.5183470000000 1.0
C      1  0.4217490000000  0.4374280000000  0.5544010000000 1.0
C      1  0.5229410000000  0.4323550000000  0.4749870000000 1.0
C      1  0.5752100000000  0.4418250000000  0.4603990000000 1.0
C      1  0.4195510000000  0.5055400000000  0.4172950000000 1.0
C      1  0.4080400000000  0.4658760000000  0.4455600000000 1.0
C      1  0.4440990000000  0.5158490000000  0.4540550000000 1.0
C      1  0.4416310000000  0.5775340000000  0.5778530000000 1.0
C      1  0.5116070000000  0.6024050000000  0.5351540000000 1.0
C      1  0.4378200000000  0.4815480000000  0.5864740000000 1.0
C      1  0.5658310000000  0.4592890000000  0.5290460000000 1.0
C      1  0.5251990000000  0.5024450000000  0.5822680000000 1.0
C      1  0.5146860000000  0.4954880000000  0.3848750000000 1.0
C      1  0.4902240000000  0.4442760000000  0.4021940000000 1.0
C      1  0.4876570000000  0.5780020000000  0.4775880000000 1.0
C      1  0.5689210000000  0.5779850000000  0.5417000000000 1.0
C      1  0.5001110000000  0.5294420000000  0.4670920000000 1.0
C      1  0.4678040000000  0.5128980000000  0.4025970000000 1.0
C      1  0.4759400000000  0.6064020000000  0.4915190000000 1.0
C      1  0.4907700000000  0.4101940000000  0.5602250000000 1.0
C      1  0.5264920000000  0.3869510000000  0.5295600000000 1.0
C      1  0.5040760000000  0.5558670000000  0.4457330000000 1.0
C      1  0.4254330000000  0.5348440000000  0.4195420000000 1.0
C      1  0.4824110000000  0.4343030000000  0.4398950000000 1.0
C      1  0.4739200000000  0.5615630000000  0.5335550000000 1.0
C      1  0.6037780000000  0.5286000000000  0.5099080000000 1.0
C      1  0.6007590000000  0.5056500000000  0.5553360000000 1.0
C      1  0.4273430000000  0.5020690000000  0.5240920000000 1.0
C      1  0.4709120000000  0.5288090000000  0.5319080000000 1.0
C      1  0.4433810000000  0.4526770000000  0.4802280000000 1.0
C      1  0.4638540000000  0.4488560000000  0.5308620000000 1.0
C      1  0.4387470000000  0.4145660000000  0.5552600000000 1.0
C      1  0.3984930000000  0.5160050000000  0.5146390000000 1.0
C      1  0.4452030000000  0.4878300000000  0.4032930000000 1.0
C      1  0.5436990000000  0.4437990000000  0.5415590000000 1.0
C      1  0.6296000000000  0.4433180000000  0.5230580000000 1.0
C      1  0.5508940000000  0.6027690000000  0.5279800000000 1.0
C      1  0.4324470000000  0.5776750000000  0.4697110000000 1.0
C      1  0.4153940000000  0.4482690000000  0.5265700000000 1.0
C      1  0.6061960000000  0.4476570000000  0.5010200000000 1.0
C      1  0.4767540000000  0.5648540000000  0.4094720000000 1.0
C      1  0.5257110000000  0.4967130000000  0.5039370000000 1.0
C      1  0.4215440000000  0.4883510000000  0.4757660000000 1.0
C      1  0.5458050000000  0.5447990000000  0.4260780000000 1.0
C      1  0.5298180000000  0.6071320000000  0.4769210000000 1.0
C      1  0.5090120000000  0.4700510000000  0.5421370000000 1.0
C      1  0.5548950000000  0.5802860000000  0.4415620000000 1.0
C      1  0.4523480000000  0.5419280000000  0.4032320000000 1.0
C      1  0.4953380000000  0.4908400000000  0.5070030000000 1.0
C      1  0.4403410000000  0.4309600000000  0.4468450000000 1.0
C      1  0.5307930000000  0.4548350000000  0.4217580000000 1.0
C      1  0.4911440000000  0.4988710000000  0.6064460000000 1.0
C      1  0.4824440000000  0.5450210000000  0.5797160000000 1.0
C      1  0.5000050000000  0.5188820000000  0.3999360000000 1.0
C      1  0.5273320000000  0.6163540000000  0.5083170000000 1.0
END
