TITL C-2778424-3986-613 0.006258629598384 125000 -781.223913808177 0 0 133 (C1) n - 1
REM
REM in /home/nfs/bkarasulu/CARBON/AIRSS/Generating-Clusters/REBO/Only-C1/SD-CG/HFTN-CG
REM
REM
REM
REM
REM
REM ./C.cell (11c1c37f851c82e70ff6c80c92926a4b)
REM
REM compiler GCC version 9.2.1 20190827 (Red Hat 9.2.1-1)
REM options -cpp -mtune=generic -march=x86-64 -g -O0 -fpre-include=/usr/include/finclude/math-vector-fortran.h
REM seed 547635935 -1941191893 1656648380 -1253492719 416294362 1170599485 -1638384353 -1083351715 1483386302 761779465 789925944 -447400664 -1824682672 -765609545 -2010323561 -324042833 -1022543633 -1758498982 489199150 1335695414 1737402169 -36071038 -1454144171 499675606 1609808038 -984505125 -199961726 5711091 604853807 -434742184 739484974 1155390222 1668944909
REM
CELL 1.54180   50.00000   50.00000   50.00000   90.00000   90.00000   90.00000
LATT -1
SFAC C  
C      1  0.5150970000000  0.4578220000000  0.4025940000000 1.0
C      1  0.4796910000000  0.4383750000000  0.5839370000000 1.0
C      1  0.5333640000000  0.5884010000000  0.5348790000000 1.0
C      1  0.5416060000000  0.5744020000000  0.4461700000000 1.0
C      1  0.5309900000000  0.5732410000000  0.5598320000000 1.0
C      1  0.5738130000000  0.5016590000000  0.4391200000000 1.0
C      1  0.4960210000000  0.4311590000000  0.5132120000000 1.0
C      1  0.5819490000000  0.5125100000000  0.5188050000000 1.0
C      1  0.4309610000000  0.5409760000000  0.4851820000000 1.0
C      1  0.5281230000000  0.5844970000000  0.4822330000000 1.0
C      1  0.5175660000000  0.5550860000000  0.4846570000000 1.0
C      1  0.4159400000000  0.5158420000000  0.5451320000000 1.0
C      1  0.4682770000000  0.5238870000000  0.4547670000000 1.0
C      1  0.4959580000000  0.5166590000000  0.5657890000000 1.0
C      1  0.4225700000000  0.4726750000000  0.4539280000000 1.0
C      1  0.5770090000000  0.4590570000000  0.5205230000000 1.0
C      1  0.4233080000000  0.4078430000000  0.4401410000000 1.0
C      1  0.4400020000000  0.4278400000000  0.4478580000000 1.0
C      1  0.4839480000000  0.4527350000000  0.4165750000000 1.0
C      1  0.4997150000000  0.4245750000000  0.5692000000000 1.0
C      1  0.5579850000000  0.4323690000000  0.4835590000000 1.0
C      1  0.5156420000000  0.5426040000000  0.5552370000000 1.0
C      1  0.5669170000000  0.5017920000000  0.5754430000000 1.0
C      1  0.4484870000000  0.5577060000000  0.5040040000000 1.0
C      1  0.4128280000000  0.5082590000000  0.5176990000000 1.0
C      1  0.5372480000000  0.5218640000000  0.5412530000000 1.0
C      1  0.4378250000000  0.4551690000000  0.4365450000000 1.0
C      1  0.5019610000000  0.4359150000000  0.4847970000000 1.0
C      1  0.5782790000000  0.5475370000000  0.4644040000000 1.0
C      1  0.5716330000000  0.5610560000000  0.5346020000000 1.0
C      1  0.4594930000000  0.4964740000000  0.4136210000000 1.0
C      1  0.5467960000000  0.4954030000000  0.5489880000000 1.0
C      1  0.5514700000000  0.5017260000000  0.5097860000000 1.0
C      1  0.5107320000000  0.4293770000000  0.5372620000000 1.0
C      1  0.5000230000000  0.5665300000000  0.5364120000000 1.0
C      1  0.5564410000000  0.5851060000000  0.4925000000000 1.0
C      1  0.4597760000000  0.4655790000000  0.4204620000000 1.0
C      1  0.4581900000000  0.5248170000000  0.5745090000000 1.0
C      1  0.4647100000000  0.4258210000000  0.5202250000000 1.0
C      1  0.5413670000000  0.4667450000000  0.4183980000000 1.0
C      1  0.4799920000000  0.4451010000000  0.4680910000000 1.0
C      1  0.5022890000000  0.4815370000000  0.3863800000000 1.0
C      1  0.4362880000000  0.4817050000000  0.5357930000000 1.0
C      1  0.5189240000000  0.4734920000000  0.4594780000000 1.0
C      1  0.5276860000000  0.4147660000000  0.5808720000000 1.0
C      1  0.5645890000000  0.5724360000000  0.4661870000000 1.0
C      1  0.5887290000000  0.4988040000000  0.4882350000000 1.0
C      1  0.4680250000000  0.4100140000000  0.4929190000000 1.0
C      1  0.5202150000000  0.4030050000000  0.4986840000000 1.0
C      1  0.5655950000000  0.5037960000000  0.4670210000000 1.0
C      1  0.4639540000000  0.5797020000000  0.4865440000000 1.0
C      1  0.5277680000000  0.4554070000000  0.5114700000000 1.0
C      1  0.5365030000000  0.4317110000000  0.5560360000000 1.0
C      1  0.5719240000000  0.4720790000000  0.5491620000000 1.0
C      1  0.5687470000000  0.4509750000000  0.4581330000000 1.0
C      1  0.4837800000000  0.5468800000000  0.4338500000000 1.0
C      1  0.4526050000000  0.5102120000000  0.5306820000000 1.0
C      1  0.5225080000000  0.4806020000000  0.5653080000000 1.0
C      1  0.5227560000000  0.5112740000000  0.4966470000000 1.0
C      1  0.5273800000000  0.5333810000000  0.5922650000000 1.0
C      1  0.5211520000000  0.5486150000000  0.5163030000000 1.0
C      1  0.4853230000000  0.4703870000000  0.4548290000000 1.0
C      1  0.5202650000000  0.5951940000000  0.4534880000000 1.0
C      1  0.4415410000000  0.5069970000000  0.4989820000000 1.0
C      1  0.5516140000000  0.5364280000000  0.5073420000000 1.0
C      1  0.5090830000000  0.5191000000000  0.5238380000000 1.0
C      1  0.4170900000000  0.4341150000000  0.5350450000000 1.0
C      1  0.4475280000000  0.4757510000000  0.5649220000000 1.0
C      1  0.4631660000000  0.5305170000000  0.4124780000000 1.0
C      1  0.4939600000000  0.3973780000000  0.4919190000000 1.0
C      1  0.5291010000000  0.4423030000000  0.4684050000000 1.0
C      1  0.5580430000000  0.5821660000000  0.5207840000000 1.0
C      1  0.5499170000000  0.4724550000000  0.5160060000000 1.0
C      1  0.5287930000000  0.4266210000000  0.4397690000000 1.0
C      1  0.4365720000000  0.5063940000000  0.5671850000000 1.0
C      1  0.5258180000000  0.5358620000000  0.4074300000000 1.0
C      1  0.4768930000000  0.5363170000000  0.5483110000000 1.0
C      1  0.5069330000000  0.5033420000000  0.4322920000000 1.0
C      1  0.4735330000000  0.4952260000000  0.5002350000000 1.0
C      1  0.4437280000000  0.4822140000000  0.4774080000000 1.0
C      1  0.5571590000000  0.5440800000000  0.5522790000000 1.0
C      1  0.5447640000000  0.5231440000000  0.4767360000000 1.0
C      1  0.4746320000000  0.5413950000000  0.5190850000000 1.0
C      1  0.4609340000000  0.4904470000000  0.4531300000000 1.0
C      1  0.4744420000000  0.4646660000000  0.5158550000000 1.0
C      1  0.5334500000000  0.5441880000000  0.4565340000000 1.0
C      1  0.5029620000000  0.4934540000000  0.4822250000000 1.0
C      1  0.5457070000000  0.4578790000000  0.5614240000000 1.0
C      1  0.4589100000000  0.4255510000000  0.4690720000000 1.0
C      1  0.5886700000000  0.4697930000000  0.4749470000000 1.0
C      1  0.4764540000000  0.4490940000000  0.5430420000000 1.0
C      1  0.4119400000000  0.4594560000000  0.5274200000000 1.0
C      1  0.4915720000000  0.5947830000000  0.4947940000000 1.0
C      1  0.5354080000000  0.4911700000000  0.4355230000000 1.0
C      1  0.4503640000000  0.5533590000000  0.4345910000000 1.0
C      1  0.4759680000000  0.4894250000000  0.5706100000000 1.0
C      1  0.4471700000000  0.5645100000000  0.5363550000000 1.0
C      1  0.4387320000000  0.5094840000000  0.4355540000000 1.0
C      1  0.4375210000000  0.5383300000000  0.5434690000000 1.0
C      1  0.4119980000000  0.4803150000000  0.5020310000000 1.0
C      1  0.4878860000000  0.5485700000000  0.4941500000000 1.0
C      1  0.4441790000000  0.4677600000000  0.5057710000000 1.0
C      1  0.5521450000000  0.4461770000000  0.4355140000000 1.0
C      1  0.5725850000000  0.5330170000000  0.4407000000000 1.0
C      1  0.4900580000000  0.5022660000000  0.4052370000000 1.0
C      1  0.5077670000000  0.4314050000000  0.4215410000000 1.0
C      1  0.4798290000000  0.5174580000000  0.5983470000000 1.0
C      1  0.4847000000000  0.5581620000000  0.5740570000000 1.0
C      1  0.5037290000000  0.4696230000000  0.5057870000000 1.0
C      1  0.4426310000000  0.4279910000000  0.5428120000000 1.0
C      1  0.5348410000000  0.5055850000000  0.5853810000000 1.0
C      1  0.5413150000000  0.5237260000000  0.4318870000000 1.0
C      1  0.5857820000000  0.5028650000000  0.5476580000000 1.0
C      1  0.5810490000000  0.5321280000000  0.4906400000000 1.0
C      1  0.4921350000000  0.5957690000000  0.4636230000000 1.0
C      1  0.4541500000000  0.4452290000000  0.5671550000000 1.0
C      1  0.4662040000000  0.5777880000000  0.4523360000000 1.0
C      1  0.5081020000000  0.5910450000000  0.5165000000000 1.0
C      1  0.5455010000000  0.5529550000000  0.5795410000000 1.0
C      1  0.4953910000000  0.5101520000000  0.4559790000000 1.0
C      1  0.4846260000000  0.4568810000000  0.6055270000000 1.0
C      1  0.4678930000000  0.5494460000000  0.4702560000000 1.0
C      1  0.4990880000000  0.5426840000000  0.5955640000000 1.0
C      1  0.4823650000000  0.4838750000000  0.6016560000000 1.0
C      1  0.4856480000000  0.5017480000000  0.5303250000000 1.0
C      1  0.4104320000000  0.5183410000000  0.4711950000000 1.0
C      1  0.4955840000000  0.4764940000000  0.5493990000000 1.0
C      1  0.4052820000000  0.4905790000000  0.4731910000000 1.0
C      1  0.4975150000000  0.5333800000000  0.4076310000000 1.0
C      1  0.5352220000000  0.4268320000000  0.5046690000000 1.0
C      1  0.5826630000000  0.4482450000000  0.4953220000000 1.0
C      1  0.4704040000000  0.5753610000000  0.5496730000000 1.0
C      1  0.4305290000000  0.5365910000000  0.4513310000000 1.0
END
