TITL C-2778427-5640-73 0.00818211460584555 125000 -860.412711757152 0 0 149 (C1) n - 1
REM
REM in /home/nfs/bkarasulu/CARBON/AIRSS/Generating-Clusters/REBO/Only-C1/SD-CG/HFTN-CG
REM
REM
REM
REM
REM
REM ./C.cell (11c1c37f851c82e70ff6c80c92926a4b)
REM
REM compiler GCC version 9.2.1 20190827 (Red Hat 9.2.1-1)
REM options -cpp -mtune=generic -march=x86-64 -g -O0 -fpre-include=/usr/include/finclude/math-vector-fortran.h
REM seed -1465169702 1924101811 704991718 -1767259299 -1256098366 -1131534784 -1205870271 462618894 -1563256225 -1111468777 -1372844057 628531289 184277240 1414029805 1246735660 -1916206113 -1319168855 -706681104 1901329581 -1849465475 1906703340 -1946264963 618665695 -873105305 -1349456425 -1645684316 1954152288 1516987439 -1088422759 908727747 -1930950176 73505870 -1472273517
REM
CELL 1.54180   50.00000   50.00000   50.00000   90.00000   90.00000   90.00000
LATT -1
SFAC C  
C      1  0.4949890000000  0.4870190000000  0.4039250000000 1.0
C      1  0.4125880000000  0.4977450000000  0.4786240000000 1.0
C      1  0.5327220000000  0.5491200000000  0.5688180000000 1.0
C      1  0.4651250000000  0.5225570000000  0.5143500000000 1.0
C      1  0.4737720000000  0.4969390000000  0.5599660000000 1.0
C      1  0.4402670000000  0.4962850000000  0.4947090000000 1.0
C      1  0.5911670000000  0.5388010000000  0.5505770000000 1.0
C      1  0.4666550000000  0.4867380000000  0.4204190000000 1.0
C      1  0.4458040000000  0.4702490000000  0.5066590000000 1.0
C      1  0.4579490000000  0.4189800000000  0.5627150000000 1.0
C      1  0.5619670000000  0.5560130000000  0.4402040000000 1.0
C      1  0.5165410000000  0.5177230000000  0.5014190000000 1.0
C      1  0.4046290000000  0.4883940000000  0.5106540000000 1.0
C      1  0.5107400000000  0.4953760000000  0.5980390000000 1.0
C      1  0.4269480000000  0.5588850000000  0.5493750000000 1.0
C      1  0.5852110000000  0.5374890000000  0.4426330000000 1.0
C      1  0.4362920000000  0.4482710000000  0.4681730000000 1.0
C      1  0.4446640000000  0.5401380000000  0.4527100000000 1.0
C      1  0.5466040000000  0.5274810000000  0.4442780000000 1.0
C      1  0.4946090000000  0.4283150000000  0.5504370000000 1.0
C      1  0.5033660000000  0.5452870000000  0.4146450000000 1.0
C      1  0.5724490000000  0.5299080000000  0.5242030000000 1.0
C      1  0.4106150000000  0.5494530000000  0.4988980000000 1.0
C      1  0.4179990000000  0.5698280000000  0.5198840000000 1.0
C      1  0.5830830000000  0.5132470000000  0.4562760000000 1.0
C      1  0.5687700000000  0.4970420000000  0.5633150000000 1.0
C      1  0.4289050000000  0.5926810000000  0.5095720000000 1.0
C      1  0.6064080000000  0.5257370000000  0.5241370000000 1.0
C      1  0.4429390000000  0.4164250000000  0.5125950000000 1.0
C      1  0.4492630000000  0.4258720000000  0.4459170000000 1.0
C      1  0.4841320000000  0.4455770000000  0.4478600000000 1.0
C      1  0.5719890000000  0.4166600000000  0.4884540000000 1.0
C      1  0.5641760000000  0.5664480000000  0.5087010000000 1.0
C      1  0.4430600000000  0.4181850000000  0.4786160000000 1.0
C      1  0.5481510000000  0.4894300000000  0.5853910000000 1.0
C      1  0.5556050000000  0.5060330000000  0.4214680000000 1.0
C      1  0.5033350000000  0.4594050000000  0.4127820000000 1.0
C      1  0.5793240000000  0.4604670000000  0.5147400000000 1.0
C      1  0.4798770000000  0.5888410000000  0.5350420000000 1.0
C      1  0.4412850000000  0.4914910000000  0.5819000000000 1.0
C      1  0.5190650000000  0.5971740000000  0.4665730000000 1.0
C      1  0.4540750000000  0.4472590000000  0.5545630000000 1.0
C      1  0.5631030000000  0.4873520000000  0.4660750000000 1.0
C      1  0.5352580000000  0.5738230000000  0.4498710000000 1.0
C      1  0.4210600000000  0.5594210000000  0.4680470000000 1.0
C      1  0.5861060000000  0.5213230000000  0.5717330000000 1.0
C      1  0.5302490000000  0.5249520000000  0.4081560000000 1.0
C      1  0.5353080000000  0.5336130000000  0.4820160000000 1.0
C      1  0.4761120000000  0.5274170000000  0.4480700000000 1.0
C      1  0.4634160000000  0.4424110000000  0.5059620000000 1.0
C      1  0.4764670000000  0.5601730000000  0.5761110000000 1.0
C      1  0.4963120000000  0.6069970000000  0.5123660000000 1.0
C      1  0.5153340000000  0.5319550000000  0.4444960000000 1.0
C      1  0.5308330000000  0.5764500000000  0.5496900000000 1.0
C      1  0.4746980000000  0.4154810000000  0.4885210000000 1.0
C      1  0.4501060000000  0.5136400000000  0.5500170000000 1.0
C      1  0.5757500000000  0.4331660000000  0.5110890000000 1.0
C      1  0.4135180000000  0.4913150000000  0.4491400000000 1.0
C      1  0.4588000000000  0.4673590000000  0.4695760000000 1.0
C      1  0.5210840000000  0.4824120000000  0.5692580000000 1.0
C      1  0.4674300000000  0.5383920000000  0.4851720000000 1.0
C      1  0.5978690000000  0.4780640000000  0.4447230000000 1.0
C      1  0.5264260000000  0.6058120000000  0.4986310000000 1.0
C      1  0.6104050000000  0.5015290000000  0.5012980000000 1.0
C      1  0.4575420000000  0.5182650000000  0.4124200000000 1.0
C      1  0.4158840000000  0.4735520000000  0.5328060000000 1.0
C      1  0.5488740000000  0.4669110000000  0.4253500000000 1.0
C      1  0.5089450000000  0.4869220000000  0.4519750000000 1.0
C      1  0.4982980000000  0.4227010000000  0.4265810000000 1.0
C      1  0.5814890000000  0.5146040000000  0.4885210000000 1.0
C      1  0.4954710000000  0.5356450000000  0.5161070000000 1.0
C      1  0.5621240000000  0.5391690000000  0.4957220000000 1.0
C      1  0.5282620000000  0.4906600000000  0.4103150000000 1.0
C      1  0.4476560000000  0.5991460000000  0.4895360000000 1.0
C      1  0.5423840000000  0.5826750000000  0.5182650000000 1.0
C      1  0.4566360000000  0.5432650000000  0.5539840000000 1.0
C      1  0.5481870000000  0.4379800000000  0.4445430000000 1.0
C      1  0.5316620000000  0.4933090000000  0.5114310000000 1.0
C      1  0.4433780000000  0.5991520000000  0.4609670000000 1.0
C      1  0.4669320000000  0.4694980000000  0.5756200000000 1.0
C      1  0.5917870000000  0.4953930000000  0.5292900000000 1.0
C      1  0.4064580000000  0.5207940000000  0.5115630000000 1.0
C      1  0.4722210000000  0.5439600000000  0.4122830000000 1.0
C      1  0.4745060000000  0.4077620000000  0.4416730000000 1.0
C      1  0.4908070000000  0.4611880000000  0.4774560000000 1.0
C      1  0.4871280000000  0.5555200000000  0.4634510000000 1.0
C      1  0.4231910000000  0.5271290000000  0.4759110000000 1.0
C      1  0.5184980000000  0.4624780000000  0.4368440000000 1.0
C      1  0.4981350000000  0.5091020000000  0.4292080000000 1.0
C      1  0.4647190000000  0.4719960000000  0.5326840000000 1.0
C      1  0.4304690000000  0.4732700000000  0.4296920000000 1.0
C      1  0.4565970000000  0.4559970000000  0.4315830000000 1.0
C      1  0.4841310000000  0.4972240000000  0.5214870000000 1.0
C      1  0.5045980000000  0.3991470000000  0.5254500000000 1.0
C      1  0.4958430000000  0.5126140000000  0.5754430000000 1.0
C      1  0.5769380000000  0.4810360000000  0.4951100000000 1.0
C      1  0.5373510000000  0.4060890000000  0.5496440000000 1.0
C      1  0.5055520000000  0.4486500000000  0.5021040000000 1.0
C      1  0.5385140000000  0.4489960000000  0.5414380000000 1.0
C      1  0.4454810000000  0.5205000000000  0.5890240000000 1.0
C      1  0.5574940000000  0.4230970000000  0.5312840000000 1.0
C      1  0.5299490000000  0.4162380000000  0.4651880000000 1.0
C      1  0.5397800000000  0.4645110000000  0.4640460000000 1.0
C      1  0.5541980000000  0.4603610000000  0.5693480000000 1.0
C      1  0.4356090000000  0.5131650000000  0.5213760000000 1.0
C      1  0.5767290000000  0.4826970000000  0.4288100000000 1.0
C      1  0.4960190000000  0.4187870000000  0.4661510000000 1.0
C      1  0.5580660000000  0.5012970000000  0.5310770000000 1.0
C      1  0.5390470000000  0.5377770000000  0.5919450000000 1.0
C      1  0.5192580000000  0.4298640000000  0.5232990000000 1.0
C      1  0.4781440000000  0.4013110000000  0.5476330000000 1.0
C      1  0.4747410000000  0.4877610000000  0.4523320000000 1.0
C      1  0.4599500000000  0.5605890000000  0.4327930000000 1.0
C      1  0.5056340000000  0.5717590000000  0.5291100000000 1.0
C      1  0.4623520000000  0.5061880000000  0.4782020000000 1.0
C      1  0.4850990000000  0.4482430000000  0.5293800000000 1.0
C      1  0.5117070000000  0.5417970000000  0.5443630000000 1.0
C      1  0.4556380000000  0.5681620000000  0.5330670000000 1.0
C      1  0.5199440000000  0.4224660000000  0.5648930000000 1.0
C      1  0.4304940000000  0.4427550000000  0.5308530000000 1.0
C      1  0.5464790000000  0.4051450000000  0.4877630000000 1.0
C      1  0.4895910000000  0.5875070000000  0.4657450000000 1.0
C      1  0.4643950000000  0.5857180000000  0.4455680000000 1.0
C      1  0.4895690000000  0.4913100000000  0.4891220000000 1.0
C      1  0.5185920000000  0.5582040000000  0.4741770000000 1.0
C      1  0.5373430000000  0.3959110000000  0.5168790000000 1.0
C      1  0.4994620000000  0.5191360000000  0.4719990000000 1.0
C      1  0.4988950000000  0.4651190000000  0.5867010000000 1.0
C      1  0.5061060000000  0.5081440000000  0.5429990000000 1.0
C      1  0.4765340000000  0.5892700000000  0.4946570000000 1.0
C      1  0.4260230000000  0.4893990000000  0.5542110000000 1.0
C      1  0.5770780000000  0.4694230000000  0.5456500000000 1.0
C      1  0.4718620000000  0.3985610000000  0.5161010000000 1.0
C      1  0.5272220000000  0.4692910000000  0.4917860000000 1.0
C      1  0.5378890000000  0.5131880000000  0.6035680000000 1.0
C      1  0.5255080000000  0.4799060000000  0.5397880000000 1.0
C      1  0.5353220000000  0.5040890000000  0.4648680000000 1.0
C      1  0.4317450000000  0.5054430000000  0.4244690000000 1.0
C      1  0.5259540000000  0.4449450000000  0.5805780000000 1.0
C      1  0.4453510000000  0.5681990000000  0.5834780000000 1.0
C      1  0.4735120000000  0.5300850000000  0.5875410000000 1.0
C      1  0.5252620000000  0.4173880000000  0.4323300000000 1.0
C      1  0.6045060000000  0.4875190000000  0.4709520000000 1.0
C      1  0.4738970000000  0.5608550000000  0.5074660000000 1.0
C      1  0.4228720000000  0.4471050000000  0.4979320000000 1.0
C      1  0.5025760000000  0.5744130000000  0.5687690000000 1.0
C      1  0.5154040000000  0.5744090000000  0.4992590000000 1.0
C      1  0.5345160000000  0.5568710000000  0.4201470000000 1.0
C      1  0.4272810000000  0.5442950000000  0.5806300000000 1.0
END
