TITL C-2778427-5640-566 0.188247586221656 125000 -353.645385712807 0 0 61 (C1) n - 1
REM
REM in /home/nfs/bkarasulu/CARBON/AIRSS/Generating-Clusters/REBO/Only-C1/SD-CG/HFTN-CG
REM
REM
REM
REM
REM
REM ./C.cell (11c1c37f851c82e70ff6c80c92926a4b)
REM
REM compiler GCC version 9.2.1 20190827 (Red Hat 9.2.1-1)
REM options -cpp -mtune=generic -march=x86-64 -g -O0 -fpre-include=/usr/include/finclude/math-vector-fortran.h
REM seed -2139972370 -1832318527 -1998677566 -968405652 1386759867 1612527188 909218685 -1588908028 2029689194 -350243896 -652725139 1993121901 634265747 1825086343 -1958636575 -981402501 -430283315 -632835772 793298718 -396083770 -173327669 1753022421 741597471 -1181429684 -1074836509 540657343 1135916365 -1750418848 -15866430 1956025296 -78076185 858640056 643016496
REM
CELL 1.54180   50.00000   50.00000   50.00000   90.00000   90.00000   90.00000
LATT -1
SFAC C  
C      1  0.5407290000000  0.4438160000000  0.4261380000000 1.0
C      1  0.4469160000000  0.4823590000000  0.5198410000000 1.0
C      1  0.5036310000000  0.4530930000000  0.4729320000000 1.0
C      1  0.5085440000000  0.5420050000000  0.5466580000000 1.0
C      1  0.5071840000000  0.4845700000000  0.4788780000000 1.0
C      1  0.5177540000000  0.4675520000000  0.5316570000000 1.0
C      1  0.5805270000000  0.4892640000000  0.5008170000000 1.0
C      1  0.4766980000000  0.5400110000000  0.4896640000000 1.0
C      1  0.4438810000000  0.6273370000000  0.5119660000000 1.0
C      1  0.5571900000000  0.5437900000000  0.4537710000000 1.0
C      1  0.4553200000000  0.4432830000000  0.4881730000000 1.0
C      1  0.4902250000000  0.5119180000000  0.4839970000000 1.0
C      1  0.5315150000000  0.5428240000000  0.5292670000000 1.0
C      1  0.5389970000000  0.4925680000000  0.4445890000000 1.0
C      1  0.4984550000000  0.4315930000000  0.4485700000000 1.0
C      1  0.4608630000000  0.4348790000000  0.5156450000000 1.0
C      1  0.5469710000000  0.4218870000000  0.5248760000000 1.0
C      1  0.4605770000000  0.5332990000000  0.5179070000000 1.0
C      1  0.5561100000000  0.5040840000000  0.4930030000000 1.0
C      1  0.5818360000000  0.5269740000000  0.4490600000000 1.0
C      1  0.4561160000000  0.5086230000000  0.5374110000000 1.0
C      1  0.4695010000000  0.5658290000000  0.4820830000000 1.0
C      1  0.5487280000000  0.4687220000000  0.4335280000000 1.0
C      1  0.4800410000000  0.4780500000000  0.6267950000000 1.0
C      1  0.5692590000000  0.4328940000000  0.5140000000000 1.0
C      1  0.5119950000000  0.4982030000000  0.4404860000000 1.0
C      1  0.4600040000000  0.5053530000000  0.4982270000000 1.0
C      1  0.5150960000000  0.4627500000000  0.5022970000000 1.0
C      1  0.4727770000000  0.4803790000000  0.5733140000000 1.0
C      1  0.4470150000000  0.6038070000000  0.4676630000000 1.0
C      1  0.4564900000000  0.5774810000000  0.4592500000000 1.0
C      1  0.6043930000000  0.5035210000000  0.5008610000000 1.0
C      1  0.4350180000000  0.6222440000000  0.4519140000000 1.0
C      1  0.4765170000000  0.4791790000000  0.6008510000000 1.0
C      1  0.4872180000000  0.4251820000000  0.5223570000000 1.0
C      1  0.4711890000000  0.4576420000000  0.5564500000000 1.0
C      1  0.5304060000000  0.4403440000000  0.5468040000000 1.0
C      1  0.4972500000000  0.4458350000000  0.5471470000000 1.0
C      1  0.4487910000000  0.4934540000000  0.4691860000000 1.0
C      1  0.4531260000000  0.4559280000000  0.5345200000000 1.0
C      1  0.4751820000000  0.4375250000000  0.4694720000000 1.0
C      1  0.5462080000000  0.5647740000000  0.5216770000000 1.0
C      1  0.5810160000000  0.4624000000000  0.5059820000000 1.0
C      1  0.5235140000000  0.5110750000000  0.4871490000000 1.0
C      1  0.4488480000000  0.5316740000000  0.4375760000000 1.0
C      1  0.5151600000000  0.4156770000000  0.5283710000000 1.0
C      1  0.5356100000000  0.5146210000000  0.5176280000000 1.0
C      1  0.4854410000000  0.5006540000000  0.4391670000000 1.0
C      1  0.4633260000000  0.5815340000000  0.5061120000000 1.0
C      1  0.4588590000000  0.5066460000000  0.4462300000000 1.0
C      1  0.5190490000000  0.4277520000000  0.4305330000000 1.0
C      1  0.5547930000000  0.5107710000000  0.4622510000000 1.0
C      1  0.4751560000000  0.5047670000000  0.5581540000000 1.0
C      1  0.4668530000000  0.5626080000000  0.5281490000000 1.0
C      1  0.5198910000000  0.4967530000000  0.5379070000000 1.0
C      1  0.5018890000000  0.5142290000000  0.5523260000000 1.0
C      1  0.4493100000000  0.5588310000000  0.4393930000000 1.0
C      1  0.4884830000000  0.5622750000000  0.5466010000000 1.0
C      1  0.4512880000000  0.6062580000000  0.4967180000000 1.0
C      1  0.4445620000000  0.4701840000000  0.4885150000000 1.0
C      1  0.6007070000000  0.4364670000000  0.5075370000000 1.0
END
