TITL C-2778432-5617-129 0.152618610343721 125000 -402.144325314234 0 0 72 (C1) n - 1
REM
REM in /home/nfs/bkarasulu/CARBON/AIRSS/Generating-Clusters/REBO/Only-C1/SD-CG/HFTN-CG
REM
REM
REM
REM
REM
REM ./C.cell (11c1c37f851c82e70ff6c80c92926a4b)
REM
REM compiler GCC version 9.2.1 20190827 (Red Hat 9.2.1-1)
REM options -cpp -mtune=generic -march=x86-64 -g -O0 -fpre-include=/usr/include/finclude/math-vector-fortran.h
REM seed 432324370 1670184761 547374925 -1340828567 1609516479 1892591669 -97376645 -1984648711 1219222266 -964185761 245158008 965268737 -1742269844 -826152153 -486905756 1682951738 1848155587 1312119694 -641883113 614204347 -1676223895 -498231670 -1633092873 -1060676025 -1249607083 1833736786 -701932866 1199153719 -31883630 -652532313 -886690217 1962252254 1662125495
REM
CELL 1.54180   50.00000   50.00000   50.00000   90.00000   90.00000   90.00000
LATT -1
SFAC C  
C      1  0.4474460000000  0.4784900000000  0.4982120000000 1.0
C      1  0.4603120000000  0.5680250000000  0.5020450000000 1.0
C      1  0.4494450000000  0.5265140000000  0.5577850000000 1.0
C      1  0.5509530000000  0.5229720000000  0.5697320000000 1.0
C      1  0.5939340000000  0.5218760000000  0.4375740000000 1.0
C      1  0.4968640000000  0.4204050000000  0.4249130000000 1.0
C      1  0.4576690000000  0.4471750000000  0.4991600000000 1.0
C      1  0.5433710000000  0.5607330000000  0.4320090000000 1.0
C      1  0.4938040000000  0.4518190000000  0.5320240000000 1.0
C      1  0.5419500000000  0.4722550000000  0.4087880000000 1.0
C      1  0.5216770000000  0.5098520000000  0.4524810000000 1.0
C      1  0.5040740000000  0.5055180000000  0.4798460000000 1.0
C      1  0.5213570000000  0.5603270000000  0.5802120000000 1.0
C      1  0.4962170000000  0.5424800000000  0.5193210000000 1.0
C      1  0.5176800000000  0.5245350000000  0.5628230000000 1.0
C      1  0.5467890000000  0.5519850000000  0.5757940000000 1.0
C      1  0.4425450000000  0.5426850000000  0.4986040000000 1.0
C      1  0.5186320000000  0.4769850000000  0.5367810000000 1.0
C      1  0.4877480000000  0.5712760000000  0.4929610000000 1.0
C      1  0.5728700000000  0.4346040000000  0.5650740000000 1.0
C      1  0.4759670000000  0.4773380000000  0.4810210000000 1.0
C      1  0.4994550000000  0.5361110000000  0.5891760000000 1.0
C      1  0.5304500000000  0.5865190000000  0.5202630000000 1.0
C      1  0.4849250000000  0.4952060000000  0.4534340000000 1.0
C      1  0.5398940000000  0.4749550000000  0.5575510000000 1.0
C      1  0.4580840000000  0.5782390000000  0.5313960000000 1.0
C      1  0.4242440000000  0.4947180000000  0.5460930000000 1.0
C      1  0.4391530000000  0.4887610000000  0.4256590000000 1.0
C      1  0.5042600000000  0.5187900000000  0.5375690000000 1.0
C      1  0.5030270000000  0.5553150000000  0.4723670000000 1.0
C      1  0.4511150000000  0.4345420000000  0.5433880000000 1.0
C      1  0.4688700000000  0.4809270000000  0.5518580000000 1.0
C      1  0.4474200000000  0.4581900000000  0.5565460000000 1.0
C      1  0.5222810000000  0.5528410000000  0.4535830000000 1.0
C      1  0.5140760000000  0.4825280000000  0.4078670000000 1.0
C      1  0.4593660000000  0.5041790000000  0.5724230000000 1.0
C      1  0.4741710000000  0.5438190000000  0.5438080000000 1.0
C      1  0.4716200000000  0.4577380000000  0.4541170000000 1.0
C      1  0.4847010000000  0.5820320000000  0.5434800000000 1.0
C      1  0.4348880000000  0.4872730000000  0.5241270000000 1.0
C      1  0.5493460000000  0.4443020000000  0.5539440000000 1.0
C      1  0.5053620000000  0.5752980000000  0.5201280000000 1.0
C      1  0.4811190000000  0.4364340000000  0.4420870000000 1.0
C      1  0.5211260000000  0.4552310000000  0.5120770000000 1.0
C      1  0.5980700000000  0.5449540000000  0.4515090000000 1.0
C      1  0.4348540000000  0.5396640000000  0.4515970000000 1.0
C      1  0.5583030000000  0.4205710000000  0.5093890000000 1.0
C      1  0.4694440000000  0.4378310000000  0.5221760000000 1.0
C      1  0.4900130000000  0.5605930000000  0.5673440000000 1.0
C      1  0.5005740000000  0.3937300000000  0.4284150000000 1.0
C      1  0.5677910000000  0.5129950000000  0.4330720000000 1.0
C      1  0.5389800000000  0.4431100000000  0.4054390000000 1.0
C      1  0.5058190000000  0.4972340000000  0.4297170000000 1.0
C      1  0.5446740000000  0.5286400000000  0.4434250000000 1.0
C      1  0.4391060000000  0.5264530000000  0.4760640000000 1.0
C      1  0.4539590000000  0.4863320000000  0.4488800000000 1.0
C      1  0.4867240000000  0.4845960000000  0.5794460000000 1.0
C      1  0.5103080000000  0.4353440000000  0.4041990000000 1.0
C      1  0.4308930000000  0.5519730000000  0.4288010000000 1.0
C      1  0.4983440000000  0.5328010000000  0.4910330000000 1.0
C      1  0.4900800000000  0.4915400000000  0.5314180000000 1.0
C      1  0.5396160000000  0.4951120000000  0.5777410000000 1.0
C      1  0.5444060000000  0.4380520000000  0.5233080000000 1.0
C      1  0.4974440000000  0.4610220000000  0.3977480000000 1.0
C      1  0.5085310000000  0.5032770000000  0.5877920000000 1.0
C      1  0.5213190000000  0.4430000000000  0.5723600000000 1.0
C      1  0.4979750000000  0.4564220000000  0.5640440000000 1.0
C      1  0.5001660000000  0.4801290000000  0.5016590000000 1.0
C      1  0.5613960000000  0.4895890000000  0.4190140000000 1.0
C      1  0.6149070000000  0.5073260000000  0.4279620000000 1.0
C      1  0.4434140000000  0.5474490000000  0.5316440000000 1.0
C      1  0.4426330000000  0.4984660000000  0.4747040000000 1.0
END
