TITL C-2778432-5617-252 0.0025483927719452 125000 -556.743255541714 0 0 96 (C1) n - 1
REM
REM in /home/nfs/bkarasulu/CARBON/AIRSS/Generating-Clusters/REBO/Only-C1/SD-CG/HFTN-CG
REM
REM
REM
REM
REM
REM ./C.cell (11c1c37f851c82e70ff6c80c92926a4b)
REM
REM compiler GCC version 9.2.1 20190827 (Red Hat 9.2.1-1)
REM options -cpp -mtune=generic -march=x86-64 -g -O0 -fpre-include=/usr/include/finclude/math-vector-fortran.h
REM seed 2019083617 -2035019279 1905591847 -853618546 1904221257 228747061 442291420 1150988900 366123346 -1489522318 634158037 -371233687 -1528055618 480736852 1445015392 226804408 -1234052489 -1837176425 -556556380 904368024 -923416889 -2081902571 -1266738963 1622820959 -1890746359 268700016 -713932418 589575906 -591323775 -1602607159 -77200388 -606551630 -1095344002
REM
CELL 1.54180   50.00000   50.00000   50.00000   90.00000   90.00000   90.00000
LATT -1
SFAC C  
C      1  0.5245680000000  0.5516840000000  0.4344600000000 1.0
C      1  0.5128150000000  0.5346790000000  0.5187650000000 1.0
C      1  0.4785890000000  0.4742090000000  0.5542340000000 1.0
C      1  0.4779450000000  0.5672370000000  0.4781490000000 1.0
C      1  0.5760330000000  0.4431060000000  0.4956090000000 1.0
C      1  0.4593630000000  0.4765690000000  0.4162030000000 1.0
C      1  0.5265260000000  0.4310360000000  0.5500230000000 1.0
C      1  0.5098170000000  0.5180210000000  0.4497290000000 1.0
C      1  0.4385880000000  0.5373040000000  0.5398710000000 1.0
C      1  0.4805020000000  0.5254970000000  0.4325260000000 1.0
C      1  0.5594850000000  0.4312840000000  0.5153700000000 1.0
C      1  0.5771520000000  0.4606020000000  0.4746600000000 1.0
C      1  0.5080960000000  0.4112120000000  0.4939930000000 1.0
C      1  0.5112190000000  0.5094660000000  0.5005290000000 1.0
C      1  0.5340200000000  0.4601560000000  0.4537850000000 1.0
C      1  0.5638200000000  0.5156370000000  0.5753560000000 1.0
C      1  0.4883730000000  0.5469770000000  0.5344630000000 1.0
C      1  0.4614780000000  0.5919960000000  0.5183400000000 1.0
C      1  0.5287030000000  0.5010500000000  0.4804850000000 1.0
C      1  0.4620800000000  0.5371000000000  0.5629220000000 1.0
C      1  0.4201700000000  0.5070250000000  0.4837210000000 1.0
C      1  0.5192970000000  0.4842470000000  0.4137070000000 1.0
C      1  0.4826240000000  0.5930620000000  0.4957100000000 1.0
C      1  0.5700980000000  0.4872800000000  0.4688800000000 1.0
C      1  0.5132620000000  0.5830700000000  0.5078320000000 1.0
C      1  0.4620500000000  0.4462250000000  0.5032790000000 1.0
C      1  0.5154880000000  0.5259670000000  0.5641150000000 1.0
C      1  0.4336450000000  0.5253120000000  0.4669940000000 1.0
C      1  0.5800890000000  0.5130710000000  0.5390070000000 1.0
C      1  0.5589670000000  0.5003490000000  0.4410160000000 1.0
C      1  0.4562010000000  0.4721490000000  0.4818830000000 1.0
C      1  0.4639340000000  0.5665470000000  0.5473370000000 1.0
C      1  0.4220950000000  0.4777150000000  0.4473170000000 1.0
C      1  0.5300550000000  0.4555440000000  0.5037750000000 1.0
C      1  0.5728620000000  0.5299530000000  0.4916650000000 1.0
C      1  0.4907150000000  0.5807190000000  0.5324280000000 1.0
C      1  0.5392470000000  0.5251020000000  0.4652840000000 1.0
C      1  0.4763190000000  0.4213030000000  0.4909540000000 1.0
C      1  0.5349220000000  0.5201300000000  0.4261860000000 1.0
C      1  0.4685750000000  0.5212130000000  0.4967290000000 1.0
C      1  0.4554510000000  0.5139770000000  0.4463250000000 1.0
C      1  0.5458040000000  0.5362280000000  0.5688160000000 1.0
C      1  0.5586050000000  0.5287740000000  0.5317640000000 1.0
C      1  0.5163840000000  0.4361510000000  0.4518090000000 1.0
C      1  0.4715180000000  0.4397910000000  0.4431490000000 1.0
C      1  0.4542370000000  0.4917160000000  0.5622680000000 1.0
C      1  0.4885800000000  0.4691500000000  0.4848540000000 1.0
C      1  0.4978210000000  0.5528660000000  0.4263270000000 1.0
C      1  0.4814780000000  0.4600070000000  0.5234140000000 1.0
C      1  0.5652620000000  0.5335680000000  0.4448810000000 1.0
C      1  0.5048110000000  0.5148660000000  0.4105270000000 1.0
C      1  0.5093260000000  0.5718090000000  0.4761480000000 1.0
C      1  0.4906930000000  0.4929100000000  0.4531050000000 1.0
C      1  0.5077000000000  0.4843750000000  0.5411820000000 1.0
C      1  0.5020700000000  0.4846700000000  0.6032260000000 1.0
C      1  0.5608690000000  0.4672960000000  0.5525000000000 1.0
C      1  0.5541220000000  0.4384800000000  0.5437260000000 1.0
C      1  0.4730960000000  0.4161750000000  0.4595740000000 1.0
C      1  0.5039380000000  0.4127600000000  0.4636340000000 1.0
C      1  0.5358510000000  0.4719010000000  0.5317000000000 1.0
C      1  0.4864700000000  0.4878540000000  0.4204490000000 1.0
C      1  0.4409420000000  0.4909710000000  0.4317600000000 1.0
C      1  0.4606230000000  0.5484930000000  0.4920810000000 1.0
C      1  0.4940740000000  0.4600420000000  0.4540570000000 1.0
C      1  0.5082330000000  0.4436810000000  0.5256900000000 1.0
C      1  0.4309860000000  0.4896600000000  0.5457150000000 1.0
C      1  0.5292660000000  0.5110680000000  0.5361570000000 1.0
C      1  0.4099860000000  0.5141690000000  0.5087940000000 1.0
C      1  0.4292600000000  0.5526450000000  0.4676290000000 1.0
C      1  0.4964910000000  0.4861550000000  0.5101490000000 1.0
C      1  0.4940140000000  0.4292940000000  0.5525460000000 1.0
C      1  0.4945260000000  0.4974140000000  0.5824410000000 1.0
C      1  0.5325210000000  0.4212270000000  0.5037130000000 1.0
C      1  0.4303370000000  0.4577110000000  0.5076100000000 1.0
C      1  0.5666410000000  0.5029570000000  0.4927960000000 1.0
C      1  0.5576410000000  0.5536090000000  0.5097870000000 1.0
C      1  0.5096780000000  0.5696530000000  0.5683530000000 1.0
C      1  0.4676500000000  0.5013070000000  0.4741810000000 1.0
C      1  0.4420590000000  0.4421690000000  0.5524210000000 1.0
C      1  0.4277190000000  0.4620850000000  0.5360830000000 1.0
C      1  0.4233630000000  0.5145150000000  0.5335810000000 1.0
C      1  0.4464760000000  0.5614420000000  0.5180820000000 1.0
C      1  0.4765270000000  0.5180050000000  0.5236420000000 1.0
C      1  0.4849710000000  0.5136310000000  0.5561460000000 1.0
C      1  0.5500910000000  0.4944210000000  0.5135230000000 1.0
C      1  0.5331540000000  0.4729640000000  0.4792110000000 1.0
C      1  0.5396370000000  0.4774420000000  0.4318770000000 1.0
C      1  0.5309440000000  0.5608580000000  0.5232890000000 1.0
C      1  0.5550140000000  0.5533940000000  0.4758800000000 1.0
C      1  0.5743520000000  0.4913120000000  0.5597370000000 1.0
C      1  0.5334490000000  0.5610830000000  0.5547550000000 1.0
C      1  0.4584540000000  0.4486170000000  0.4200110000000 1.0
C      1  0.4249690000000  0.4764090000000  0.4795720000000 1.0
C      1  0.5299610000000  0.5634740000000  0.4596950000000 1.0
C      1  0.4917600000000  0.5482080000000  0.5741960000000 1.0
C      1  0.4703570000000  0.4437890000000  0.5581730000000 1.0
END
