TITL C-2778435-5768-1422 0.000435635943098404 125000 -1115.55124306363 0 0 189 (C1) n - 1
REM
REM in /home/nfs/bkarasulu/CARBON/AIRSS/Generating-Clusters/REBO/Only-C1/SD-CG/HFTN-CG
REM
REM
REM
REM
REM
REM ./C.cell (11c1c37f851c82e70ff6c80c92926a4b)
REM
REM compiler GCC version 9.2.1 20190827 (Red Hat 9.2.1-1)
REM options -cpp -mtune=generic -march=x86-64 -g -O0 -fpre-include=/usr/include/finclude/math-vector-fortran.h
REM seed 265702037 -1775973826 -1140451553 1370172244 -501096587 -622559574 -1411874618 1485406597 541695633 1039640590 1586722743 -1557878545 164639881 652407861 1171367067 -1168064689 -1694907198 2127119671 -978151158 -1756780960 915918425 1677328677 -1558878368 -1534409131 -1124318323 890630526 1877640124 -706566183 105604752 798543938 -2103643782 1929866844 1478672686
REM
CELL 1.54180   50.00000   50.00000   50.00000   90.00000   90.00000   90.00000
LATT -1
SFAC C  
C      1  0.5420200000000  0.4798580000000  0.5574650000000 1.0
C      1  0.5128480000000  0.4157900000000  0.4196300000000 1.0
C      1  0.4102870000000  0.4664600000000  0.5214030000000 1.0
C      1  0.5111330000000  0.5904540000000  0.5707740000000 1.0
C      1  0.6105570000000  0.4878700000000  0.5099060000000 1.0
C      1  0.4338550000000  0.4100370000000  0.5249380000000 1.0
C      1  0.4791270000000  0.4155020000000  0.4244560000000 1.0
C      1  0.5856260000000  0.5077830000000  0.5568950000000 1.0
C      1  0.5374600000000  0.4732290000000  0.4693490000000 1.0
C      1  0.5473760000000  0.4982830000000  0.4051940000000 1.0
C      1  0.5893490000000  0.5063540000000  0.5264210000000 1.0
C      1  0.4080910000000  0.4956250000000  0.4422520000000 1.0
C      1  0.4829690000000  0.5169930000000  0.5552400000000 1.0
C      1  0.5284720000000  0.5521460000000  0.4758610000000 1.0
C      1  0.5628790000000  0.5655420000000  0.5197720000000 1.0
C      1  0.4304740000000  0.5413820000000  0.5050810000000 1.0
C      1  0.5474520000000  0.3943420000000  0.5038670000000 1.0
C      1  0.4618360000000  0.4875820000000  0.5384740000000 1.0
C      1  0.5724060000000  0.5448770000000  0.5000190000000 1.0
C      1  0.4894310000000  0.4658380000000  0.5738200000000 1.0
C      1  0.5415920000000  0.5062650000000  0.5354670000000 1.0
C      1  0.4420980000000  0.5078680000000  0.5429940000000 1.0
C      1  0.4588360000000  0.5840390000000  0.5364000000000 1.0
C      1  0.5165220000000  0.4819910000000  0.6058010000000 1.0
C      1  0.4993720000000  0.4026090000000  0.4486320000000 1.0
C      1  0.4406070000000  0.4746530000000  0.4785900000000 1.0
C      1  0.4515420000000  0.5352930000000  0.5387430000000 1.0
C      1  0.4412050000000  0.5520480000000  0.5743050000000 1.0
C      1  0.4544810000000  0.4245900000000  0.5712550000000 1.0
C      1  0.4469140000000  0.6030790000000  0.4531440000000 1.0
C      1  0.5932010000000  0.4764330000000  0.5525260000000 1.0
C      1  0.4793540000000  0.4010850000000  0.5439820000000 1.0
C      1  0.4613050000000  0.4369260000000  0.4442210000000 1.0
C      1  0.3926550000000  0.4848350000000  0.4992370000000 1.0
C      1  0.5064580000000  0.6052260000000  0.5471150000000 1.0
C      1  0.4420700000000  0.4079290000000  0.4974790000000 1.0
C      1  0.6162240000000  0.5199450000000  0.5124140000000 1.0
C      1  0.5242520000000  0.5427040000000  0.5434070000000 1.0
C      1  0.5354120000000  0.5496090000000  0.4271910000000 1.0
C      1  0.3931170000000  0.5146550000000  0.5234960000000 1.0
C      1  0.4012080000000  0.5323790000000  0.5513310000000 1.0
C      1  0.4860570000000  0.4510500000000  0.4924690000000 1.0
C      1  0.5770140000000  0.5142750000000  0.4388820000000 1.0
C      1  0.4022700000000  0.4635820000000  0.4805850000000 1.0
C      1  0.4889940000000  0.4626080000000  0.4155430000000 1.0
C      1  0.5356180000000  0.5004960000000  0.6131530000000 1.0
C      1  0.4708570000000  0.5106760000000  0.4926970000000 1.0
C      1  0.5495140000000  0.5081180000000  0.4302570000000 1.0
C      1  0.6012330000000  0.4831000000000  0.4834500000000 1.0
C      1  0.5045010000000  0.5958020000000  0.4588790000000 1.0
C      1  0.4083190000000  0.4679550000000  0.5543950000000 1.0
C      1  0.5729300000000  0.4219100000000  0.5447150000000 1.0
C      1  0.4269570000000  0.4464720000000  0.4910450000000 1.0
C      1  0.4468530000000  0.5136390000000  0.4729050000000 1.0
C      1  0.4500760000000  0.5461530000000  0.4086170000000 1.0
C      1  0.4802990000000  0.6061280000000  0.5343460000000 1.0
C      1  0.5043500000000  0.5652000000000  0.4554620000000 1.0
C      1  0.5178610000000  0.4384980000000  0.5711700000000 1.0
C      1  0.5386740000000  0.5247590000000  0.5948540000000 1.0
C      1  0.4256310000000  0.5149850000000  0.5161450000000 1.0
C      1  0.4817240000000  0.5260350000000  0.6028980000000 1.0
C      1  0.4438620000000  0.4628260000000  0.4006860000000 1.0
C      1  0.4847880000000  0.4862010000000  0.4345760000000 1.0
C      1  0.4631900000000  0.5656550000000  0.5619910000000 1.0
C      1  0.4385830000000  0.5905950000000  0.4313370000000 1.0
C      1  0.4666510000000  0.4823300000000  0.5076650000000 1.0
C      1  0.5135790000000  0.5389000000000  0.4031930000000 1.0
C      1  0.5376700000000  0.6042050000000  0.5031180000000 1.0
C      1  0.4477860000000  0.4960150000000  0.4457680000000 1.0
C      1  0.5242560000000  0.5310570000000  0.4508910000000 1.0
C      1  0.5317280000000  0.4089190000000  0.4538760000000 1.0
C      1  0.4123890000000  0.4650520000000  0.4520400000000 1.0
C      1  0.4936840000000  0.4786130000000  0.5365880000000 1.0
C      1  0.4355380000000  0.5635130000000  0.4258700000000 1.0
C      1  0.5426120000000  0.5769710000000  0.4830930000000 1.0
C      1  0.5020510000000  0.4515580000000  0.5225590000000 1.0
C      1  0.4495700000000  0.4017070000000  0.5479260000000 1.0
C      1  0.4685230000000  0.4998040000000  0.5759790000000 1.0
C      1  0.5350130000000  0.4322940000000  0.5035340000000 1.0
C      1  0.5572690000000  0.4631110000000  0.5817860000000 1.0
C      1  0.4546530000000  0.5621410000000  0.4947620000000 1.0
C      1  0.5416780000000  0.4304690000000  0.4305100000000 1.0
C      1  0.5093890000000  0.5360070000000  0.5922690000000 1.0
C      1  0.5267550000000  0.4596650000000  0.5915300000000 1.0
C      1  0.5519930000000  0.4676660000000  0.4012380000000 1.0
C      1  0.4799740000000  0.5442400000000  0.4103630000000 1.0
C      1  0.4851090000000  0.4323380000000  0.5681170000000 1.0
C      1  0.5735380000000  0.5941170000000  0.5171490000000 1.0
C      1  0.5006710000000  0.6023530000000  0.4904210000000 1.0
C      1  0.5668960000000  0.6008580000000  0.4853990000000 1.0
C      1  0.5282400000000  0.4097750000000  0.5274200000000 1.0
C      1  0.5562380000000  0.5526690000000  0.5481300000000 1.0
C      1  0.5850830000000  0.5402320000000  0.5616600000000 1.0
C      1  0.4682170000000  0.4782720000000  0.4636070000000 1.0
C      1  0.4463880000000  0.5912640000000  0.4842090000000 1.0
C      1  0.6054170000000  0.5503000000000  0.4585220000000 1.0
C      1  0.4491290000000  0.4952200000000  0.3910810000000 1.0
C      1  0.5294210000000  0.6052860000000  0.4472910000000 1.0
C      1  0.5258510000000  0.4834440000000  0.3859230000000 1.0
C      1  0.4893720000000  0.4395530000000  0.4635090000000 1.0
C      1  0.6030730000000  0.5361120000000  0.4881000000000 1.0
C      1  0.4857930000000  0.4010320000000  0.4735480000000 1.0
C      1  0.4653050000000  0.4714050000000  0.5957520000000 1.0
C      1  0.5620800000000  0.4507330000000  0.4212010000000 1.0
C      1  0.5661070000000  0.4345220000000  0.4771520000000 1.0
C      1  0.5803570000000  0.4596500000000  0.4422180000000 1.0
C      1  0.5312630000000  0.5232850000000  0.4894450000000 1.0
C      1  0.5534630000000  0.4099490000000  0.4762320000000 1.0
C      1  0.5467570000000  0.4618210000000  0.4990050000000 1.0
C      1  0.4889330000000  0.5133410000000  0.4215920000000 1.0
C      1  0.5142030000000  0.5214920000000  0.5634780000000 1.0
C      1  0.4557290000000  0.4418400000000  0.5353300000000 1.0
C      1  0.5922540000000  0.4308040000000  0.5658070000000 1.0
C      1  0.6044580000000  0.5074930000000  0.4698310000000 1.0
C      1  0.4081980000000  0.5480300000000  0.4801830000000 1.0
C      1  0.5858860000000  0.5406320000000  0.4366920000000 1.0
C      1  0.5080700000000  0.5637950000000  0.5769460000000 1.0
C      1  0.5176630000000  0.4275970000000  0.4787950000000 1.0
C      1  0.4614350000000  0.4625430000000  0.5569650000000 1.0
C      1  0.5043810000000  0.5638870000000  0.4231460000000 1.0
C      1  0.5997580000000  0.4448600000000  0.4582680000000 1.0
C      1  0.4345330000000  0.4767470000000  0.5710870000000 1.0
C      1  0.4256200000000  0.4190750000000  0.4745680000000 1.0
C      1  0.5892390000000  0.4419980000000  0.5100200000000 1.0
C      1  0.4220360000000  0.4385680000000  0.5314050000000 1.0
C      1  0.4367760000000  0.5052850000000  0.5823690000000 1.0
C      1  0.4556050000000  0.4460820000000  0.5025040000000 1.0
C      1  0.4718940000000  0.4137550000000  0.4948830000000 1.0
C      1  0.4862870000000  0.5499750000000  0.5628030000000 1.0
C      1  0.5876180000000  0.4582050000000  0.5739010000000 1.0
C      1  0.4240120000000  0.4391130000000  0.5645220000000 1.0
C      1  0.4179720000000  0.4992550000000  0.4722300000000 1.0
C      1  0.4433780000000  0.4500400000000  0.5903300000000 1.0
C      1  0.4964430000000  0.4728790000000  0.3884380000000 1.0
C      1  0.5284350000000  0.5003510000000  0.4530020000000 1.0
C      1  0.5541250000000  0.4996640000000  0.4833450000000 1.0
C      1  0.4874920000000  0.5132170000000  0.5217030000000 1.0
C      1  0.5588580000000  0.5469520000000  0.5816470000000 1.0
C      1  0.4460030000000  0.5441250000000  0.4683240000000 1.0
C      1  0.5046570000000  0.4447410000000  0.4336040000000 1.0
C      1  0.5721100000000  0.4884460000000  0.4566330000000 1.0
C      1  0.4318650000000  0.4402000000000  0.4520220000000 1.0
C      1  0.5482220000000  0.3668570000000  0.5038010000000 1.0
C      1  0.4355380000000  0.5217860000000  0.4057530000000 1.0
C      1  0.4327720000000  0.4852770000000  0.5089340000000 1.0
C      1  0.4571540000000  0.5370650000000  0.5954510000000 1.0
C      1  0.5636410000000  0.5144440000000  0.5109020000000 1.0
C      1  0.4643110000000  0.4434280000000  0.4118790000000 1.0
C      1  0.4928350000000  0.5338620000000  0.4467130000000 1.0
C      1  0.5303490000000  0.5672000000000  0.5215720000000 1.0
C      1  0.4408620000000  0.4858130000000  0.4218510000000 1.0
C      1  0.5654730000000  0.4203440000000  0.5144580000000 1.0
C      1  0.4772020000000  0.4970180000000  0.3808440000000 1.0
C      1  0.5090880000000  0.5765900000000  0.5047040000000 1.0
C      1  0.5063170000000  0.5108020000000  0.3920840000000 1.0
C      1  0.5605310000000  0.5622220000000  0.4394360000000 1.0
C      1  0.4818740000000  0.6184230000000  0.5097870000000 1.0
C      1  0.4204170000000  0.5461530000000  0.4484340000000 1.0
C      1  0.5545550000000  0.5909100000000  0.4551950000000 1.0
C      1  0.5004760000000  0.4869980000000  0.4643670000000 1.0
C      1  0.4178680000000  0.5768600000000  0.4959260000000 1.0
C      1  0.4933400000000  0.5541200000000  0.4939480000000 1.0
C      1  0.4980520000000  0.5438780000000  0.5247500000000 1.0
C      1  0.5745980000000  0.4655820000000  0.4812820000000 1.0
C      1  0.5117610000000  0.4883180000000  0.5614500000000 1.0
C      1  0.4785460000000  0.5375620000000  0.4742580000000 1.0
C      1  0.5831330000000  0.4649190000000  0.5277430000000 1.0
C      1  0.4100680000000  0.4997970000000  0.5494800000000 1.0
C      1  0.4299060000000  0.5682880000000  0.5267490000000 1.0
C      1  0.5751060000000  0.5579780000000  0.4702380000000 1.0
C      1  0.5275440000000  0.4485700000000  0.4559580000000 1.0
C      1  0.5182220000000  0.5047270000000  0.5126150000000 1.0
C      1  0.4200390000000  0.5227700000000  0.5914760000000 1.0
C      1  0.5300080000000  0.6116690000000  0.5314800000000 1.0
C      1  0.4741750000000  0.6055500000000  0.4707370000000 1.0
C      1  0.4824500000000  0.4250320000000  0.5225230000000 1.0
C      1  0.3961790000000  0.5174720000000  0.4896200000000 1.0
C      1  0.4196750000000  0.5534530000000  0.5546150000000 1.0
C      1  0.5272500000000  0.4476080000000  0.5395960000000 1.0
C      1  0.4987770000000  0.4824430000000  0.4966900000000 1.0
C      1  0.5087590000000  0.4138730000000  0.5503440000000 1.0
C      1  0.5546420000000  0.4412300000000  0.5571800000000 1.0
C      1  0.5538320000000  0.5167070000000  0.5654280000000 1.0
C      1  0.4169140000000  0.5190910000000  0.4280870000000 1.0
C      1  0.5520060000000  0.4684260000000  0.5282720000000 1.0
C      1  0.4671240000000  0.5542490000000  0.5239560000000 1.0
C      1  0.5604850000000  0.6112380000000  0.5350900000000 1.0
C      1  0.6047530000000  0.4398330000000  0.4855410000000 1.0
C      1  0.4884860000000  0.4933200000000  0.6031830000000 1.0
END
