TITL C-2778431-5191-989 0.0022510769601508 125000 -965.943486973952 0 0 169 (C1) n - 1
REM
REM in /home/nfs/bkarasulu/CARBON/AIRSS/Generating-Clusters/REBO/Only-C1/SD-CG/HFTN-CG
REM
REM
REM
REM
REM
REM ./C.cell (11c1c37f851c82e70ff6c80c92926a4b)
REM
REM compiler GCC version 9.2.1 20190827 (Red Hat 9.2.1-1)
REM options -cpp -mtune=generic -march=x86-64 -g -O0 -fpre-include=/usr/include/finclude/math-vector-fortran.h
REM seed -1345932361 -343207718 -982553184 -25635207 1348405844 1368581519 -1458786403 -465876760 -856224842 624267276 150905361 1542055677 -1553072395 379615133 310779142 -2108575103 -1665324591 -1791800823 -816091926 -1530431272 809140799 -332976722 1347009711 -44942270 -62399844 -1916513462 451930879 -1974897206 1582016885 2105937870 1512716321 -1830152056 1164049099
REM
CELL 1.54180   50.00000   50.00000   50.00000   90.00000   90.00000   90.00000
LATT -1
SFAC C  
C      1  0.4603490000000  0.5079970000000  0.3947700000000 1.0
C      1  0.5317370000000  0.4089460000000  0.5396860000000 1.0
C      1  0.5683120000000  0.5838390000000  0.4456250000000 1.0
C      1  0.5241450000000  0.4871160000000  0.4608700000000 1.0
C      1  0.5070360000000  0.5401080000000  0.5886190000000 1.0
C      1  0.5876490000000  0.5178140000000  0.5787960000000 1.0
C      1  0.5443040000000  0.4573730000000  0.5010730000000 1.0
C      1  0.4544390000000  0.5647300000000  0.4455300000000 1.0
C      1  0.5416110000000  0.5274480000000  0.5289450000000 1.0
C      1  0.5476320000000  0.5295560000000  0.4960510000000 1.0
C      1  0.5036130000000  0.5796100000000  0.5575370000000 1.0
C      1  0.4558700000000  0.4734070000000  0.4859610000000 1.0
C      1  0.4912960000000  0.5029630000000  0.5701790000000 1.0
C      1  0.5221940000000  0.6092970000000  0.5173120000000 1.0
C      1  0.5809120000000  0.5019420000000  0.4799320000000 1.0
C      1  0.4707600000000  0.4925410000000  0.5176210000000 1.0
C      1  0.5922240000000  0.5258730000000  0.5399170000000 1.0
C      1  0.4348090000000  0.3934520000000  0.5472150000000 1.0
C      1  0.3976380000000  0.5019000000000  0.4701530000000 1.0
C      1  0.5146060000000  0.5799720000000  0.4914030000000 1.0
C      1  0.4272630000000  0.4262740000000  0.4738740000000 1.0
C      1  0.4259160000000  0.5578700000000  0.5392450000000 1.0
C      1  0.5447210000000  0.5385210000000  0.5609640000000 1.0
C      1  0.4105890000000  0.5292720000000  0.4586110000000 1.0
C      1  0.5009050000000  0.4665010000000  0.5147820000000 1.0
C      1  0.5422640000000  0.5299800000000  0.4313340000000 1.0
C      1  0.4449040000000  0.4045890000000  0.4927410000000 1.0
C      1  0.5820430000000  0.4985000000000  0.4460580000000 1.0
C      1  0.5055820000000  0.4555240000000  0.5524990000000 1.0
C      1  0.6157670000000  0.4858020000000  0.5196150000000 1.0
C      1  0.4725490000000  0.4577530000000  0.4606290000000 1.0
C      1  0.5182350000000  0.4152280000000  0.5154540000000 1.0
C      1  0.5315230000000  0.4914080000000  0.4278640000000 1.0
C      1  0.5394240000000  0.5315280000000  0.4627990000000 1.0
C      1  0.4050860000000  0.4675960000000  0.4885830000000 1.0
C      1  0.5253270000000  0.4884280000000  0.5165150000000 1.0
C      1  0.5650800000000  0.5083180000000  0.5445760000000 1.0
C      1  0.5603180000000  0.4770370000000  0.4879200000000 1.0
C      1  0.4656390000000  0.5271240000000  0.5527360000000 1.0
C      1  0.5754480000000  0.5408760000000  0.5650510000000 1.0
C      1  0.5873390000000  0.5287320000000  0.4917580000000 1.0
C      1  0.5100950000000  0.5238050000000  0.4184340000000 1.0
C      1  0.4535740000000  0.5604680000000  0.4789800000000 1.0
C      1  0.4405300000000  0.5772870000000  0.5613740000000 1.0
C      1  0.4849990000000  0.5533410000000  0.4916460000000 1.0
C      1  0.5100600000000  0.5330200000000  0.5274010000000 1.0
C      1  0.4873620000000  0.5017980000000  0.4427970000000 1.0
C      1  0.5792070000000  0.4624140000000  0.5195460000000 1.0
C      1  0.4399310000000  0.4571860000000  0.4193850000000 1.0
C      1  0.5678340000000  0.4370130000000  0.5715510000000 1.0
C      1  0.4097030000000  0.5309370000000  0.5638910000000 1.0
C      1  0.4946120000000  0.4793610000000  0.4206460000000 1.0
C      1  0.5053550000000  0.5518940000000  0.4645080000000 1.0
C      1  0.5034160000000  0.4640860000000  0.4487820000000 1.0
C      1  0.5151660000000  0.5727330000000  0.4391270000000 1.0
C      1  0.5568900000000  0.4791080000000  0.4076720000000 1.0
C      1  0.5393100000000  0.5901730000000  0.4416160000000 1.0
C      1  0.5466490000000  0.4612820000000  0.4343930000000 1.0
C      1  0.5670390000000  0.5083720000000  0.4224990000000 1.0
C      1  0.5206650000000  0.4002920000000  0.5641830000000 1.0
C      1  0.4998660000000  0.5460590000000  0.5555910000000 1.0
C      1  0.4345200000000  0.4844280000000  0.4144210000000 1.0
C      1  0.6003720000000  0.4698490000000  0.4967460000000 1.0
C      1  0.4943040000000  0.5105910000000  0.3958420000000 1.0
C      1  0.5805660000000  0.4617180000000  0.5729050000000 1.0
C      1  0.5111730000000  0.4638590000000  0.6018150000000 1.0
C      1  0.5236910000000  0.5128470000000  0.5648550000000 1.0
C      1  0.4781990000000  0.4889750000000  0.4671300000000 1.0
C      1  0.4261160000000  0.4384720000000  0.5235710000000 1.0
C      1  0.5251970000000  0.6098250000000  0.4873810000000 1.0
C      1  0.5622730000000  0.4211710000000  0.4963360000000 1.0
C      1  0.5665590000000  0.5880500000000  0.5109740000000 1.0
C      1  0.5453280000000  0.6075130000000  0.4676250000000 1.0
C      1  0.4797970000000  0.5638120000000  0.4227930000000 1.0
C      1  0.5640810000000  0.4734040000000  0.4579850000000 1.0
C      1  0.4177790000000  0.5187770000000  0.4908830000000 1.0
C      1  0.4385400000000  0.4979030000000  0.5498670000000 1.0
C      1  0.6176250000000  0.4558440000000  0.4518870000000 1.0
C      1  0.5721390000000  0.5891800000000  0.4779810000000 1.0
C      1  0.4766850000000  0.4671770000000  0.5387750000000 1.0
C      1  0.4657330000000  0.5681040000000  0.5791930000000 1.0
C      1  0.5146470000000  0.4563700000000  0.4111860000000 1.0
C      1  0.4328230000000  0.5183120000000  0.5735930000000 1.0
C      1  0.5086810000000  0.5225920000000  0.4511300000000 1.0
C      1  0.5061740000000  0.4434970000000  0.5806790000000 1.0
C      1  0.5077790000000  0.5001900000000  0.3753680000000 1.0
C      1  0.4708910000000  0.4858140000000  0.6049760000000 1.0
C      1  0.5711500000000  0.4346130000000  0.5200350000000 1.0
C      1  0.4549020000000  0.4086620000000  0.4622150000000 1.0
C      1  0.5283390000000  0.4505620000000  0.4773920000000 1.0
C      1  0.4104220000000  0.5409400000000  0.5114810000000 1.0
C      1  0.4645870000000  0.5990190000000  0.5170240000000 1.0
C      1  0.4613710000000  0.6117470000000  0.4924260000000 1.0
C      1  0.5179900000000  0.5109870000000  0.5983290000000 1.0
C      1  0.5701600000000  0.4917960000000  0.5740120000000 1.0
C      1  0.4242990000000  0.4572290000000  0.5447140000000 1.0
C      1  0.5134160000000  0.5704810000000  0.5212420000000 1.0
C      1  0.5278170000000  0.5633100000000  0.5765810000000 1.0
C      1  0.5411960000000  0.4603340000000  0.5901380000000 1.0
C      1  0.4702260000000  0.4481310000000  0.4153990000000 1.0
C      1  0.4168650000000  0.4443250000000  0.4977040000000 1.0
C      1  0.5201220000000  0.4862480000000  0.5482650000000 1.0
C      1  0.6057330000000  0.4841430000000  0.4659480000000 1.0
C      1  0.5433550000000  0.4660870000000  0.5592730000000 1.0
C      1  0.5411130000000  0.5077410000000  0.3990230000000 1.0
C      1  0.6005980000000  0.4456940000000  0.4743000000000 1.0
C      1  0.5392170000000  0.5417520000000  0.3991050000000 1.0
C      1  0.5356960000000  0.5746290000000  0.5467280000000 1.0
C      1  0.5209300000000  0.4159730000000  0.4592960000000 1.0
C      1  0.3892280000000  0.4968300000000  0.5303030000000 1.0
C      1  0.4153480000000  0.4759260000000  0.4583920000000 1.0
C      1  0.4243560000000  0.5692550000000  0.5017500000000 1.0
C      1  0.4873330000000  0.5863550000000  0.4468610000000 1.0
C      1  0.4543110000000  0.5288050000000  0.4874610000000 1.0
C      1  0.5448790000000  0.4931410000000  0.5923180000000 1.0
C      1  0.4291730000000  0.3774660000000  0.5662910000000 1.0
C      1  0.5624990000000  0.5600560000000  0.4929160000000 1.0
C      1  0.4550640000000  0.5919360000000  0.4664810000000 1.0
C      1  0.5455680000000  0.5963490000000  0.5281340000000 1.0
C      1  0.4248820000000  0.4479490000000  0.4475630000000 1.0
C      1  0.4512510000000  0.4705680000000  0.5563250000000 1.0
C      1  0.5037500000000  0.5207120000000  0.4980490000000 1.0
C      1  0.5559580000000  0.4280280000000  0.5453160000000 1.0
C      1  0.4706400000000  0.4478750000000  0.4982730000000 1.0
C      1  0.4135030000000  0.5284960000000  0.4247300000000 1.0
C      1  0.4615670000000  0.5463240000000  0.5155110000000 1.0
C      1  0.5284110000000  0.5025480000000  0.4877390000000 1.0
C      1  0.4720160000000  0.4105520000000  0.5119390000000 1.0
C      1  0.4923380000000  0.4332870000000  0.5204080000000 1.0
C      1  0.3874730000000  0.4897790000000  0.4999600000000 1.0
C      1  0.4425070000000  0.5335810000000  0.4516300000000 1.0
C      1  0.4931170000000  0.5965910000000  0.5299500000000 1.0
C      1  0.5022090000000  0.4497060000000  0.4860660000000 1.0
C      1  0.5219200000000  0.4195520000000  0.5850850000000 1.0
C      1  0.3991650000000  0.5271420000000  0.5383360000000 1.0
C      1  0.4764160000000  0.5080240000000  0.4908340000000 1.0
C      1  0.5257350000000  0.4355370000000  0.4312490000000 1.0
C      1  0.4428820000000  0.5824820000000  0.5226520000000 1.0
C      1  0.5338370000000  0.4135410000000  0.4910510000000 1.0
C      1  0.4294920000000  0.5146770000000  0.4074790000000 1.0
C      1  0.4342240000000  0.5005450000000  0.4444470000000 1.0
C      1  0.5115500000000  0.5563030000000  0.4126100000000 1.0
C      1  0.4007470000000  0.4713450000000  0.5479820000000 1.0
C      1  0.4859960000000  0.5838060000000  0.4784590000000 1.0
C      1  0.4396600000000  0.5295100000000  0.5359110000000 1.0
C      1  0.4652820000000  0.5592530000000  0.5461620000000 1.0
C      1  0.4765440000000  0.5467210000000  0.5946520000000 1.0
C      1  0.4930720000000  0.4338600000000  0.4362310000000 1.0
C      1  0.4838180000000  0.3975100000000  0.4871550000000 1.0
C      1  0.6141080000000  0.5041280000000  0.5362290000000 1.0
C      1  0.4554300000000  0.4370730000000  0.4485980000000 1.0
C      1  0.4988020000000  0.4881530000000  0.6065660000000 1.0
C      1  0.5349960000000  0.5615720000000  0.4761200000000 1.0
C      1  0.4402310000000  0.4948740000000  0.5014080000000 1.0
C      1  0.4626660000000  0.5158690000000  0.4337230000000 1.0
C      1  0.4414460000000  0.4122790000000  0.5247490000000 1.0
C      1  0.4884950000000  0.4103420000000  0.4594290000000 1.0
C      1  0.5500540000000  0.4336590000000  0.4605520000000 1.0
C      1  0.5776020000000  0.4299180000000  0.4721900000000 1.0
C      1  0.4562950000000  0.4718200000000  0.5868490000000 1.0
C      1  0.4710560000000  0.4784180000000  0.4004750000000 1.0
C      1  0.5492210000000  0.4292130000000  0.5939600000000 1.0
C      1  0.4649610000000  0.5194040000000  0.5842760000000 1.0
C      1  0.4874530000000  0.5110760000000  0.5376070000000 1.0
C      1  0.5323520000000  0.4488830000000  0.5317970000000 1.0
C      1  0.4689150000000  0.5368880000000  0.4105470000000 1.0
C      1  0.4209650000000  0.4966140000000  0.5247220000000 1.0
C      1  0.5556850000000  0.4811580000000  0.5310590000000 1.0
C      1  0.5910490000000  0.5406820000000  0.5131270000000 1.0
END
