TITL C-2778423-5760-1174 -0.00419767861405116 125000 -296.589567537402 0 0 51 (C1) n - 1
REM
REM in /home/nfs/bkarasulu/CARBON/AIRSS/Generating-Clusters/REBO/Only-C1/SD-CG/HFTN-CG
REM
REM
REM
REM
REM
REM ./C.cell (11c1c37f851c82e70ff6c80c92926a4b)
REM
REM compiler GCC version 9.2.1 20190827 (Red Hat 9.2.1-1)
REM options -cpp -mtune=generic -march=x86-64 -g -O0 -fpre-include=/usr/include/finclude/math-vector-fortran.h
REM seed -1906300761 -129297016 -1113834518 736727009 1523585608 -1082105495 559606735 2067215528 -1607016020 -237266409 1306391832 -640544233 -565190929 -1259281731 976592393 -439015137 -1115560596 -1978954943 -1835341372 910855612 -338667449 -688693439 -280756559 -506107036 -736076489 1577081140 -1228156777 249997953 -1514183358 -2398624 -280334162 -491363988 -856212210
REM
CELL 1.54180   50.00000   50.00000   50.00000   90.00000   90.00000   90.00000
LATT -1
SFAC C  
C      1  0.5068970000000  0.5483730000000  0.4819000000000 1.0
C      1  0.5555090000000  0.5277790000000  0.4809000000000 1.0
C      1  0.4700500000000  0.4476610000000  0.5233200000000 1.0
C      1  0.4684260000000  0.4910110000000  0.4785310000000 1.0
C      1  0.5566330000000  0.4886620000000  0.4827600000000 1.0
C      1  0.5274030000000  0.4756010000000  0.4596180000000 1.0
C      1  0.4522070000000  0.5142580000000  0.5400430000000 1.0
C      1  0.4333870000000  0.4637460000000  0.4959320000000 1.0
C      1  0.4991850000000  0.5669830000000  0.5406890000000 1.0
C      1  0.4605880000000  0.4764650000000  0.5701330000000 1.0
C      1  0.5322260000000  0.5035360000000  0.5271210000000 1.0
C      1  0.5412360000000  0.5066400000000  0.4581540000000 1.0
C      1  0.5054050000000  0.5193300000000  0.4910040000000 1.0
C      1  0.5414040000000  0.4591310000000  0.4837190000000 1.0
C      1  0.4614880000000  0.4906880000000  0.4319740000000 1.0
C      1  0.5054690000000  0.5055040000000  0.4183690000000 1.0
C      1  0.5042400000000  0.5380600000000  0.4181320000000 1.0
C      1  0.4894650000000  0.4850940000000  0.4295400000000 1.0
C      1  0.5104470000000  0.5499460000000  0.4489950000000 1.0
C      1  0.4997200000000  0.5069730000000  0.5828440000000 1.0
C      1  0.5241900000000  0.4547000000000  0.5063800000000 1.0
C      1  0.5977830000000  0.4491350000000  0.4851010000000 1.0
C      1  0.4806440000000  0.4613740000000  0.4735840000000 1.0
C      1  0.4885350000000  0.5695720000000  0.4641590000000 1.0
C      1  0.4920200000000  0.4486650000000  0.4980290000000 1.0
C      1  0.5056750000000  0.5272730000000  0.5642870000000 1.0
C      1  0.5540120000000  0.5535050000000  0.4898590000000 1.0
C      1  0.4477620000000  0.4573100000000  0.4732010000000 1.0
C      1  0.4120350000000  0.4852690000000  0.5541460000000 1.0
C      1  0.5250710000000  0.5272490000000  0.5417180000000 1.0
C      1  0.5223470000000  0.5542180000000  0.5280830000000 1.0
C      1  0.5277010000000  0.4758030000000  0.5322760000000 1.0
C      1  0.4818310000000  0.5053970000000  0.4991690000000 1.0
C      1  0.4520760000000  0.5001940000000  0.4572100000000 1.0
C      1  0.5075380000000  0.4664850000000  0.5550240000000 1.0
C      1  0.4389080000000  0.4842710000000  0.5456860000000 1.0
C      1  0.6211210000000  0.4372440000000  0.4859940000000 1.0
C      1  0.4705810000000  0.5877680000000  0.4630420000000 1.0
C      1  0.5338970000000  0.5085440000000  0.4973680000000 1.0
C      1  0.5747350000000  0.4608770000000  0.4842200000000 1.0
C      1  0.5029050000000  0.4447040000000  0.5306020000000 1.0
C      1  0.4320230000000  0.5182460000000  0.4599650000000 1.0
C      1  0.4854270000000  0.5481420000000  0.5581250000000 1.0
C      1  0.4906060000000  0.4808320000000  0.5777620000000 1.0
C      1  0.5007050000000  0.4701720000000  0.4512670000000 1.0
C      1  0.5265640000000  0.5221910000000  0.4386030000000 1.0
C      1  0.4772020000000  0.4732820000000  0.5411400000000 1.0
C      1  0.5282680000000  0.5599120000000  0.5005290000000 1.0
C      1  0.4736410000000  0.4992090000000  0.5258820000000 1.0
C      1  0.4435760000000  0.4647240000000  0.5213280000000 1.0
C      1  0.4592380000000  0.5382880000000  0.5525850000000 1.0
END
