TITL C-2778433-5640-262 0.00190915834075157 125000 -251.336340531845 0 0 45 (C1) n - 1
REM
REM in /home/nfs/bkarasulu/CARBON/AIRSS/Generating-Clusters/REBO/Only-C1/SD-CG/HFTN-CG
REM
REM
REM
REM
REM
REM ./C.cell (11c1c37f851c82e70ff6c80c92926a4b)
REM
REM compiler GCC version 9.2.1 20190827 (Red Hat 9.2.1-1)
REM options -cpp -mtune=generic -march=x86-64 -g -O0 -fpre-include=/usr/include/finclude/math-vector-fortran.h
REM seed 1917485953 444747681 501361386 -1302704053 1164550196 -2111046459 -1673607676 -1985198883 1229778893 -1827424497 1576203062 -1210537091 -1832167918 -221939961 1479643326 -1857650783 -1467882563 652668638 -109869495 1958983454 -664249642 -765115918 669855296 488041631 1785618522 -1666034101 -1938277136 1735615969 -572931814 821368903 752513989 1454056272 -728451546
REM
CELL 1.54180   50.00000   50.00000   50.00000   90.00000   90.00000   90.00000
LATT -1
SFAC C  
C      1  0.5956180000000  0.5172560000000  0.4763120000000 1.0
C      1  0.5237650000000  0.5554360000000  0.4576330000000 1.0
C      1  0.5713020000000  0.5096420000000  0.4748870000000 1.0
C      1  0.5250580000000  0.5168400000000  0.4929310000000 1.0
C      1  0.5291180000000  0.5359380000000  0.5217060000000 1.0
C      1  0.4582130000000  0.5089170000000  0.5387910000000 1.0
C      1  0.4965930000000  0.5023870000000  0.5046570000000 1.0
C      1  0.4997790000000  0.5013320000000  0.5595960000000 1.0
C      1  0.5536140000000  0.4635170000000  0.5052470000000 1.0
C      1  0.5529140000000  0.5413120000000  0.5391660000000 1.0
C      1  0.5578160000000  0.5188520000000  0.5567670000000 1.0
C      1  0.5600870000000  0.4822660000000  0.5525200000000 1.0
C      1  0.5107400000000  0.5614100000000  0.5089300000000 1.0
C      1  0.4683970000000  0.4460990000000  0.5201120000000 1.0
C      1  0.4866430000000  0.4516220000000  0.4757950000000 1.0
C      1  0.4524550000000  0.4785060000000  0.4875750000000 1.0
C      1  0.4671300000000  0.5137560000000  0.5125890000000 1.0
C      1  0.5408600000000  0.4697060000000  0.4778200000000 1.0
C      1  0.5842310000000  0.5010790000000  0.5648400000000 1.0
C      1  0.5141960000000  0.5089670000000  0.5304240000000 1.0
C      1  0.4770630000000  0.5063770000000  0.4555200000000 1.0
C      1  0.5550360000000  0.4561630000000  0.4570650000000 1.0
C      1  0.4843090000000  0.5702910000000  0.5073460000000 1.0
C      1  0.4210100000000  0.4490840000000  0.5101270000000 1.0
C      1  0.4472600000000  0.4577870000000  0.5060360000000 1.0
C      1  0.5608710000000  0.4661050000000  0.5285380000000 1.0
C      1  0.5113050000000  0.4607290000000  0.4781630000000 1.0
C      1  0.4882120000000  0.4351420000000  0.5333070000000 1.0
C      1  0.4042080000000  0.4888920000000  0.4677210000000 1.0
C      1  0.3787220000000  0.4850190000000  0.4630020000000 1.0
C      1  0.4556790000000  0.5311820000000  0.4927260000000 1.0
C      1  0.3964020000000  0.4409260000000  0.5139630000000 1.0
C      1  0.5218260000000  0.5479600000000  0.4845910000000 1.0
C      1  0.5307940000000  0.5061880000000  0.4452330000000 1.0
C      1  0.4617630000000  0.5585780000000  0.4968560000000 1.0
C      1  0.4503290000000  0.5161880000000  0.4680330000000 1.0
C      1  0.5214240000000  0.5359500000000  0.4372880000000 1.0
C      1  0.4624450000000  0.4421080000000  0.4725200000000 1.0
C      1  0.5418450000000  0.5004180000000  0.4731600000000 1.0
C      1  0.4731900000000  0.5027660000000  0.5609270000000 1.0
C      1  0.4308920000000  0.4929480000000  0.4726620000000 1.0
C      1  0.4777550000000  0.4905770000000  0.4818350000000 1.0
C      1  0.4995630000000  0.5122870000000  0.4406670000000 1.0
C      1  0.5674460000000  0.5633750000000  0.5378600000000 1.0
C      1  0.5321230000000  0.4981170000000  0.5565580000000 1.0
END
