TITL C-2778432-5617-547 -0.000515741073297555 125000 -899.247642255204 0 0 156 (C1) n - 1
REM
REM in /home/nfs/bkarasulu/CARBON/AIRSS/Generating-Clusters/REBO/Only-C1/SD-CG/HFTN-CG
REM
REM
REM
REM
REM
REM ./C.cell (11c1c37f851c82e70ff6c80c92926a4b)
REM
REM compiler GCC version 9.2.1 20190827 (Red Hat 9.2.1-1)
REM options -cpp -mtune=generic -march=x86-64 -g -O0 -fpre-include=/usr/include/finclude/math-vector-fortran.h
REM seed 571319906 708303453 -760881047 -1326804636 -1735293025 193534894 586802868 590263096 -1598438899 -1603645535 -264135556 1323405393 -881976624 -1991672841 541485879 363102559 -317164420 -672253990 550470808 -689869866 -1599219561 -1812958213 2030717129 -1734159413 1361127760 -1826224496 467982276 -171005126 -782449003 -686474911 1132846769 -1514258651 1443053858
REM
CELL 1.54180   50.00000   50.00000   50.00000   90.00000   90.00000   90.00000
LATT -1
SFAC C  
C      1  0.4350540000000  0.5556570000000  0.5485340000000 1.0
C      1  0.4262070000000  0.5717740000000  0.5027070000000 1.0
C      1  0.5713980000000  0.4781410000000  0.4847390000000 1.0
C      1  0.4392160000000  0.5773900000000  0.5313270000000 1.0
C      1  0.5614190000000  0.5794730000000  0.5407360000000 1.0
C      1  0.4505280000000  0.4839490000000  0.5595390000000 1.0
C      1  0.5085320000000  0.5094860000000  0.4579000000000 1.0
C      1  0.4124540000000  0.5357630000000  0.5395370000000 1.0
C      1  0.5122040000000  0.6073070000000  0.5101910000000 1.0
C      1  0.4109010000000  0.5252640000000  0.4665540000000 1.0
C      1  0.4943090000000  0.4727890000000  0.4003070000000 1.0
C      1  0.4587420000000  0.5051100000000  0.4716820000000 1.0
C      1  0.4760140000000  0.4658240000000  0.4936990000000 1.0
C      1  0.5108700000000  0.5925130000000  0.4797010000000 1.0
C      1  0.4931340000000  0.5199050000000  0.4289680000000 1.0
C      1  0.4861550000000  0.4612110000000  0.5664090000000 1.0
C      1  0.4333910000000  0.4969080000000  0.4270270000000 1.0
C      1  0.4956790000000  0.5870420000000  0.5262260000000 1.0
C      1  0.5260090000000  0.5586940000000  0.5142100000000 1.0
C      1  0.4930970000000  0.4829960000000  0.6125510000000 1.0
C      1  0.4555800000000  0.5391800000000  0.5634330000000 1.0
C      1  0.5407180000000  0.5122090000000  0.5496840000000 1.0
C      1  0.4475070000000  0.4746920000000  0.4642130000000 1.0
C      1  0.5207960000000  0.5079790000000  0.5152700000000 1.0
C      1  0.5188710000000  0.5279760000000  0.5892890000000 1.0
C      1  0.5372970000000  0.5536490000000  0.4874720000000 1.0
C      1  0.5384990000000  0.5794920000000  0.4539200000000 1.0
C      1  0.5731940000000  0.4726140000000  0.5446750000000 1.0
C      1  0.4440260000000  0.4293140000000  0.4571520000000 1.0
C      1  0.4688060000000  0.4651070000000  0.4215290000000 1.0
C      1  0.3938340000000  0.5316090000000  0.4889200000000 1.0
C      1  0.4720360000000  0.5809350000000  0.4787920000000 1.0
C      1  0.5350430000000  0.4504700000000  0.5092870000000 1.0
C      1  0.4590670000000  0.4143830000000  0.5577310000000 1.0
C      1  0.5853960000000  0.4856120000000  0.4380090000000 1.0
C      1  0.5097460000000  0.5973990000000  0.4487490000000 1.0
C      1  0.4243040000000  0.4427690000000  0.5319560000000 1.0
C      1  0.4862950000000  0.5833360000000  0.5565790000000 1.0
C      1  0.4436340000000  0.5342700000000  0.4729870000000 1.0
C      1  0.4188310000000  0.5533010000000  0.4511790000000 1.0
C      1  0.4910910000000  0.4381940000000  0.5986340000000 1.0
C      1  0.4272620000000  0.5789970000000  0.4703930000000 1.0
C      1  0.4642610000000  0.5937150000000  0.5322770000000 1.0
C      1  0.4765860000000  0.4901900000000  0.5403570000000 1.0
C      1  0.5174890000000  0.5591670000000  0.4418420000000 1.0
C      1  0.4969530000000  0.5160280000000  0.5393490000000 1.0
C      1  0.4727860000000  0.5400150000000  0.4462580000000 1.0
C      1  0.4742780000000  0.4954380000000  0.5071930000000 1.0
C      1  0.4919080000000  0.5613500000000  0.4185080000000 1.0
C      1  0.5256490000000  0.4728860000000  0.3992860000000 1.0
C      1  0.5356230000000  0.5869590000000  0.5244010000000 1.0
C      1  0.5350090000000  0.4027260000000  0.4891280000000 1.0
C      1  0.5355660000000  0.5490770000000  0.5723060000000 1.0
C      1  0.5029600000000  0.5584320000000  0.5688720000000 1.0
C      1  0.5402460000000  0.5989580000000  0.4934700000000 1.0
C      1  0.5248670000000  0.4579820000000  0.4788300000000 1.0
C      1  0.5734960000000  0.5088210000000  0.5160000000000 1.0
C      1  0.5751800000000  0.5307570000000  0.5419920000000 1.0
C      1  0.5939310000000  0.4459900000000  0.4785090000000 1.0
C      1  0.5113450000000  0.4168010000000  0.5615230000000 1.0
C      1  0.5727710000000  0.4374820000000  0.5207170000000 1.0
C      1  0.5042730000000  0.4428840000000  0.5184350000000 1.0
C      1  0.4435240000000  0.4262610000000  0.4969850000000 1.0
C      1  0.5356680000000  0.4643380000000  0.5898530000000 1.0
C      1  0.4410760000000  0.4013820000000  0.5021270000000 1.0
C      1  0.4986560000000  0.4137370000000  0.5152450000000 1.0
C      1  0.4797020000000  0.4605370000000  0.5255540000000 1.0
C      1  0.5602220000000  0.5562930000000  0.5583750000000 1.0
C      1  0.4890350000000  0.5373860000000  0.5907890000000 1.0
C      1  0.4536340000000  0.5568900000000  0.4901460000000 1.0
C      1  0.5622090000000  0.4678050000000  0.5125500000000 1.0
C      1  0.5731990000000  0.5272780000000  0.4369080000000 1.0
C      1  0.5289570000000  0.4307780000000  0.4490560000000 1.0
C      1  0.5117170000000  0.3996630000000  0.5366600000000 1.0
C      1  0.4832850000000  0.5417470000000  0.5476170000000 1.0
C      1  0.4757050000000  0.4962410000000  0.4131260000000 1.0
C      1  0.5027080000000  0.4449930000000  0.4269070000000 1.0
C      1  0.5460880000000  0.5058560000000  0.4977500000000 1.0
C      1  0.5190210000000  0.4444930000000  0.6008820000000 1.0
C      1  0.5815850000000  0.5367950000000  0.4670690000000 1.0
C      1  0.5362770000000  0.5026600000000  0.4001370000000 1.0
C      1  0.4207350000000  0.4955890000000  0.4587070000000 1.0
C      1  0.5872500000000  0.4973530000000  0.4664920000000 1.0
C      1  0.4654070000000  0.5478520000000  0.5200740000000 1.0
C      1  0.4152570000000  0.4418760000000  0.4704830000000 1.0
C      1  0.5655960000000  0.5480080000000  0.5150710000000 1.0
C      1  0.5064890000000  0.4991010000000  0.5651160000000 1.0
C      1  0.4962390000000  0.4217170000000  0.4462500000000 1.0
C      1  0.5556170000000  0.5534010000000  0.4237760000000 1.0
C      1  0.5014430000000  0.5416570000000  0.4614130000000 1.0
C      1  0.5710100000000  0.5782190000000  0.5083970000000 1.0
C      1  0.5478220000000  0.5107310000000  0.4528400000000 1.0
C      1  0.5647140000000  0.4995950000000  0.4187230000000 1.0
C      1  0.4507720000000  0.4622160000000  0.5845700000000 1.0
C      1  0.5241870000000  0.5542240000000  0.4102950000000 1.0
C      1  0.4504930000000  0.5655670000000  0.4491310000000 1.0
C      1  0.4100580000000  0.4465900000000  0.5039240000000 1.0
C      1  0.4821630000000  0.4906530000000  0.5828620000000 1.0
C      1  0.4316980000000  0.4491890000000  0.5649080000000 1.0
C      1  0.4692700000000  0.4206590000000  0.4593100000000 1.0
C      1  0.5437380000000  0.4055940000000  0.5411960000000 1.0
C      1  0.5795070000000  0.4601970000000  0.4557270000000 1.0
C      1  0.6072800000000  0.4646060000000  0.4960050000000 1.0
C      1  0.5102390000000  0.3941250000000  0.4823690000000 1.0
C      1  0.5061000000000  0.5184040000000  0.4003170000000 1.0
C      1  0.4559790000000  0.5203780000000  0.4130900000000 1.0
C      1  0.4466390000000  0.4556160000000  0.4908640000000 1.0
C      1  0.6052800000000  0.5186960000000  0.4795590000000 1.0
C      1  0.5354110000000  0.4534370000000  0.4249800000000 1.0
C      1  0.5280500000000  0.4399590000000  0.5591850000000 1.0
C      1  0.5355520000000  0.5258210000000  0.4251330000000 1.0
C      1  0.4310490000000  0.4804010000000  0.5076390000000 1.0
C      1  0.4094140000000  0.5145830000000  0.5602720000000 1.0
C      1  0.6007700000000  0.4972120000000  0.5040380000000 1.0
C      1  0.4389610000000  0.4163090000000  0.5434610000000 1.0
C      1  0.4259590000000  0.4476020000000  0.4386920000000 1.0
C      1  0.4711590000000  0.5447240000000  0.4066160000000 1.0
C      1  0.4698470000000  0.6018160000000  0.4996470000000 1.0
C      1  0.4074450000000  0.5456830000000  0.5092250000000 1.0
C      1  0.4756800000000  0.4596300000000  0.4524400000000 1.0
C      1  0.5993910000000  0.4715380000000  0.5263990000000 1.0
C      1  0.5731580000000  0.4314280000000  0.4917360000000 1.0
C      1  0.4382060000000  0.4669800000000  0.4219860000000 1.0
C      1  0.5711590000000  0.5006830000000  0.5551370000000 1.0
C      1  0.5386460000000  0.4841210000000  0.4351550000000 1.0
C      1  0.5117650000000  0.4616540000000  0.5526460000000 1.0
C      1  0.5201340000000  0.4942130000000  0.5947700000000 1.0
C      1  0.4880680000000  0.4165000000000  0.4849580000000 1.0
C      1  0.5628000000000  0.5854240000000  0.4773770000000 1.0
C      1  0.4823480000000  0.4916630000000  0.4548410000000 1.0
C      1  0.4816350000000  0.5789940000000  0.4458490000000 1.0
C      1  0.4379120000000  0.5316610000000  0.5167500000000 1.0
C      1  0.4948180000000  0.4485130000000  0.4758050000000 1.0
C      1  0.4450230000000  0.5070670000000  0.5022620000000 1.0
C      1  0.5686490000000  0.5634270000000  0.4532260000000 1.0
C      1  0.5386620000000  0.5366950000000  0.5324940000000 1.0
C      1  0.4833220000000  0.4272920000000  0.5703950000000 1.0
C      1  0.4465420000000  0.4658310000000  0.5319060000000 1.0
C      1  0.5591760000000  0.5330620000000  0.4877480000000 1.0
C      1  0.4721530000000  0.4592870000000  0.6050590000000 1.0
C      1  0.4986690000000  0.5626380000000  0.4829560000000 1.0
C      1  0.4118260000000  0.4729370000000  0.4820000000000 1.0
C      1  0.4660610000000  0.5162040000000  0.5856200000000 1.0
C      1  0.5453870000000  0.4305950000000  0.4761730000000 1.0
C      1  0.5382720000000  0.4187350000000  0.5136490000000 1.0
C      1  0.5235260000000  0.4865840000000  0.5399240000000 1.0
C      1  0.5310910000000  0.4899690000000  0.4738040000000 1.0
C      1  0.4959810000000  0.5119990000000  0.4995690000000 1.0
C      1  0.5633880000000  0.4279410000000  0.5451580000000 1.0
C      1  0.3877740000000  0.5025390000000  0.5686480000000 1.0
C      1  0.5051990000000  0.4782850000000  0.4331260000000 1.0
C      1  0.4378630000000  0.5106390000000  0.5691100000000 1.0
C      1  0.5526240000000  0.5085030000000  0.5807110000000 1.0
C      1  0.5572910000000  0.4525880000000  0.5661750000000 1.0
C      1  0.4947970000000  0.5585600000000  0.5133720000000 1.0
C      1  0.4418120000000  0.5247850000000  0.4413210000000 1.0
END
