TITL C-2778427-5640-1059 -0.00175662295035165 125000 -191.160910181241 0 0 35 (C1) n - 1
REM
REM in /home/nfs/bkarasulu/CARBON/AIRSS/Generating-Clusters/REBO/Only-C1/SD-CG/HFTN-CG
REM
REM
REM
REM
REM
REM ./C.cell (11c1c37f851c82e70ff6c80c92926a4b)
REM
REM compiler GCC version 9.2.1 20190827 (Red Hat 9.2.1-1)
REM options -cpp -mtune=generic -march=x86-64 -g -O0 -fpre-include=/usr/include/finclude/math-vector-fortran.h
REM seed -13745931 -1599468714 1018334036 1541483839 -221138301 1495602960 1252582171 1563040029 2135098129 -1791290626 -1294627218 1731856209 244705364 1240671237 481098799 -1745026967 589645549 804442184 -1811377702 1807054823 -1891051001 -1799841865 -1217895188 -682878711 21451998 277558117 -122325285 -479308579 -1505593328 1007541041 581948012 883313877 1997562092
REM
CELL 1.54180   50.00000   50.00000   50.00000   90.00000   90.00000   90.00000
LATT -1
SFAC C  
C      1  0.4603200000000  0.4789610000000  0.4571100000000 1.0
C      1  0.5211640000000  0.4892770000000  0.5775610000000 1.0
C      1  0.4376110000000  0.4975600000000  0.4969330000000 1.0
C      1  0.4379120000000  0.5219870000000  0.4777080000000 1.0
C      1  0.4465960000000  0.5382730000000  0.5239080000000 1.0
C      1  0.4641230000000  0.4542570000000  0.4782190000000 1.0
C      1  0.5473890000000  0.5355130000000  0.4601970000000 1.0
C      1  0.4922570000000  0.4881640000000  0.5004520000000 1.0
C      1  0.4653170000000  0.4937410000000  0.4840780000000 1.0
C      1  0.5573210000000  0.4248370000000  0.5323340000000 1.0
C      1  0.4582590000000  0.4672880000000  0.5294570000000 1.0
C      1  0.4743130000000  0.4616490000000  0.5055090000000 1.0
C      1  0.4922000000000  0.4902000000000  0.5626250000000 1.0
C      1  0.4469760000000  0.5147610000000  0.5405460000000 1.0
C      1  0.5444080000000  0.4792560000000  0.5029950000000 1.0
C      1  0.5040660000000  0.5620330000000  0.4471040000000 1.0
C      1  0.5675510000000  0.4632700000000  0.4835690000000 1.0
C      1  0.5356070000000  0.4174480000000  0.5125450000000 1.0
C      1  0.5213690000000  0.4901690000000  0.5163850000000 1.0
C      1  0.5069400000000  0.5175750000000  0.5051360000000 1.0
C      1  0.5645290000000  0.5227570000000  0.4783320000000 1.0
C      1  0.4578610000000  0.4288510000000  0.4707680000000 1.0
C      1  0.5973740000000  0.5532200000000  0.5088800000000 1.0
C      1  0.4449030000000  0.5068040000000  0.4524840000000 1.0
C      1  0.5814980000000  0.5384960000000  0.4941150000000 1.0
C      1  0.4374230000000  0.4900950000000  0.5243180000000 1.0
C      1  0.4970790000000  0.5413950000000  0.5001090000000 1.0
C      1  0.5195370000000  0.4873400000000  0.5455140000000 1.0
C      1  0.5515200000000  0.4470550000000  0.5072150000000 1.0
C      1  0.5654380000000  0.4950540000000  0.4811190000000 1.0
C      1  0.5280140000000  0.5496910000000  0.4483090000000 1.0
C      1  0.4494600000000  0.5432110000000  0.4951790000000 1.0
C      1  0.4814200000000  0.5653060000000  0.4618900000000 1.0
C      1  0.4751410000000  0.5536240000000  0.4868480000000 1.0
C      1  0.4671070000000  0.4908820000000  0.5505470000000 1.0
END
