TITL C-2778434-4341-268 0.0827319672444901 125000 -772.797436046094 0 0 132 (C1) n - 1
REM
REM in /home/nfs/bkarasulu/CARBON/AIRSS/Generating-Clusters/REBO/Only-C1/SD-CG/HFTN-CG
REM
REM
REM
REM
REM
REM ./C.cell (11c1c37f851c82e70ff6c80c92926a4b)
REM
REM compiler GCC version 9.2.1 20190827 (Red Hat 9.2.1-1)
REM options -cpp -mtune=generic -march=x86-64 -g -O0 -fpre-include=/usr/include/finclude/math-vector-fortran.h
REM seed -608799775 225587853 84177550 -1719224360 -697709990 1946713892 -803770280 1497622499 796788746 -1475659126 1419104920 -1420143386 1646398196 -287974799 -434487582 -1498140225 -813598781 -1525794436 -1616485024 -409957212 1382159381 -1562210813 -1846655122 1172130315 -793540533 991359146 -1744873078 -773905994 1117656712 -1587758116 -401248066 -1690479979 -1601161748
REM
CELL 1.54180   50.00000   50.00000   50.00000   90.00000   90.00000   90.00000
LATT -1
SFAC C  
C      1  0.4737610000000  0.4443670000000  0.5626120000000 1.0
C      1  0.5322400000000  0.5207830000000  0.4974660000000 1.0
C      1  0.5865990000000  0.4921520000000  0.5506010000000 1.0
C      1  0.5282540000000  0.5275690000000  0.4648850000000 1.0
C      1  0.5405360000000  0.4059630000000  0.4791050000000 1.0
C      1  0.4101300000000  0.5173790000000  0.5123460000000 1.0
C      1  0.5049470000000  0.4344250000000  0.5719280000000 1.0
C      1  0.5646430000000  0.5452730000000  0.5523800000000 1.0
C      1  0.5842950000000  0.5693680000000  0.5149850000000 1.0
C      1  0.5643770000000  0.5183800000000  0.4478440000000 1.0
C      1  0.4884370000000  0.5074460000000  0.4396400000000 1.0
C      1  0.5278410000000  0.4444620000000  0.4179670000000 1.0
C      1  0.4641200000000  0.4969870000000  0.4205850000000 1.0
C      1  0.4468700000000  0.5410780000000  0.5093160000000 1.0
C      1  0.4761570000000  0.4051590000000  0.4764690000000 1.0
C      1  0.5408370000000  0.5045620000000  0.5809980000000 1.0
C      1  0.4878290000000  0.5170970000000  0.3842990000000 1.0
C      1  0.4561590000000  0.5778950000000  0.4644550000000 1.0
C      1  0.4691790000000  0.4911150000000  0.4604540000000 1.0
C      1  0.5215200000000  0.5466420000000  0.4186230000000 1.0
C      1  0.4681210000000  0.4710110000000  0.5840210000000 1.0
C      1  0.5506020000000  0.4520110000000  0.5599750000000 1.0
C      1  0.5222810000000  0.5956020000000  0.4799190000000 1.0
C      1  0.4245690000000  0.4887510000000  0.5572110000000 1.0
C      1  0.5309150000000  0.4568600000000  0.4587710000000 1.0
C      1  0.5562520000000  0.4306590000000  0.5153960000000 1.0
C      1  0.4003900000000  0.4637780000000  0.5195290000000 1.0
C      1  0.5544720000000  0.5485280000000  0.4601540000000 1.0
C      1  0.5633250000000  0.4561890000000  0.4516800000000 1.0
C      1  0.5604380000000  0.4833290000000  0.5675170000000 1.0
C      1  0.5146280000000  0.4738540000000  0.4415960000000 1.0
C      1  0.4515730000000  0.5500580000000  0.4277040000000 1.0
C      1  0.5137030000000  0.5777550000000  0.5547190000000 1.0
C      1  0.4679670000000  0.4610850000000  0.4536200000000 1.0
C      1  0.5613680000000  0.5705370000000  0.5352810000000 1.0
C      1  0.4873560000000  0.5821470000000  0.5648100000000 1.0
C      1  0.5082140000000  0.5488630000000  0.4831870000000 1.0
C      1  0.5555010000000  0.4882460000000  0.4534320000000 1.0
C      1  0.5271590000000  0.3979800000000  0.5037700000000 1.0
C      1  0.4658470000000  0.4290890000000  0.5362490000000 1.0
C      1  0.5186050000000  0.5069130000000  0.4449960000000 1.0
C      1  0.4883770000000  0.5312950000000  0.5724070000000 1.0
C      1  0.4831760000000  0.5455610000000  0.4287990000000 1.0
C      1  0.5121320000000  0.5070470000000  0.5415280000000 1.0
C      1  0.4787340000000  0.5391390000000  0.5135630000000 1.0
C      1  0.5296720000000  0.4321350000000  0.5575660000000 1.0
C      1  0.5332700000000  0.5353870000000  0.5933950000000 1.0
C      1  0.5004320000000  0.4574770000000  0.4192380000000 1.0
C      1  0.4710180000000  0.5823200000000  0.5199680000000 1.0
C      1  0.4549280000000  0.5296420000000  0.5748980000000 1.0
C      1  0.4748170000000  0.4480330000000  0.4254320000000 1.0
C      1  0.4987260000000  0.5355530000000  0.4019370000000 1.0
C      1  0.4954900000000  0.5093210000000  0.6049760000000 1.0
C      1  0.5240470000000  0.4057420000000  0.4554690000000 1.0
C      1  0.5607080000000  0.4947830000000  0.5293040000000 1.0
C      1  0.5626000000000  0.4229330000000  0.4866560000000 1.0
C      1  0.5055650000000  0.5665900000000  0.4410820000000 1.0
C      1  0.5350530000000  0.4866370000000  0.5457870000000 1.0
C      1  0.5291190000000  0.5674700000000  0.4636550000000 1.0
C      1  0.4222690000000  0.5092780000000  0.4815700000000 1.0
C      1  0.4425390000000  0.5203990000000  0.4565300000000 1.0
C      1  0.4774810000000  0.4151460000000  0.5074510000000 1.0
C      1  0.4921060000000  0.4977820000000  0.5666740000000 1.0
C      1  0.5434130000000  0.5298530000000  0.4236550000000 1.0
C      1  0.4925240000000  0.5204920000000  0.4810240000000 1.0
C      1  0.5171660000000  0.5463630000000  0.5437710000000 1.0
C      1  0.4240490000000  0.5401900000000  0.5347510000000 1.0
C      1  0.4772680000000  0.6067590000000  0.4974800000000 1.0
C      1  0.5485280000000  0.4634320000000  0.4232070000000 1.0
C      1  0.5158210000000  0.4893910000000  0.5975020000000 1.0
C      1  0.4830510000000  0.5858640000000  0.4548790000000 1.0
C      1  0.5218980000000  0.5734390000000  0.5024770000000 1.0
C      1  0.5616100000000  0.4806270000000  0.5007320000000 1.0
C      1  0.5002390000000  0.4639000000000  0.5860350000000 1.0
C      1  0.5622380000000  0.5199580000000  0.5075140000000 1.0
C      1  0.4456570000000  0.5530320000000  0.5543660000000 1.0
C      1  0.5299970000000  0.4192570000000  0.4312160000000 1.0
C      1  0.4465880000000  0.5101690000000  0.5483840000000 1.0
C      1  0.5822740000000  0.5380020000000  0.5258120000000 1.0
C      1  0.4193780000000  0.5408030000000  0.4658990000000 1.0
C      1  0.5167290000000  0.4441820000000  0.4847670000000 1.0
C      1  0.4461710000000  0.4363610000000  0.4317560000000 1.0
C      1  0.4267570000000  0.4756000000000  0.4769190000000 1.0
C      1  0.4976610000000  0.5639930000000  0.5210960000000 1.0
C      1  0.5099960000000  0.4912180000000  0.4827750000000 1.0
C      1  0.4759770000000  0.5239550000000  0.5416270000000 1.0
C      1  0.4722170000000  0.4963580000000  0.4940540000000 1.0
C      1  0.4679510000000  0.5024460000000  0.5907610000000 1.0
C      1  0.5105230000000  0.5267420000000  0.5166500000000 1.0
C      1  0.4390780000000  0.4790990000000  0.5076630000000 1.0
C      1  0.4924840000000  0.4630620000000  0.4754800000000 1.0
C      1  0.4222880000000  0.4538750000000  0.4300580000000 1.0
C      1  0.4700970000000  0.4978700000000  0.3930850000000 1.0
C      1  0.5432850000000  0.4937370000000  0.4803940000000 1.0
C      1  0.4711600000000  0.5304230000000  0.4565130000000 1.0
C      1  0.5345960000000  0.5799280000000  0.5313190000000 1.0
C      1  0.5999550000000  0.5203590000000  0.4946030000000 1.0
C      1  0.4472880000000  0.4404340000000  0.5127020000000 1.0
C      1  0.4530590000000  0.5866630000000  0.4916690000000 1.0
C      1  0.4178970000000  0.4465720000000  0.5172560000000 1.0
C      1  0.4398320000000  0.5597900000000  0.4504020000000 1.0
C      1  0.5706930000000  0.4550010000000  0.5335350000000 1.0
C      1  0.5076170000000  0.4699020000000  0.5543050000000 1.0
C      1  0.4077240000000  0.5179370000000  0.5516900000000 1.0
C      1  0.4853940000000  0.4968290000000  0.5257040000000 1.0
C      1  0.4483990000000  0.4682450000000  0.5586020000000 1.0
C      1  0.5421280000000  0.4610850000000  0.5160040000000 1.0
C      1  0.4026560000000  0.4912650000000  0.5313020000000 1.0
C      1  0.4966970000000  0.3995780000000  0.4606130000000 1.0
C      1  0.4953830000000  0.6042420000000  0.4744610000000 1.0
C      1  0.5972330000000  0.5837860000000  0.4961410000000 1.0
C      1  0.5391200000000  0.5329710000000  0.5616000000000 1.0
C      1  0.4927160000000  0.4580560000000  0.5301650000000 1.0
C      1  0.5038710000000  0.4308830000000  0.5132940000000 1.0
C      1  0.5777740000000  0.4433790000000  0.4740160000000 1.0
C      1  0.5869610000000  0.4634770000000  0.4923510000000 1.0
C      1  0.5137070000000  0.4690890000000  0.5085360000000 1.0
C      1  0.4641510000000  0.5745810000000  0.5491900000000 1.0
C      1  0.5052220000000  0.5369850000000  0.5989470000000 1.0
C      1  0.5424230000000  0.4958720000000  0.4232660000000 1.0
C      1  0.4396260000000  0.4993680000000  0.4349300000000 1.0
C      1  0.4650780000000  0.4621960000000  0.4933460000000 1.0
C      1  0.5288910000000  0.4192750000000  0.5296200000000 1.0
C      1  0.4244040000000  0.4777920000000  0.4445360000000 1.0
C      1  0.5944270000000  0.4743910000000  0.5225990000000 1.0
C      1  0.5762010000000  0.5291400000000  0.4778770000000 1.0
C      1  0.4489660000000  0.5097410000000  0.5157930000000 1.0
C      1  0.5976660000000  0.5083200000000  0.5226110000000 1.0
C      1  0.4176360000000  0.5460690000000  0.4960500000000 1.0
C      1  0.4416080000000  0.4473070000000  0.4644320000000 1.0
C      1  0.4628300000000  0.4722650000000  0.5313700000000 1.0
C      1  0.4518180000000  0.4257600000000  0.4844750000000 1.0
END
