TITL C-2778437-8639-187 0.000832831189934298 125000 -644.130556581533 0 0 112 (C1) n - 1
REM
REM in /home/nfs/bkarasulu/CARBON/AIRSS/Generating-Clusters/REBO/Only-C1/SD-CG/HFTN-CG
REM
REM
REM
REM
REM
REM ./C.cell (11c1c37f851c82e70ff6c80c92926a4b)
REM
REM compiler GCC version 9.2.1 20190827 (Red Hat 9.2.1-1)
REM options -cpp -mtune=generic -march=x86-64 -g -O0 -fpre-include=/usr/include/finclude/math-vector-fortran.h
REM seed 887357996 2093745570 622587214 -2079037507 832912595 -1047372070 1241016882 1015186640 658713540 107246397 -1077085482 -1060093026 389542757 2007893322 -413601136 258811602 -1004360045 -599062867 -113618751 1604188149 -1580731645 -896365845 349086672 2072144090 -2145723477 -1635513900 2083340642 1997853775 743901988 -223992929 -460737755 1559256289 1332931480
REM
CELL 1.54180   50.00000   50.00000   50.00000   90.00000   90.00000   90.00000
LATT -1
SFAC C  
C      1  0.4458420000000  0.5657910000000  0.4661000000000 1.0
C      1  0.5443300000000  0.4418040000000  0.5494220000000 1.0
C      1  0.5616320000000  0.4369020000000  0.5205020000000 1.0
C      1  0.5201930000000  0.4859420000000  0.4164780000000 1.0
C      1  0.5634240000000  0.4639080000000  0.5012320000000 1.0
C      1  0.4264400000000  0.5194860000000  0.4451300000000 1.0
C      1  0.5450920000000  0.5627970000000  0.4532610000000 1.0
C      1  0.4674700000000  0.5133010000000  0.5407950000000 1.0
C      1  0.5022930000000  0.5100460000000  0.6088780000000 1.0
C      1  0.4946520000000  0.5872490000000  0.4903010000000 1.0
C      1  0.5881990000000  0.4820360000000  0.4971680000000 1.0
C      1  0.5015220000000  0.4928300000000  0.4769880000000 1.0
C      1  0.5407660000000  0.5222610000000  0.4584450000000 1.0
C      1  0.4379630000000  0.4765830000000  0.5176060000000 1.0
C      1  0.4499510000000  0.4727090000000  0.4567420000000 1.0
C      1  0.5120790000000  0.4557360000000  0.4192040000000 1.0
C      1  0.5544320000000  0.5527110000000  0.5347250000000 1.0
C      1  0.4756390000000  0.4993130000000  0.5695060000000 1.0
C      1  0.4412690000000  0.4685720000000  0.5484140000000 1.0
C      1  0.5036850000000  0.4418320000000  0.4816440000000 1.0
C      1  0.5841830000000  0.5233770000000  0.4716890000000 1.0
C      1  0.5441110000000  0.5459460000000  0.4815640000000 1.0
C      1  0.5195320000000  0.4847520000000  0.5952920000000 1.0
C      1  0.5092830000000  0.5093530000000  0.5051450000000 1.0
C      1  0.4691430000000  0.5620140000000  0.4431820000000 1.0
C      1  0.4971710000000  0.4743390000000  0.4512010000000 1.0
C      1  0.5278420000000  0.4737980000000  0.4536690000000 1.0
C      1  0.5671150000000  0.4752190000000  0.4538380000000 1.0
C      1  0.5238840000000  0.5769210000000  0.5279930000000 1.0
C      1  0.5221830000000  0.5598920000000  0.5011390000000 1.0
C      1  0.5444070000000  0.4951710000000  0.4713570000000 1.0
C      1  0.5146670000000  0.5635490000000  0.5517390000000 1.0
C      1  0.5807690000000  0.4551810000000  0.5411920000000 1.0
C      1  0.4623370000000  0.5175010000000  0.5138520000000 1.0
C      1  0.4532700000000  0.5104390000000  0.4880610000000 1.0
C      1  0.4680220000000  0.4338530000000  0.4657120000000 1.0
C      1  0.4141360000000  0.4885830000000  0.4531810000000 1.0
C      1  0.4748850000000  0.5386060000000  0.5707840000000 1.0
C      1  0.4830740000000  0.4342100000000  0.5399000000000 1.0
C      1  0.5393640000000  0.4964130000000  0.5319280000000 1.0
C      1  0.4913850000000  0.5250770000000  0.4731250000000 1.0
C      1  0.5089770000000  0.4729940000000  0.5674950000000 1.0
C      1  0.4945160000000  0.5541390000000  0.4557100000000 1.0
C      1  0.4843970000000  0.5606220000000  0.5487730000000 1.0
C      1  0.5064630000000  0.5963500000000  0.5135700000000 1.0
C      1  0.4453620000000  0.5244860000000  0.5647720000000 1.0
C      1  0.5686120000000  0.5384620000000  0.4487960000000 1.0
C      1  0.4913840000000  0.4859550000000  0.5226180000000 1.0
C      1  0.5695270000000  0.5592170000000  0.5112910000000 1.0
C      1  0.4626830000000  0.4844450000000  0.4791830000000 1.0
C      1  0.5108320000000  0.4696540000000  0.5006480000000 1.0
C      1  0.4538130000000  0.5507860000000  0.5383920000000 1.0
C      1  0.4623310000000  0.4676790000000  0.5020960000000 1.0
C      1  0.4772400000000  0.5559350000000  0.5160240000000 1.0
C      1  0.4420560000000  0.4921730000000  0.4322340000000 1.0
C      1  0.4836660000000  0.4704050000000  0.4210640000000 1.0
C      1  0.4153300000000  0.4872370000000  0.4942680000000 1.0
C      1  0.5297360000000  0.5290640000000  0.5357540000000 1.0
C      1  0.4984010000000  0.4240960000000  0.4559210000000 1.0
C      1  0.4783870000000  0.4463620000000  0.5022500000000 1.0
C      1  0.4724170000000  0.4608910000000  0.5776930000000 1.0
C      1  0.5855420000000  0.4948090000000  0.4721700000000 1.0
C      1  0.4395800000000  0.5445920000000  0.4404050000000 1.0
C      1  0.5198810000000  0.5526750000000  0.4367220000000 1.0
C      1  0.5023970000000  0.5256630000000  0.5552780000000 1.0
C      1  0.4454240000000  0.4392240000000  0.4796570000000 1.0
C      1  0.4998910000000  0.3960420000000  0.4545870000000 1.0
C      1  0.5912330000000  0.4821330000000  0.5262750000000 1.0
C      1  0.5070760000000  0.5132710000000  0.4023040000000 1.0
C      1  0.4292600000000  0.5477930000000  0.5212670000000 1.0
C      1  0.5261690000000  0.5404200000000  0.5738860000000 1.0
C      1  0.5603190000000  0.4645810000000  0.5669860000000 1.0
C      1  0.5102180000000  0.4958910000000  0.5460650000000 1.0
C      1  0.3982270000000  0.4737960000000  0.5204250000000 1.0
C      1  0.5224910000000  0.4471900000000  0.5238850000000 1.0
C      1  0.4998670000000  0.5355040000000  0.5936970000000 1.0
C      1  0.5400480000000  0.5242770000000  0.5038030000000 1.0
C      1  0.4640290000000  0.5408850000000  0.4173390000000 1.0
C      1  0.4127350000000  0.4529850000000  0.4977510000000 1.0
C      1  0.4811500000000  0.4667220000000  0.5473040000000 1.0
C      1  0.5212380000000  0.4375350000000  0.4391010000000 1.0
C      1  0.4237410000000  0.5114790000000  0.4769830000000 1.0
C      1  0.5481630000000  0.4468930000000  0.4578600000000 1.0
C      1  0.4986070000000  0.5399800000000  0.5028250000000 1.0
C      1  0.4728860000000  0.5224120000000  0.4445930000000 1.0
C      1  0.5257760000000  0.4252320000000  0.5001520000000 1.0
C      1  0.5225360000000  0.5226920000000  0.4313430000000 1.0
C      1  0.4515310000000  0.4430510000000  0.5345850000000 1.0
C      1  0.4456000000000  0.4902040000000  0.5648830000000 1.0
C      1  0.4948330000000  0.4204220000000  0.5135680000000 1.0
C      1  0.4210590000000  0.4583680000000  0.4656260000000 1.0
C      1  0.5822860000000  0.5360240000000  0.4967370000000 1.0
C      1  0.5498140000000  0.5193550000000  0.5718380000000 1.0
C      1  0.4774730000000  0.5148960000000  0.4047500000000 1.0
C      1  0.4649890000000  0.5745120000000  0.4927180000000 1.0
C      1  0.4852260000000  0.4846260000000  0.5971030000000 1.0
C      1  0.5481380000000  0.4919950000000  0.4316810000000 1.0
C      1  0.5614710000000  0.5167360000000  0.4247910000000 1.0
C      1  0.4242640000000  0.5239840000000  0.5394300000000 1.0
C      1  0.5668520000000  0.5277610000000  0.5503310000000 1.0
C      1  0.5403150000000  0.4844510000000  0.5022140000000 1.0
C      1  0.5120440000000  0.4433110000000  0.5554550000000 1.0
C      1  0.4384510000000  0.4367040000000  0.5100260000000 1.0
C      1  0.4157310000000  0.4983870000000  0.5324780000000 1.0
C      1  0.5529800000000  0.4356500000000  0.4872110000000 1.0
C      1  0.5171310000000  0.5730740000000  0.4705030000000 1.0
C      1  0.4656360000000  0.4908010000000  0.4138950000000 1.0
C      1  0.5648610000000  0.4884470000000  0.5450530000000 1.0
C      1  0.5464680000000  0.4917180000000  0.5804170000000 1.0
C      1  0.4338100000000  0.5610100000000  0.4968470000000 1.0
C      1  0.4970810000000  0.5037510000000  0.4386010000000 1.0
C      1  0.5697040000000  0.5191300000000  0.5199560000000 1.0
END
