TITL C-2778430-5657-515 0.270411123316599 125000 -448.164032433726 0 0 79 (C1) n - 1
REM
REM in /home/nfs/bkarasulu/CARBON/AIRSS/Generating-Clusters/REBO/Only-C1/SD-CG/HFTN-CG
REM
REM
REM
REM
REM
REM ./C.cell (11c1c37f851c82e70ff6c80c92926a4b)
REM
REM compiler GCC version 9.2.1 20190827 (Red Hat 9.2.1-1)
REM options -cpp -mtune=generic -march=x86-64 -g -O0 -fpre-include=/usr/include/finclude/math-vector-fortran.h
REM seed -737568120 2036081477 939681527 1463654039 990252168 -1394179043 -1503842822 -181092027 1051116240 1405971812 -139545088 774602147 -154400035 495333653 -1499117999 1117407354 -1482503863 -1967008286 1492091269 113065497 1869041567 -1330426069 1282741265 -664864133 -316685376 1887765753 2002255120 662978918 -108326795 312536317 1003487868 1893715167 -327351686
REM
CELL 1.54180   50.00000   50.00000   50.00000   90.00000   90.00000   90.00000
LATT -1
SFAC C  
C      1  0.4999360000000  0.5889850000000  0.5125190000000 1.0
C      1  0.4767480000000  0.4543270000000  0.4465180000000 1.0
C      1  0.5264770000000  0.5209460000000  0.4704750000000 1.0
C      1  0.4122690000000  0.5446610000000  0.5298490000000 1.0
C      1  0.4866480000000  0.5220470000000  0.5021860000000 1.0
C      1  0.5411370000000  0.5648740000000  0.5166580000000 1.0
C      1  0.4494530000000  0.4626530000000  0.5908990000000 1.0
C      1  0.4686870000000  0.5436950000000  0.5213680000000 1.0
C      1  0.4537340000000  0.4862080000000  0.5666910000000 1.0
C      1  0.5069070000000  0.5031950000000  0.5590990000000 1.0
C      1  0.5242430000000  0.4648760000000  0.4425890000000 1.0
C      1  0.4742940000000  0.4871260000000  0.5171280000000 1.0
C      1  0.4522990000000  0.4594740000000  0.4678730000000 1.0
C      1  0.4262020000000  0.4923020000000  0.4464160000000 1.0
C      1  0.4390120000000  0.5506710000000  0.5320850000000 1.0
C      1  0.5368170000000  0.4663100000000  0.4881250000000 1.0
C      1  0.4989440000000  0.5328360000000  0.4110550000000 1.0
C      1  0.4745550000000  0.5082110000000  0.5647370000000 1.0
C      1  0.4727900000000  0.4315330000000  0.4876450000000 1.0
C      1  0.4327210000000  0.4819790000000  0.4844850000000 1.0
C      1  0.5237820000000  0.5803730000000  0.5002230000000 1.0
C      1  0.4609700000000  0.5640890000000  0.4194070000000 1.0
C      1  0.4607450000000  0.4526720000000  0.5632050000000 1.0
C      1  0.4787180000000  0.5417720000000  0.5620540000000 1.0
C      1  0.4889560000000  0.5058350000000  0.4080240000000 1.0
C      1  0.5322960000000  0.5031750000000  0.4351240000000 1.0
C      1  0.5759980000000  0.4942580000000  0.5342870000000 1.0
C      1  0.4403480000000  0.4518110000000  0.4990830000000 1.0
C      1  0.4810730000000  0.5718380000000  0.5208450000000 1.0
C      1  0.5128770000000  0.5469280000000  0.4645610000000 1.0
C      1  0.5568140000000  0.5140960000000  0.4639580000000 1.0
C      1  0.5665690000000  0.4616750000000  0.4713250000000 1.0
C      1  0.5736720000000  0.4995880000000  0.5636900000000 1.0
C      1  0.5042830000000  0.4480240000000  0.4546600000000 1.0
C      1  0.5115970000000  0.5022630000000  0.5058070000000 1.0
C      1  0.5616130000000  0.4464470000000  0.5019400000000 1.0
C      1  0.4928300000000  0.4623460000000  0.5293940000000 1.0
C      1  0.5049000000000  0.5486040000000  0.5549640000000 1.0
C      1  0.4856630000000  0.5413950000000  0.4562560000000 1.0
C      1  0.4641660000000  0.4931380000000  0.4857310000000 1.0
C      1  0.5535220000000  0.4844090000000  0.5104340000000 1.0
C      1  0.5515340000000  0.4820390000000  0.4535800000000 1.0
C      1  0.4810480000000  0.5482420000000  0.4283560000000 1.0
C      1  0.3975460000000  0.5230240000000  0.5375740000000 1.0
C      1  0.4712880000000  0.4439730000000  0.5392970000000 1.0
C      1  0.5359250000000  0.4586400000000  0.5564860000000 1.0
C      1  0.5978170000000  0.5215640000000  0.4937770000000 1.0
C      1  0.4585960000000  0.4319050000000  0.5167370000000 1.0
C      1  0.4000460000000  0.4925060000000  0.4480480000000 1.0
C      1  0.5260210000000  0.5261920000000  0.5658040000000 1.0
C      1  0.4781970000000  0.5139360000000  0.5334460000000 1.0
C      1  0.5078740000000  0.4975480000000  0.4585130000000 1.0
C      1  0.4747170000000  0.5213400000000  0.4731880000000 1.0
C      1  0.4077400000000  0.4989980000000  0.5454040000000 1.0
C      1  0.5208930000000  0.4204580000000  0.4952990000000 1.0
C      1  0.5268280000000  0.5305500000000  0.4200240000000 1.0
C      1  0.4525620000000  0.4920960000000  0.4447690000000 1.0
C      1  0.5026670000000  0.4308600000000  0.4773160000000 1.0
C      1  0.5324260000000  0.5590110000000  0.5440580000000 1.0
C      1  0.5714540000000  0.5194390000000  0.5154160000000 1.0
C      1  0.5352780000000  0.4356240000000  0.5137160000000 1.0
C      1  0.5598480000000  0.5489830000000  0.5031200000000 1.0
C      1  0.5924840000000  0.4665850000000  0.4869750000000 1.0
C      1  0.4550560000000  0.5561350000000  0.5568020000000 1.0
C      1  0.5105920000000  0.4888000000000  0.5334130000000 1.0
C      1  0.5535940000000  0.5481330000000  0.5628890000000 1.0
C      1  0.5410770000000  0.5140460000000  0.5005610000000 1.0
C      1  0.5093480000000  0.4784980000000  0.4833280000000 1.0
C      1  0.4430140000000  0.4801340000000  0.5170310000000 1.0
C      1  0.4554760000000  0.4196170000000  0.4687230000000 1.0
C      1  0.5221820000000  0.5717910000000  0.4732790000000 1.0
C      1  0.5093530000000  0.4831530000000  0.4213290000000 1.0
C      1  0.5575200000000  0.5186990000000  0.5732060000000 1.0
C      1  0.4814230000000  0.4931520000000  0.4381720000000 1.0
C      1  0.5733910000000  0.5326600000000  0.4779660000000 1.0
C      1  0.5224420000000  0.4506570000000  0.5335670000000 1.0
C      1  0.5833720000000  0.4680170000000  0.5167100000000 1.0
C      1  0.4822750000000  0.4643120000000  0.4847490000000 1.0
C      1  0.4318310000000  0.4870360000000  0.5440000000000 1.0
END
