TITL C-2778432-5617-90 0.000996397930344842 125000 -468.657012851653 0 0 82 (C1) n - 1
REM
REM in /home/nfs/bkarasulu/CARBON/AIRSS/Generating-Clusters/REBO/Only-C1/SD-CG/HFTN-CG
REM
REM
REM
REM
REM
REM ./C.cell (11c1c37f851c82e70ff6c80c92926a4b)
REM
REM compiler GCC version 9.2.1 20190827 (Red Hat 9.2.1-1)
REM options -cpp -mtune=generic -march=x86-64 -g -O0 -fpre-include=/usr/include/finclude/math-vector-fortran.h
REM seed -1058716581 -1153157004 101851403 1607042412 1434532707 -1107410228 1189216982 722090827 1777365765 -1754940983 840737667 648808193 54060003 -1478669702 741953560 1159189985 -494349029 599785359 -1414852050 -228842493 -1692484895 -753016300 130506487 -834115038 -1282648695 1203886878 -500596918 69384426 -705709865 -393108077 -847255037 1222166640 -189051546
REM
CELL 1.54180   50.00000   50.00000   50.00000   90.00000   90.00000   90.00000
LATT -1
SFAC C  
C      1  0.4578960000000  0.4554560000000  0.5493890000000 1.0
C      1  0.4849510000000  0.4745660000000  0.5276250000000 1.0
C      1  0.5866180000000  0.5127330000000  0.5022330000000 1.0
C      1  0.5477700000000  0.5052280000000  0.4964660000000 1.0
C      1  0.5347700000000  0.4252140000000  0.4903400000000 1.0
C      1  0.4972510000000  0.5593310000000  0.5514190000000 1.0
C      1  0.5649110000000  0.4347000000000  0.4925020000000 1.0
C      1  0.5219570000000  0.5647750000000  0.5284300000000 1.0
C      1  0.5007830000000  0.5001240000000  0.4639640000000 1.0
C      1  0.5625350000000  0.5031320000000  0.4355300000000 1.0
C      1  0.5015210000000  0.4317320000000  0.4966170000000 1.0
C      1  0.5065720000000  0.5387910000000  0.5184980000000 1.0
C      1  0.4985630000000  0.5209490000000  0.5411030000000 1.0
C      1  0.4051860000000  0.5278880000000  0.4894430000000 1.0
C      1  0.4798520000000  0.5243270000000  0.4678100000000 1.0
C      1  0.5228490000000  0.4716640000000  0.5552630000000 1.0
C      1  0.4228450000000  0.4829430000000  0.5056720000000 1.0
C      1  0.5751500000000  0.4594210000000  0.4879320000000 1.0
C      1  0.4258120000000  0.4972660000000  0.5356300000000 1.0
C      1  0.4194340000000  0.5047510000000  0.4822800000000 1.0
C      1  0.5683320000000  0.5853910000000  0.5194300000000 1.0
C      1  0.4408150000000  0.5125380000000  0.4598840000000 1.0
C      1  0.4714180000000  0.5592560000000  0.5373910000000 1.0
C      1  0.5747440000000  0.4868130000000  0.4552420000000 1.0
C      1  0.4976220000000  0.4850920000000  0.5736890000000 1.0
C      1  0.5288920000000  0.5632970000000  0.4893390000000 1.0
C      1  0.5092000000000  0.4340990000000  0.5495790000000 1.0
C      1  0.5075580000000  0.4943680000000  0.5361550000000 1.0
C      1  0.4252710000000  0.5518400000000  0.4903180000000 1.0
C      1  0.4947540000000  0.5114620000000  0.5024700000000 1.0
C      1  0.5570840000000  0.4916140000000  0.5501550000000 1.0
C      1  0.4904880000000  0.4439070000000  0.5254530000000 1.0
C      1  0.5557230000000  0.5299270000000  0.4496120000000 1.0
C      1  0.5557620000000  0.5097710000000  0.5718490000000 1.0
C      1  0.4600500000000  0.4331380000000  0.5246970000000 1.0
C      1  0.5306660000000  0.5149510000000  0.4315220000000 1.0
C      1  0.4836620000000  0.4997790000000  0.4177350000000 1.0
C      1  0.4539860000000  0.5682190000000  0.4918220000000 1.0
C      1  0.4569830000000  0.4661790000000  0.4363310000000 1.0
C      1  0.5121310000000  0.5413560000000  0.4413640000000 1.0
C      1  0.4788500000000  0.4533700000000  0.4540190000000 1.0
C      1  0.4485300000000  0.5088000000000  0.5473410000000 1.0
C      1  0.4998570000000  0.5333360000000  0.5679650000000 1.0
C      1  0.4522060000000  0.4719580000000  0.5197550000000 1.0
C      1  0.5686630000000  0.5378850000000  0.5058810000000 1.0
C      1  0.5527380000000  0.4805460000000  0.4779780000000 1.0
C      1  0.4724760000000  0.5732670000000  0.5120260000000 1.0
C      1  0.4844130000000  0.5460880000000  0.4346710000000 1.0
C      1  0.4349290000000  0.4720130000000  0.4690610000000 1.0
C      1  0.4691300000000  0.4874960000000  0.5551010000000 1.0
C      1  0.5907020000000  0.4895510000000  0.4852570000000 1.0
C      1  0.5614630000000  0.5300650000000  0.4766230000000 1.0
C      1  0.5233600000000  0.4392000000000  0.4641270000000 1.0
C      1  0.4625620000000  0.5127330000000  0.4933970000000 1.0
C      1  0.4460420000000  0.5325740000000  0.5080270000000 1.0
C      1  0.5416170000000  0.4393310000000  0.5418050000000 1.0
C      1  0.4511690000000  0.5426670000000  0.4695290000000 1.0
C      1  0.5243050000000  0.5159820000000  0.4769730000000 1.0
C      1  0.5522810000000  0.5631220000000  0.5137760000000 1.0
C      1  0.5106620000000  0.4816610000000  0.4983910000000 1.0
C      1  0.4858780000000  0.4746590000000  0.4776270000000 1.0
C      1  0.4306520000000  0.4526070000000  0.4922200000000 1.0
C      1  0.4756270000000  0.4350220000000  0.4799850000000 1.0
C      1  0.5554440000000  0.4624150000000  0.5592740000000 1.0
C      1  0.4544920000000  0.5352250000000  0.5358310000000 1.0
C      1  0.4740900000000  0.5712090000000  0.4320750000000 1.0
C      1  0.4881170000000  0.4539080000000  0.5640330000000 1.0
C      1  0.4520390000000  0.4348530000000  0.4973220000000 1.0
C      1  0.5085330000000  0.4642760000000  0.4464560000000 1.0
C      1  0.5075060000000  0.4931510000000  0.4328710000000 1.0
C      1  0.4501260000000  0.4921440000000  0.4380740000000 1.0
C      1  0.5239020000000  0.5440760000000  0.4690260000000 1.0
C      1  0.5080990000000  0.5118830000000  0.5849710000000 1.0
C      1  0.5263410000000  0.4626590000000  0.5218880000000 1.0
C      1  0.4590980000000  0.4825060000000  0.4893900000000 1.0
C      1  0.5018550000000  0.5749040000000  0.5024430000000 1.0
C      1  0.5359450000000  0.5127380000000  0.5908620000000 1.0
C      1  0.5259580000000  0.4705000000000  0.4731840000000 1.0
C      1  0.5229920000000  0.4213680000000  0.5208820000000 1.0
C      1  0.5394070000000  0.4942470000000  0.5240210000000 1.0
C      1  0.4905480000000  0.5445180000000  0.4909520000000 1.0
C      1  0.4650270000000  0.5214990000000  0.4327260000000 1.0
END
