TITL C-2778433-5640-1088 -0.000412167638795933 125000 -1056.87495086593 0 0 181 (C1) n - 1
REM
REM in /home/nfs/bkarasulu/CARBON/AIRSS/Generating-Clusters/REBO/Only-C1/SD-CG/HFTN-CG
REM
REM
REM
REM
REM
REM ./C.cell (11c1c37f851c82e70ff6c80c92926a4b)
REM
REM compiler GCC version 9.2.1 20190827 (Red Hat 9.2.1-1)
REM options -cpp -mtune=generic -march=x86-64 -g -O0 -fpre-include=/usr/include/finclude/math-vector-fortran.h
REM seed -1059834885 -1036966705 -409183968 -889026752 -1163148962 -2023799788 -1336765494 405842208 -1815621423 -310419492 -1288348629 -520390236 -135091790 -1395809762 1696576157 947352904 499381999 954031662 -484467269 1698093324 26962450 839228198 -444503143 -1760193861 77065543 -315740157 691168510 1925303221 1175529241 -441096179 -1310374005 -252778551 -298622369
REM
CELL 1.54180   50.00000   50.00000   50.00000   90.00000   90.00000   90.00000
LATT -1
SFAC C  
C      1  0.5255400000000  0.5968770000000  0.4418260000000 1.0
C      1  0.4905710000000  0.5755530000000  0.5901140000000 1.0
C      1  0.4992150000000  0.5975750000000  0.5307380000000 1.0
C      1  0.5485470000000  0.4456290000000  0.4963430000000 1.0
C      1  0.4318870000000  0.5388780000000  0.4681030000000 1.0
C      1  0.4224250000000  0.4834100000000  0.4976690000000 1.0
C      1  0.4022030000000  0.4743570000000  0.4711930000000 1.0
C      1  0.6058440000000  0.5252960000000  0.4475510000000 1.0
C      1  0.5175130000000  0.4514890000000  0.4860150000000 1.0
C      1  0.5607450000000  0.4404990000000  0.5343650000000 1.0
C      1  0.4441880000000  0.4243840000000  0.5542900000000 1.0
C      1  0.4357010000000  0.4538210000000  0.5056600000000 1.0
C      1  0.5501930000000  0.5778260000000  0.4555330000000 1.0
C      1  0.4543480000000  0.5557870000000  0.4878630000000 1.0
C      1  0.5813270000000  0.4583990000000  0.5185630000000 1.0
C      1  0.4076290000000  0.4994550000000  0.4478620000000 1.0
C      1  0.5947170000000  0.5349350000000  0.5101910000000 1.0
C      1  0.4750110000000  0.5815450000000  0.5460910000000 1.0
C      1  0.3975790000000  0.4680940000000  0.5560890000000 1.0
C      1  0.4142010000000  0.5802790000000  0.5043780000000 1.0
C      1  0.5007510000000  0.5592330000000  0.4565240000000 1.0
C      1  0.4514160000000  0.4529700000000  0.5915250000000 1.0
C      1  0.4423360000000  0.5605340000000  0.5724580000000 1.0
C      1  0.4340310000000  0.5823540000000  0.4855060000000 1.0
C      1  0.5458370000000  0.4822740000000  0.5939080000000 1.0
C      1  0.4680380000000  0.5082000000000  0.5557060000000 1.0
C      1  0.5586900000000  0.4829450000000  0.5217530000000 1.0
C      1  0.4585000000000  0.5042540000000  0.5058330000000 1.0
C      1  0.5480620000000  0.5247210000000  0.4522310000000 1.0
C      1  0.4980770000000  0.4300090000000  0.5875820000000 1.0
C      1  0.4426890000000  0.4636330000000  0.5435040000000 1.0
C      1  0.4446840000000  0.4258860000000  0.4585690000000 1.0
C      1  0.5401170000000  0.5942360000000  0.4943610000000 1.0
C      1  0.4730250000000  0.5837980000000  0.4923750000000 1.0
C      1  0.5024310000000  0.4997050000000  0.5742540000000 1.0
C      1  0.4770090000000  0.4668480000000  0.4285300000000 1.0
C      1  0.4536990000000  0.5635010000000  0.5269480000000 1.0
C      1  0.5956070000000  0.5174020000000  0.5311370000000 1.0
C      1  0.4926580000000  0.5877240000000  0.4671390000000 1.0
C      1  0.5447020000000  0.5628140000000  0.5389380000000 1.0
C      1  0.5585140000000  0.5158910000000  0.4813030000000 1.0
C      1  0.5103750000000  0.5246930000000  0.4390450000000 1.0
C      1  0.5609220000000  0.5081160000000  0.5805000000000 1.0
C      1  0.4352190000000  0.4641080000000  0.4520030000000 1.0
C      1  0.4417540000000  0.4862460000000  0.4117480000000 1.0
C      1  0.5183140000000  0.5334400000000  0.5338570000000 1.0
C      1  0.4676220000000  0.5752810000000  0.5728200000000 1.0
C      1  0.4232450000000  0.5576760000000  0.4438350000000 1.0
C      1  0.5148670000000  0.4544390000000  0.4313960000000 1.0
C      1  0.5479670000000  0.3899860000000  0.5277210000000 1.0
C      1  0.5143690000000  0.5639790000000  0.5488880000000 1.0
C      1  0.5071740000000  0.4342840000000  0.5389470000000 1.0
C      1  0.5282880000000  0.5619890000000  0.4710160000000 1.0
C      1  0.5468430000000  0.5098880000000  0.5187600000000 1.0
C      1  0.4474290000000  0.5947810000000  0.5210070000000 1.0
C      1  0.5376490000000  0.5049100000000  0.4310850000000 1.0
C      1  0.4442780000000  0.5325430000000  0.5818110000000 1.0
C      1  0.5161370000000  0.4444980000000  0.3981500000000 1.0
C      1  0.5620550000000  0.4865030000000  0.4214150000000 1.0
C      1  0.3921140000000  0.4884990000000  0.5225410000000 1.0
C      1  0.4302960000000  0.4210930000000  0.4976160000000 1.0
C      1  0.4131890000000  0.5321020000000  0.5135290000000 1.0
C      1  0.4708650000000  0.4197790000000  0.5092000000000 1.0
C      1  0.5317360000000  0.4355500000000  0.5840300000000 1.0
C      1  0.4166880000000  0.4433750000000  0.4673780000000 1.0
C      1  0.4605080000000  0.4371230000000  0.4302560000000 1.0
C      1  0.4737240000000  0.6066640000000  0.5140540000000 1.0
C      1  0.5768410000000  0.5600670000000  0.4685200000000 1.0
C      1  0.4125670000000  0.5593930000000  0.5248340000000 1.0
C      1  0.5523290000000  0.4660700000000  0.4715560000000 1.0
C      1  0.5902390000000  0.4710560000000  0.4599570000000 1.0
C      1  0.5218710000000  0.5287790000000  0.4711390000000 1.0
C      1  0.5081530000000  0.5281080000000  0.3955240000000 1.0
C      1  0.4813300000000  0.4638950000000  0.5313290000000 1.0
C      1  0.5291820000000  0.6011290000000  0.5199310000000 1.0
C      1  0.4636360000000  0.4888640000000  0.5339390000000 1.0
C      1  0.4238960000000  0.4887150000000  0.5317230000000 1.0
C      1  0.4767010000000  0.4304700000000  0.4660940000000 1.0
C      1  0.4837790000000  0.5359920000000  0.5535650000000 1.0
C      1  0.4603590000000  0.4716900000000  0.4982100000000 1.0
C      1  0.5053300000000  0.4576310000000  0.6038790000000 1.0
C      1  0.4396410000000  0.5268040000000  0.4980480000000 1.0
C      1  0.5559130000000  0.4559830000000  0.5871990000000 1.0
C      1  0.4329140000000  0.4482170000000  0.5719220000000 1.0
C      1  0.5978740000000  0.4861950000000  0.5286310000000 1.0
C      1  0.4380450000000  0.4608560000000  0.4232200000000 1.0
C      1  0.5635480000000  0.5773790000000  0.4940280000000 1.0
C      1  0.5379020000000  0.5392310000000  0.5704410000000 1.0
C      1  0.6035870000000  0.5313160000000  0.4219060000000 1.0
C      1  0.4759900000000  0.4175460000000  0.5649340000000 1.0
C      1  0.5526220000000  0.4215560000000  0.4488370000000 1.0
C      1  0.4055930000000  0.4824990000000  0.5741730000000 1.0
C      1  0.5232630000000  0.4586760000000  0.5647340000000 1.0
C      1  0.4538120000000  0.4044700000000  0.4840040000000 1.0
C      1  0.4907830000000  0.4470830000000  0.5050010000000 1.0
C      1  0.5275450000000  0.5550680000000  0.5006410000000 1.0
C      1  0.4922220000000  0.4316640000000  0.4186430000000 1.0
C      1  0.4580540000000  0.5396780000000  0.4498280000000 1.0
C      1  0.5221790000000  0.6013460000000  0.4725510000000 1.0
C      1  0.4224410000000  0.5642280000000  0.5517530000000 1.0
C      1  0.4858020000000  0.5176440000000  0.5173560000000 1.0
C      1  0.4640440000000  0.5018180000000  0.4611550000000 1.0
C      1  0.5135790000000  0.5529860000000  0.4260750000000 1.0
C      1  0.5250720000000  0.3857700000000  0.5141660000000 1.0
C      1  0.4881430000000  0.4008700000000  0.4795120000000 1.0
C      1  0.5785570000000  0.4669980000000  0.4344150000000 1.0
C      1  0.5220000000000  0.3982510000000  0.4847740000000 1.0
C      1  0.4939060000000  0.3949630000000  0.5128810000000 1.0
C      1  0.5955890000000  0.5342440000000  0.4788490000000 1.0
C      1  0.5298770000000  0.4480530000000  0.5238940000000 1.0
C      1  0.5225770000000  0.4251220000000  0.4651470000000 1.0
C      1  0.4513320000000  0.5354470000000  0.5427260000000 1.0
C      1  0.5662260000000  0.4101150000000  0.5267120000000 1.0
C      1  0.5555880000000  0.5398810000000  0.5047930000000 1.0
C      1  0.4961860000000  0.4708960000000  0.4004860000000 1.0
C      1  0.5714200000000  0.4861980000000  0.4917050000000 1.0
C      1  0.5330900000000  0.5470270000000  0.4023480000000 1.0
C      1  0.5070420000000  0.5679590000000  0.5172620000000 1.0
C      1  0.4262240000000  0.5069140000000  0.4272690000000 1.0
C      1  0.5177000000000  0.4828710000000  0.5958710000000 1.0
C      1  0.4931690000000  0.4573980000000  0.5590670000000 1.0
C      1  0.5603560000000  0.5498650000000  0.4411490000000 1.0
C      1  0.4005660000000  0.4379750000000  0.4968150000000 1.0
C      1  0.4831960000000  0.5362780000000  0.4659990000000 1.0
C      1  0.5749770000000  0.5578320000000  0.5534170000000 1.0
C      1  0.5453170000000  0.4741510000000  0.5494550000000 1.0
C      1  0.4727410000000  0.4936330000000  0.5825850000000 1.0
C      1  0.4290000000000  0.5140410000000  0.5538500000000 1.0
C      1  0.4394150000000  0.4876880000000  0.4685010000000 1.0
C      1  0.4783280000000  0.5689670000000  0.4174360000000 1.0
C      1  0.5337000000000  0.5199290000000  0.5979870000000 1.0
C      1  0.5474090000000  0.4516000000000  0.4089940000000 1.0
C      1  0.4834990000000  0.4771970000000  0.4551660000000 1.0
C      1  0.6039800000000  0.4811180000000  0.4954690000000 1.0
C      1  0.5206020000000  0.5211980000000  0.5021270000000 1.0
C      1  0.6008610000000  0.5017350000000  0.4696670000000 1.0
C      1  0.5152260000000  0.5724510000000  0.5789780000000 1.0
C      1  0.5813760000000  0.4918290000000  0.5581130000000 1.0
C      1  0.4228640000000  0.4322210000000  0.5289320000000 1.0
C      1  0.5054630000000  0.5841190000000  0.4257490000000 1.0
C      1  0.5726610000000  0.4590550000000  0.5603980000000 1.0
C      1  0.4511910000000  0.5012850000000  0.6043650000000 1.0
C      1  0.5718690000000  0.4374530000000  0.4259140000000 1.0
C      1  0.4901270000000  0.5064650000000  0.4814750000000 1.0
C      1  0.4723980000000  0.4929500000000  0.4078430000000 1.0
C      1  0.5049970000000  0.5037300000000  0.5412840000000 1.0
C      1  0.3929510000000  0.5124670000000  0.5051620000000 1.0
C      1  0.5599660000000  0.5481760000000  0.4110410000000 1.0
C      1  0.4621020000000  0.4381890000000  0.5311410000000 1.0
C      1  0.4922990000000  0.4100400000000  0.5412990000000 1.0
C      1  0.5857520000000  0.5398470000000  0.4026210000000 1.0
C      1  0.4823220000000  0.5120150000000  0.4342670000000 1.0
C      1  0.5111280000000  0.4904900000000  0.4584130000000 1.0
C      1  0.5542550000000  0.4062660000000  0.4768910000000 1.0
C      1  0.4988490000000  0.4215810000000  0.4471510000000 1.0
C      1  0.5070660000000  0.5324690000000  0.5720760000000 1.0
C      1  0.5100190000000  0.4829770000000  0.4972960000000 1.0
C      1  0.5710840000000  0.4238960000000  0.4977520000000 1.0
C      1  0.5894020000000  0.4508150000000  0.4873490000000 1.0
C      1  0.4811410000000  0.5404800000000  0.4063140000000 1.0
C      1  0.3935120000000  0.5057190000000  0.4773530000000 1.0
C      1  0.5427560000000  0.4529810000000  0.4451780000000 1.0
C      1  0.4242280000000  0.5052310000000  0.5857060000000 1.0
C      1  0.5785410000000  0.5604180000000  0.5194810000000 1.0
C      1  0.4540510000000  0.5709880000000  0.4377940000000 1.0
C      1  0.5197910000000  0.5015710000000  0.3905700000000 1.0
C      1  0.5397550000000  0.4827370000000  0.3979990000000 1.0
C      1  0.5005570000000  0.5264500000000  0.6036590000000 1.0
C      1  0.3977020000000  0.4550220000000  0.5258330000000 1.0
C      1  0.4704470000000  0.5275530000000  0.6033630000000 1.0
C      1  0.5832610000000  0.5259870000000  0.5616450000000 1.0
C      1  0.5353740000000  0.4916540000000  0.4765340000000 1.0
C      1  0.4738910000000  0.4641500000000  0.5810600000000 1.0
C      1  0.4792300000000  0.4584240000000  0.4769240000000 1.0
C      1  0.5193700000000  0.4802400000000  0.5277880000000 1.0
C      1  0.5117520000000  0.4863650000000  0.4265990000000 1.0
C      1  0.4540350000000  0.5255420000000  0.4210380000000 1.0
C      1  0.4831880000000  0.5491870000000  0.5230390000000 1.0
C      1  0.4586570000000  0.5885630000000  0.4625080000000 1.0
C      1  0.5487030000000  0.5700100000000  0.5723920000000 1.0
C      1  0.5495980000000  0.5290970000000  0.5428070000000 1.0
END
