TITL C-2778428-5639-1288 -0.00552300634823957 125000 -1099.13067845458 0 0 187 (C1) n - 1
REM
REM in /home/nfs/bkarasulu/CARBON/AIRSS/Generating-Clusters/REBO/Only-C1/SD-CG/HFTN-CG
REM
REM
REM
REM
REM
REM ./C.cell (11c1c37f851c82e70ff6c80c92926a4b)
REM
REM compiler GCC version 9.2.1 20190827 (Red Hat 9.2.1-1)
REM options -cpp -mtune=generic -march=x86-64 -g -O0 -fpre-include=/usr/include/finclude/math-vector-fortran.h
REM seed 1746822434 -268859570 -46960509 1466684327 -1374301709 1240917576 -853488320 -1255302444 146296399 1141734337 -805921421 -1756186125 2058135991 1890651707 1718289421 -1713396613 201181577 -82188370 -2125616873 2100084638 -1785955854 -1442590147 248812179 281848283 -1016031316 1552925585 -931028770 394968947 836772065 657637692 -1559434183 -684557175 -1210756745
REM
CELL 1.54180   50.00000   50.00000   50.00000   90.00000   90.00000   90.00000
LATT -1
SFAC C  
C      1  0.5469420000000  0.5914070000000  0.5626800000000 1.0
C      1  0.5882190000000  0.4653100000000  0.4874010000000 1.0
C      1  0.4644090000000  0.4467700000000  0.5346800000000 1.0
C      1  0.5447280000000  0.4877210000000  0.6141880000000 1.0
C      1  0.5383230000000  0.5131050000000  0.4451230000000 1.0
C      1  0.5206010000000  0.5584470000000  0.5909910000000 1.0
C      1  0.5477740000000  0.3984150000000  0.5135730000000 1.0
C      1  0.4866440000000  0.4287770000000  0.5224410000000 1.0
C      1  0.4850130000000  0.5842460000000  0.4909030000000 1.0
C      1  0.4299690000000  0.4755590000000  0.5358560000000 1.0
C      1  0.4845040000000  0.5847230000000  0.4312630000000 1.0
C      1  0.3914940000000  0.5106110000000  0.5315910000000 1.0
C      1  0.4270560000000  0.5334690000000  0.4138200000000 1.0
C      1  0.5361280000000  0.3907980000000  0.4866100000000 1.0
C      1  0.4606120000000  0.4708340000000  0.3950880000000 1.0
C      1  0.5254960000000  0.4449300000000  0.4565900000000 1.0
C      1  0.5709390000000  0.5636060000000  0.5299070000000 1.0
C      1  0.3953960000000  0.5266390000000  0.4603860000000 1.0
C      1  0.5358340000000  0.3969420000000  0.5517140000000 1.0
C      1  0.5348730000000  0.4608780000000  0.4051610000000 1.0
C      1  0.5361690000000  0.5642750000000  0.4335090000000 1.0
C      1  0.5100540000000  0.5050600000000  0.3930870000000 1.0
C      1  0.4514620000000  0.4879810000000  0.4180450000000 1.0
C      1  0.5198470000000  0.5958110000000  0.4518400000000 1.0
C      1  0.4479840000000  0.4969250000000  0.5500910000000 1.0
C      1  0.4302490000000  0.5076600000000  0.4238910000000 1.0
C      1  0.5459500000000  0.4466180000000  0.5498040000000 1.0
C      1  0.5807810000000  0.4450730000000  0.4606470000000 1.0
C      1  0.4715410000000  0.4933010000000  0.6035340000000 1.0
C      1  0.5546850000000  0.4288820000000  0.4488940000000 1.0
C      1  0.5510010000000  0.4907340000000  0.5278910000000 1.0
C      1  0.4394600000000  0.4984660000000  0.4545680000000 1.0
C      1  0.4582990000000  0.3992210000000  0.4832620000000 1.0
C      1  0.4458180000000  0.4896900000000  0.5109060000000 1.0
C      1  0.5245790000000  0.6067410000000  0.5045630000000 1.0
C      1  0.4287740000000  0.4999440000000  0.4837540000000 1.0
C      1  0.5868910000000  0.5231710000000  0.4427930000000 1.0
C      1  0.5031110000000  0.5220600000000  0.4615910000000 1.0
C      1  0.5964300000000  0.4971650000000  0.4533220000000 1.0
C      1  0.5039270000000  0.4495340000000  0.5040520000000 1.0
C      1  0.4946120000000  0.3989980000000  0.4181150000000 1.0
C      1  0.4817500000000  0.4918420000000  0.3925190000000 1.0
C      1  0.3942260000000  0.4928210000000  0.5024410000000 1.0
C      1  0.4801820000000  0.5810800000000  0.5220500000000 1.0
C      1  0.4386130000000  0.5928430000000  0.5233800000000 1.0
C      1  0.4250930000000  0.4383720000000  0.4125440000000 1.0
C      1  0.5517620000000  0.4875770000000  0.4544820000000 1.0
C      1  0.4771700000000  0.6214960000000  0.5199420000000 1.0
C      1  0.5408730000000  0.4386160000000  0.4203090000000 1.0
C      1  0.5535060000000  0.5916080000000  0.4566420000000 1.0
C      1  0.4275710000000  0.4449720000000  0.5506690000000 1.0
C      1  0.4983220000000  0.4027160000000  0.4498440000000 1.0
C      1  0.4822150000000  0.4328540000000  0.5832500000000 1.0
C      1  0.3991430000000  0.5310030000000  0.5493560000000 1.0
C      1  0.4961420000000  0.5539610000000  0.6076640000000 1.0
C      1  0.5928560000000  0.5316160000000  0.5667680000000 1.0
C      1  0.5669120000000  0.5389310000000  0.5790460000000 1.0
C      1  0.4465430000000  0.3856610000000  0.5051200000000 1.0
C      1  0.4762190000000  0.4696230000000  0.5576610000000 1.0
C      1  0.5084580000000  0.5808360000000  0.4789770000000 1.0
C      1  0.5860860000000  0.4705890000000  0.5676620000000 1.0
C      1  0.4964700000000  0.5828410000000  0.5512660000000 1.0
C      1  0.5120920000000  0.6203890000000  0.4756300000000 1.0
C      1  0.4394600000000  0.4526900000000  0.4881030000000 1.0
C      1  0.5777520000000  0.5702510000000  0.4535430000000 1.0
C      1  0.5185130000000  0.4794580000000  0.6122180000000 1.0
C      1  0.5229200000000  0.5726310000000  0.5642450000000 1.0
C      1  0.4898100000000  0.3994720000000  0.5078420000000 1.0
C      1  0.4527910000000  0.5206400000000  0.5944860000000 1.0
C      1  0.5561790000000  0.5409980000000  0.4078920000000 1.0
C      1  0.4661310000000  0.5183360000000  0.4470130000000 1.0
C      1  0.4083120000000  0.5312120000000  0.5771250000000 1.0
C      1  0.4151390000000  0.4659720000000  0.4997610000000 1.0
C      1  0.4660090000000  0.5727060000000  0.4568630000000 1.0
C      1  0.4820490000000  0.3959260000000  0.5442360000000 1.0
C      1  0.3988190000000  0.4974100000000  0.4712420000000 1.0
C      1  0.5665490000000  0.4899900000000  0.4808000000000 1.0
C      1  0.4206710000000  0.4545250000000  0.4421290000000 1.0
C      1  0.4741200000000  0.5666890000000  0.5653640000000 1.0
C      1  0.5813550000000  0.5003130000000  0.5740780000000 1.0
C      1  0.4710230000000  0.4769610000000  0.5245560000000 1.0
C      1  0.4092380000000  0.5495340000000  0.4658390000000 1.0
C      1  0.4925250000000  0.4956450000000  0.4764920000000 1.0
C      1  0.5965070000000  0.5438490000000  0.5410830000000 1.0
C      1  0.3978130000000  0.4724290000000  0.4522440000000 1.0
C      1  0.4293440000000  0.5766910000000  0.5482320000000 1.0
C      1  0.5279250000000  0.5541280000000  0.4020890000000 1.0
C      1  0.5448910000000  0.6129160000000  0.4778580000000 1.0
C      1  0.4720970000000  0.4158930000000  0.4667780000000 1.0
C      1  0.4347000000000  0.5413660000000  0.5858020000000 1.0
C      1  0.5211540000000  0.4844470000000  0.4180260000000 1.0
C      1  0.6082340000000  0.5070490000000  0.5047520000000 1.0
C      1  0.4744020000000  0.4858410000000  0.4411940000000 1.0
C      1  0.3977260000000  0.4787640000000  0.5329780000000 1.0
C      1  0.5404110000000  0.5323320000000  0.5984930000000 1.0
C      1  0.4394950000000  0.5531710000000  0.4565070000000 1.0
C      1  0.5913440000000  0.5387590000000  0.4873850000000 1.0
C      1  0.5068940000000  0.5117620000000  0.4322060000000 1.0
C      1  0.5075830000000  0.5339440000000  0.3936080000000 1.0
C      1  0.4795930000000  0.5163200000000  0.4160470000000 1.0
C      1  0.4363850000000  0.4435750000000  0.5765790000000 1.0
C      1  0.4870200000000  0.6065660000000  0.4572430000000 1.0
C      1  0.4437920000000  0.5432260000000  0.5318900000000 1.0
C      1  0.4831150000000  0.4611040000000  0.6003500000000 1.0
C      1  0.5896060000000  0.5463020000000  0.4591740000000 1.0
C      1  0.4375090000000  0.4391430000000  0.5185910000000 1.0
C      1  0.5082840000000  0.4326550000000  0.3795060000000 1.0
C      1  0.5436720000000  0.5558920000000  0.5163690000000 1.0
C      1  0.4993500000000  0.5046190000000  0.5296170000000 1.0
C      1  0.4446050000000  0.5669030000000  0.5720150000000 1.0
C      1  0.5549320000000  0.4611410000000  0.5254570000000 1.0
C      1  0.4658700000000  0.4462720000000  0.4699600000000 1.0
C      1  0.4792350000000  0.5420570000000  0.4976200000000 1.0
C      1  0.5043960000000  0.4709510000000  0.5295160000000 1.0
C      1  0.6063150000000  0.4916580000000  0.4809050000000 1.0
C      1  0.5255300000000  0.4542740000000  0.3791270000000 1.0
C      1  0.5630390000000  0.4549340000000  0.5745160000000 1.0
C      1  0.4677720000000  0.5405430000000  0.5529520000000 1.0
C      1  0.4692740000000  0.5115770000000  0.4870430000000 1.0
C      1  0.5040860000000  0.6049590000000  0.5264180000000 1.0
C      1  0.6144910000000  0.5368450000000  0.5139390000000 1.0
C      1  0.4591600000000  0.3875090000000  0.5304510000000 1.0
C      1  0.5028990000000  0.3952370000000  0.4817210000000 1.0
C      1  0.4439550000000  0.4296190000000  0.4383730000000 1.0
C      1  0.5516080000000  0.4160870000000  0.5548650000000 1.0
C      1  0.4658300000000  0.5638420000000  0.4153980000000 1.0
C      1  0.5201400000000  0.4870100000000  0.4887130000000 1.0
C      1  0.5021980000000  0.4224930000000  0.4050160000000 1.0
C      1  0.5992520000000  0.4638320000000  0.5426360000000 1.0
C      1  0.4483350000000  0.4928300000000  0.5790590000000 1.0
C      1  0.5151640000000  0.4527000000000  0.5551570000000 1.0
C      1  0.5322660000000  0.4638280000000  0.4799630000000 1.0
C      1  0.5424200000000  0.5285650000000  0.4996290000000 1.0
C      1  0.5631920000000  0.5109580000000  0.5499090000000 1.0
C      1  0.4606570000000  0.5997940000000  0.4767700000000 1.0
C      1  0.5319900000000  0.5331670000000  0.4711690000000 1.0
C      1  0.5119200000000  0.5790250000000  0.4188420000000 1.0
C      1  0.4557260000000  0.4626210000000  0.5834440000000 1.0
C      1  0.4960250000000  0.5160660000000  0.5715050000000 1.0
C      1  0.5028850000000  0.4435780000000  0.4317070000000 1.0
C      1  0.4926160000000  0.4616370000000  0.4752570000000 1.0
C      1  0.5682450000000  0.3902920000000  0.5292430000000 1.0
C      1  0.4236770000000  0.3711800000000  0.5019600000000 1.0
C      1  0.5016590000000  0.4740430000000  0.4441330000000 1.0
C      1  0.5784490000000  0.4741760000000  0.4462580000000 1.0
C      1  0.5281040000000  0.4114120000000  0.4356820000000 1.0
C      1  0.4780740000000  0.5435120000000  0.4648030000000 1.0
C      1  0.5128560000000  0.4004770000000  0.5328410000000 1.0
C      1  0.5015600000000  0.4881600000000  0.5675050000000 1.0
C      1  0.5857270000000  0.4594640000000  0.5187560000000 1.0
C      1  0.5706920000000  0.5170800000000  0.4954810000000 1.0
C      1  0.5658070000000  0.4323240000000  0.4870180000000 1.0
C      1  0.4701510000000  0.5132030000000  0.5413740000000 1.0
C      1  0.4558390000000  0.6094210000000  0.5078070000000 1.0
C      1  0.4927910000000  0.4283290000000  0.5559710000000 1.0
C      1  0.4054720000000  0.5639050000000  0.4897270000000 1.0
C      1  0.5197130000000  0.5545750000000  0.5353640000000 1.0
C      1  0.5141470000000  0.5338640000000  0.5603410000000 1.0
C      1  0.5457330000000  0.4522940000000  0.5960340000000 1.0
C      1  0.5366230000000  0.5761810000000  0.4945990000000 1.0
C      1  0.5281390000000  0.5035830000000  0.5127190000000 1.0
C      1  0.5620470000000  0.5239820000000  0.4280760000000 1.0
C      1  0.4414500000000  0.5547040000000  0.4257940000000 1.0
C      1  0.4998900000000  0.5003980000000  0.6129320000000 1.0
C      1  0.5136830000000  0.4565970000000  0.5889930000000 1.0
C      1  0.5486190000000  0.4504450000000  0.4980740000000 1.0
C      1  0.4467810000000  0.5227140000000  0.5104490000000 1.0
C      1  0.5246680000000  0.4201010000000  0.4742300000000 1.0
C      1  0.4589220000000  0.5610230000000  0.5102590000000 1.0
C      1  0.4802430000000  0.5440810000000  0.4018020000000 1.0
C      1  0.4552520000000  0.4434440000000  0.4028230000000 1.0
C      1  0.5297470000000  0.4871510000000  0.5692030000000 1.0
C      1  0.4486160000000  0.4668570000000  0.4518840000000 1.0
C      1  0.5810920000000  0.5056050000000  0.5233230000000 1.0
C      1  0.5230180000000  0.4215660000000  0.5081260000000 1.0
C      1  0.4272340000000  0.5706360000000  0.5050510000000 1.0
C      1  0.5526290000000  0.5027640000000  0.5875840000000 1.0
C      1  0.4142250000000  0.5521270000000  0.5379090000000 1.0
C      1  0.4047730000000  0.4465100000000  0.5257370000000 1.0
C      1  0.4994470000000  0.5357900000000  0.5198050000000 1.0
C      1  0.5097840000000  0.5263450000000  0.6116260000000 1.0
C      1  0.4424520000000  0.5307890000000  0.4776780000000 1.0
C      1  0.5398080000000  0.5613360000000  0.4640260000000 1.0
C      1  0.5944750000000  0.5635420000000  0.5085600000000 1.0
C      1  0.4722070000000  0.4340110000000  0.4282700000000 1.0
C      1  0.5670560000000  0.5875860000000  0.5484650000000 1.0
C      1  0.5436460000000  0.5330630000000  0.5588810000000 1.0
END
