TITL C-2778428-5639-1358 4.49864988040054e-05 125000 -1124.23695711474 0 0 195 (C1) n - 1
REM
REM in /home/nfs/bkarasulu/CARBON/AIRSS/Generating-Clusters/REBO/Only-C1/SD-CG/HFTN-CG
REM
REM
REM
REM
REM
REM ./C.cell (11c1c37f851c82e70ff6c80c92926a4b)
REM
REM compiler GCC version 9.2.1 20190827 (Red Hat 9.2.1-1)
REM options -cpp -mtune=generic -march=x86-64 -g -O0 -fpre-include=/usr/include/finclude/math-vector-fortran.h
REM seed -1845319345 -325361962 2012784194 -1483888250 -2036088633 417622268 -157585769 -2097218317 -88861957 974433303 -1867189203 -1102650886 919886061 803678725 -889358597 -1546627640 -2089876723 644665503 -321502772 -989185795 1403312602 -2026419888 2040129816 -318823975 1180546832 940258970 205276724 -1931575776 305428307 -271597076 -559142910 -926524398 -1212925763
REM
CELL 1.54180   50.00000   50.00000   50.00000   90.00000   90.00000   90.00000
LATT -1
SFAC C  
C      1  0.5836560000000  0.5333800000000  0.4251740000000 1.0
C      1  0.5341600000000  0.3998010000000  0.5036880000000 1.0
C      1  0.5178140000000  0.5625410000000  0.5886760000000 1.0
C      1  0.4884050000000  0.5077760000000  0.4899700000000 1.0
C      1  0.5754410000000  0.4995110000000  0.4880250000000 1.0
C      1  0.4496990000000  0.5451130000000  0.5698200000000 1.0
C      1  0.5921430000000  0.4816610000000  0.4441220000000 1.0
C      1  0.4695000000000  0.5922300000000  0.5595750000000 1.0
C      1  0.4030830000000  0.4592390000000  0.4598120000000 1.0
C      1  0.5530610000000  0.5155700000000  0.4436190000000 1.0
C      1  0.4499760000000  0.4722110000000  0.4625190000000 1.0
C      1  0.5290750000000  0.5364110000000  0.3925070000000 1.0
C      1  0.4185860000000  0.5325750000000  0.4261790000000 1.0
C      1  0.6142620000000  0.5308910000000  0.4855170000000 1.0
C      1  0.4768810000000  0.4761950000000  0.5862830000000 1.0
C      1  0.4619830000000  0.4237880000000  0.4989690000000 1.0
C      1  0.5240440000000  0.5340050000000  0.4668590000000 1.0
C      1  0.5060360000000  0.4134660000000  0.5700070000000 1.0
C      1  0.5083600000000  0.5199480000000  0.4134220000000 1.0
C      1  0.4421890000000  0.4765020000000  0.4929370000000 1.0
C      1  0.4446540000000  0.4926680000000  0.5446010000000 1.0
C      1  0.5228850000000  0.4481500000000  0.5598220000000 1.0
C      1  0.5423370000000  0.4086980000000  0.4586710000000 1.0
C      1  0.4991980000000  0.5494340000000  0.4033270000000 1.0
C      1  0.5775180000000  0.4362450000000  0.5408890000000 1.0
C      1  0.5469820000000  0.5195420000000  0.5914980000000 1.0
C      1  0.5443150000000  0.5861070000000  0.5332280000000 1.0
C      1  0.4976550000000  0.4628980000000  0.4509530000000 1.0
C      1  0.3993320000000  0.4475100000000  0.4290780000000 1.0
C      1  0.5189150000000  0.5115480000000  0.5151420000000 1.0
C      1  0.5822490000000  0.4166600000000  0.5158290000000 1.0
C      1  0.5919730000000  0.4552640000000  0.5165010000000 1.0
C      1  0.6030990000000  0.4536920000000  0.4843650000000 1.0
C      1  0.4869020000000  0.5603110000000  0.5195990000000 1.0
C      1  0.4387890000000  0.5425750000000  0.5249160000000 1.0
C      1  0.4619680000000  0.4313350000000  0.5664590000000 1.0
C      1  0.6014450000000  0.4877670000000  0.5537310000000 1.0
C      1  0.4870110000000  0.5978310000000  0.4276240000000 1.0
C      1  0.4738500000000  0.5069080000000  0.6001120000000 1.0
C      1  0.4112730000000  0.4352210000000  0.4813460000000 1.0
C      1  0.5745220000000  0.5577880000000  0.5684850000000 1.0
C      1  0.4686280000000  0.5834840000000  0.5311990000000 1.0
C      1  0.4838600000000  0.5348200000000  0.4412890000000 1.0
C      1  0.5209020000000  0.5424910000000  0.5543960000000 1.0
C      1  0.4548150000000  0.3910230000000  0.5203550000000 1.0
C      1  0.4589340000000  0.4499330000000  0.5929480000000 1.0
C      1  0.4300610000000  0.4153770000000  0.4990090000000 1.0
C      1  0.5039040000000  0.4715330000000  0.5699320000000 1.0
C      1  0.4467500000000  0.4674090000000  0.4279390000000 1.0
C      1  0.5436760000000  0.5344810000000  0.4842050000000 1.0
C      1  0.4483450000000  0.4473350000000  0.5193070000000 1.0
C      1  0.4799900000000  0.4233310000000  0.5232420000000 1.0
C      1  0.4401600000000  0.4164520000000  0.5315850000000 1.0
C      1  0.4228810000000  0.5029710000000  0.5682340000000 1.0
C      1  0.4077860000000  0.5409910000000  0.5377660000000 1.0
C      1  0.4703810000000  0.5382110000000  0.5934440000000 1.0
C      1  0.3860070000000  0.4826520000000  0.5089420000000 1.0
C      1  0.4916670000000  0.5608540000000  0.4411120000000 1.0
C      1  0.4691680000000  0.5767200000000  0.4563580000000 1.0
C      1  0.4203580000000  0.5324560000000  0.5652920000000 1.0
C      1  0.5449720000000  0.4174030000000  0.5295680000000 1.0
C      1  0.5058950000000  0.5942350000000  0.5403510000000 1.0
C      1  0.5381550000000  0.4425480000000  0.5962120000000 1.0
C      1  0.4528630000000  0.4959100000000  0.5775430000000 1.0
C      1  0.5854690000000  0.4637110000000  0.5664040000000 1.0
C      1  0.5620890000000  0.4381070000000  0.4346420000000 1.0
C      1  0.4099790000000  0.4745460000000  0.4882000000000 1.0
C      1  0.5412910000000  0.5068830000000  0.3949910000000 1.0
C      1  0.5771260000000  0.5370180000000  0.5927950000000 1.0
C      1  0.4283310000000  0.4429320000000  0.4334920000000 1.0
C      1  0.5095440000000  0.5070720000000  0.4659090000000 1.0
C      1  0.4463250000000  0.5411040000000  0.4944940000000 1.0
C      1  0.5387990000000  0.4330480000000  0.4820320000000 1.0
C      1  0.4396010000000  0.5565790000000  0.4195760000000 1.0
C      1  0.5379340000000  0.5590480000000  0.5151510000000 1.0
C      1  0.5342890000000  0.5349870000000  0.5299280000000 1.0
C      1  0.5135600000000  0.4846090000000  0.5304800000000 1.0
C      1  0.5837370000000  0.4518940000000  0.4562640000000 1.0
C      1  0.4839150000000  0.3839350000000  0.5177450000000 1.0
C      1  0.5146020000000  0.4654890000000  0.6077170000000 1.0
C      1  0.4748390000000  0.5973450000000  0.4899590000000 1.0
C      1  0.5453930000000  0.4480810000000  0.4144910000000 1.0
C      1  0.5341880000000  0.5962240000000  0.5016590000000 1.0
C      1  0.4810350000000  0.4180750000000  0.4475040000000 1.0
C      1  0.4769030000000  0.4856910000000  0.4572810000000 1.0
C      1  0.3900770000000  0.5017640000000  0.4833880000000 1.0
C      1  0.4694090000000  0.4720770000000  0.5130240000000 1.0
C      1  0.5498650000000  0.5478090000000  0.4398020000000 1.0
C      1  0.4420640000000  0.5322490000000  0.4653970000000 1.0
C      1  0.4763850000000  0.4958320000000  0.3936010000000 1.0
C      1  0.5719120000000  0.4216240000000  0.4629190000000 1.0
C      1  0.4672070000000  0.5171360000000  0.4543250000000 1.0
C      1  0.5095320000000  0.5941180000000  0.4528500000000 1.0
C      1  0.5039180000000  0.4194530000000  0.4681730000000 1.0
C      1  0.4474360000000  0.5009350000000  0.4352800000000 1.0
C      1  0.4825650000000  0.4796170000000  0.5437260000000 1.0
C      1  0.4974600000000  0.6051330000000  0.5144140000000 1.0
C      1  0.5900620000000  0.5509850000000  0.5099110000000 1.0
C      1  0.5365220000000  0.5593560000000  0.4132980000000 1.0
C      1  0.5074410000000  0.6040970000000  0.4817760000000 1.0
C      1  0.4417290000000  0.5601590000000  0.4506240000000 1.0
C      1  0.3942030000000  0.4924810000000  0.5355960000000 1.0
C      1  0.5101170000000  0.4917640000000  0.3967380000000 1.0
C      1  0.5625760000000  0.5923870000000  0.4832720000000 1.0
C      1  0.5570470000000  0.5604380000000  0.4899620000000 1.0
C      1  0.4047290000000  0.5460270000000  0.4551780000000 1.0
C      1  0.4691280000000  0.5486410000000  0.4067820000000 1.0
C      1  0.4553550000000  0.4628120000000  0.5554160000000 1.0
C      1  0.3974480000000  0.5322680000000  0.4859380000000 1.0
C      1  0.4771590000000  0.5398330000000  0.4940810000000 1.0
C      1  0.4296480000000  0.4514410000000  0.5749300000000 1.0
C      1  0.4291440000000  0.4962420000000  0.5165680000000 1.0
C      1  0.5738400000000  0.5906470000000  0.4569400000000 1.0
C      1  0.4817420000000  0.5107580000000  0.5544720000000 1.0
C      1  0.4117110000000  0.4737210000000  0.5566900000000 1.0
C      1  0.5435240000000  0.5483690000000  0.5758110000000 1.0
C      1  0.5061900000000  0.4987060000000  0.6069680000000 1.0
C      1  0.4015350000000  0.5646400000000  0.4901860000000 1.0
C      1  0.5577720000000  0.5131140000000  0.5343530000000 1.0
C      1  0.5485140000000  0.4761460000000  0.4077010000000 1.0
C      1  0.5470690000000  0.4660680000000  0.5765050000000 1.0
C      1  0.5869560000000  0.5475490000000  0.5432120000000 1.0
C      1  0.5091160000000  0.4011290000000  0.5260160000000 1.0
C      1  0.4158690000000  0.5775830000000  0.4618400000000 1.0
C      1  0.5953830000000  0.5170130000000  0.5077760000000 1.0
C      1  0.4610520000000  0.5304370000000  0.5412800000000 1.0
C      1  0.5634390000000  0.4129330000000  0.4944000000000 1.0
C      1  0.4905880000000  0.3793080000000  0.4884700000000 1.0
C      1  0.4176950000000  0.4333120000000  0.5487670000000 1.0
C      1  0.5092750000000  0.4282790000000  0.5945520000000 1.0
C      1  0.5238030000000  0.4983350000000  0.5778510000000 1.0
C      1  0.5038280000000  0.5328340000000  0.5997520000000 1.0
C      1  0.5262630000000  0.4008770000000  0.4389120000000 1.0
C      1  0.4453960000000  0.5748650000000  0.5625600000000 1.0
C      1  0.4857540000000  0.5144750000000  0.5230030000000 1.0
C      1  0.5635400000000  0.4381370000000  0.5723210000000 1.0
C      1  0.5405200000000  0.4921840000000  0.4319710000000 1.0
C      1  0.4220300000000  0.4656250000000  0.5259880000000 1.0
C      1  0.5476450000000  0.4622880000000  0.4867530000000 1.0
C      1  0.5270450000000  0.4751400000000  0.4496540000000 1.0
C      1  0.5506900000000  0.5116010000000  0.5020630000000 1.0
C      1  0.5104690000000  0.5769520000000  0.4171060000000 1.0
C      1  0.4605990000000  0.3927900000000  0.4865410000000 1.0
C      1  0.5792480000000  0.5064520000000  0.4583580000000 1.0
C      1  0.5061630000000  0.4182880000000  0.4283440000000 1.0
C      1  0.5939580000000  0.5561450000000  0.4762170000000 1.0
C      1  0.5218130000000  0.5624140000000  0.4523200000000 1.0
C      1  0.4629150000000  0.5179990000000  0.4118250000000 1.0
C      1  0.5120520000000  0.3964250000000  0.4816030000000 1.0
C      1  0.5618540000000  0.4894500000000  0.5858120000000 1.0
C      1  0.4330150000000  0.5697210000000  0.4963680000000 1.0
C      1  0.5200800000000  0.4591250000000  0.5148330000000 1.0
C      1  0.5092080000000  0.4350260000000  0.5314620000000 1.0
C      1  0.5171280000000  0.4415330000000  0.4157930000000 1.0
C      1  0.5386890000000  0.4924000000000  0.5482520000000 1.0
C      1  0.5845000000000  0.5170500000000  0.5490410000000 1.0
C      1  0.5838790000000  0.5102100000000  0.5805160000000 1.0
C      1  0.5499030000000  0.4493670000000  0.5242110000000 1.0
C      1  0.4962330000000  0.4748040000000  0.4959140000000 1.0
C      1  0.4991460000000  0.4989300000000  0.4344530000000 1.0
C      1  0.5041660000000  0.5216130000000  0.5688240000000 1.0
C      1  0.5748860000000  0.4700590000000  0.4918000000000 1.0
C      1  0.4977700000000  0.5623650000000  0.5500990000000 1.0
C      1  0.4887260000000  0.5672720000000  0.4804700000000 1.0
C      1  0.5722570000000  0.5113270000000  0.4088800000000 1.0
C      1  0.4251720000000  0.5081940000000  0.4032110000000 1.0
C      1  0.5093280000000  0.4492210000000  0.4777210000000 1.0
C      1  0.5921560000000  0.4885520000000  0.5225630000000 1.0
C      1  0.5772290000000  0.5617370000000  0.4470040000000 1.0
C      1  0.4561580000000  0.4119290000000  0.4608040000000 1.0
C      1  0.5997450000000  0.5300700000000  0.4550230000000 1.0
C      1  0.5024880000000  0.4683940000000  0.4188500000000 1.0
C      1  0.4210630000000  0.4859130000000  0.4517460000000 1.0
C      1  0.5718230000000  0.5797640000000  0.5138400000000 1.0
C      1  0.4100000000000  0.4370800000000  0.5155080000000 1.0
C      1  0.5289380000000  0.5834170000000  0.5634970000000 1.0
C      1  0.5329320000000  0.4150180000000  0.5560440000000 1.0
C      1  0.4819390000000  0.4170150000000  0.5543880000000 1.0
C      1  0.5861810000000  0.4875850000000  0.4142490000000 1.0
C      1  0.4333970000000  0.4276440000000  0.4570860000000 1.0
C      1  0.4448760000000  0.5916510000000  0.4745640000000 1.0
C      1  0.4885010000000  0.4452070000000  0.6080530000000 1.0
C      1  0.4636030000000  0.5808130000000  0.4171270000000 1.0
C      1  0.4162640000000  0.5152560000000  0.4553300000000 1.0
C      1  0.5120880000000  0.5701070000000  0.5019390000000 1.0
C      1  0.4981990000000  0.5940840000000  0.5739850000000 1.0
C      1  0.4853740000000  0.5633260000000  0.5818000000000 1.0
C      1  0.5307830000000  0.4829750000000  0.4776090000000 1.0
C      1  0.4005320000000  0.5689600000000  0.5222330000000 1.0
C      1  0.4056100000000  0.5181320000000  0.5160290000000 1.0
C      1  0.5662740000000  0.4745270000000  0.5401970000000 1.0
C      1  0.4301130000000  0.5738840000000  0.5358810000000 1.0
C      1  0.4445720000000  0.4854760000000  0.3990670000000 1.0
C      1  0.4456280000000  0.5931900000000  0.5144740000000 1.0
C      1  0.6181280000000  0.4704410000000  0.4626000000000 1.0
END
