TITL C-2778435-5768-1076 0.00405228156467263 125000 -837.291196829349 0 0 146 (C1) n - 1
REM
REM in /home/nfs/bkarasulu/CARBON/AIRSS/Generating-Clusters/REBO/Only-C1/SD-CG/HFTN-CG
REM
REM
REM
REM
REM
REM ./C.cell (11c1c37f851c82e70ff6c80c92926a4b)
REM
REM compiler GCC version 9.2.1 20190827 (Red Hat 9.2.1-1)
REM options -cpp -mtune=generic -march=x86-64 -g -O0 -fpre-include=/usr/include/finclude/math-vector-fortran.h
REM seed -1903983424 -1645302190 2025112898 -2025586445 -525982866 -632349068 -1124328992 -761601884 -1566095508 1388985002 -1969109506 798472708 1600777099 2019777058 -2023446304 1908963702 -1676827270 -86426682 -948795524 -1750016942 1668500307 -1328528666 -1079176513 440691750 -1995522367 -990807252 1296918144 2121690585 1773986574 346718931 -389178249 -310054926 1978310865
REM
CELL 1.54180   50.00000   50.00000   50.00000   90.00000   90.00000   90.00000
LATT -1
SFAC C  
C      1  0.5436460000000  0.6063250000000  0.5198560000000 1.0
C      1  0.5124010000000  0.4410520000000  0.5725680000000 1.0
C      1  0.5226350000000  0.5247320000000  0.4352830000000 1.0
C      1  0.4283330000000  0.4630750000000  0.5221540000000 1.0
C      1  0.4639370000000  0.4833830000000  0.4574520000000 1.0
C      1  0.4760340000000  0.4618040000000  0.5245090000000 1.0
C      1  0.4110380000000  0.5459380000000  0.5025600000000 1.0
C      1  0.5765610000000  0.4292360000000  0.4268730000000 1.0
C      1  0.4950050000000  0.5402100000000  0.5448690000000 1.0
C      1  0.5069600000000  0.5609960000000  0.5767530000000 1.0
C      1  0.5692040000000  0.5093750000000  0.5327210000000 1.0
C      1  0.4536210000000  0.5626730000000  0.5229010000000 1.0
C      1  0.5384950000000  0.5207760000000  0.5323190000000 1.0
C      1  0.5117540000000  0.5925350000000  0.4070590000000 1.0
C      1  0.5301250000000  0.4137890000000  0.5317710000000 1.0
C      1  0.5360490000000  0.6046250000000  0.4963450000000 1.0
C      1  0.4835510000000  0.4381350000000  0.5053800000000 1.0
C      1  0.5930420000000  0.4854490000000  0.5379740000000 1.0
C      1  0.4819680000000  0.4906190000000  0.5197340000000 1.0
C      1  0.5036460000000  0.5029770000000  0.4440920000000 1.0
C      1  0.5092040000000  0.5636710000000  0.5240030000000 1.0
C      1  0.4333700000000  0.5590400000000  0.5464400000000 1.0
C      1  0.5885190000000  0.4282820000000  0.4769720000000 1.0
C      1  0.5141900000000  0.4812560000000  0.4757020000000 1.0
C      1  0.4647820000000  0.3980960000000  0.4844580000000 1.0
C      1  0.4440610000000  0.4829700000000  0.5096250000000 1.0
C      1  0.4389820000000  0.5113130000000  0.5693840000000 1.0
C      1  0.5063110000000  0.4728810000000  0.4291200000000 1.0
C      1  0.4174350000000  0.4664330000000  0.4623300000000 1.0
C      1  0.4593790000000  0.4209250000000  0.4624820000000 1.0
C      1  0.4225850000000  0.4983820000000  0.5465270000000 1.0
C      1  0.4372180000000  0.5263320000000  0.4778200000000 1.0
C      1  0.5632810000000  0.4898780000000  0.5050190000000 1.0
C      1  0.5141450000000  0.4774640000000  0.5392710000000 1.0
C      1  0.5580350000000  0.4442240000000  0.5331640000000 1.0
C      1  0.4981230000000  0.5679790000000  0.4938850000000 1.0
C      1  0.4973250000000  0.3880810000000  0.4847510000000 1.0
C      1  0.5467390000000  0.4113640000000  0.5069480000000 1.0
C      1  0.4635180000000  0.4894710000000  0.5745790000000 1.0
C      1  0.4366500000000  0.5404010000000  0.4519560000000 1.0
C      1  0.4900870000000  0.4837180000000  0.5582650000000 1.0
C      1  0.5419560000000  0.4270090000000  0.4767940000000 1.0
C      1  0.5409980000000  0.4113640000000  0.5557770000000 1.0
C      1  0.4024940000000  0.4878000000000  0.4798000000000 1.0
C      1  0.4117990000000  0.5446930000000  0.5337560000000 1.0
C      1  0.5785590000000  0.5171180000000  0.4938630000000 1.0
C      1  0.4421200000000  0.4933600000000  0.4255810000000 1.0
C      1  0.5304110000000  0.3952450000000  0.4830370000000 1.0
C      1  0.4481390000000  0.5810590000000  0.4880900000000 1.0
C      1  0.5070450000000  0.4250100000000  0.4363660000000 1.0
C      1  0.5939320000000  0.5292320000000  0.4654520000000 1.0
C      1  0.5450440000000  0.4945790000000  0.5938400000000 1.0
C      1  0.4203190000000  0.4402870000000  0.4818290000000 1.0
C      1  0.5560140000000  0.5038230000000  0.4477180000000 1.0
C      1  0.5524640000000  0.4422010000000  0.4302450000000 1.0
C      1  0.5120340000000  0.4979960000000  0.5118210000000 1.0
C      1  0.5609530000000  0.5687810000000  0.5247000000000 1.0
C      1  0.5228440000000  0.5830760000000  0.4795280000000 1.0
C      1  0.3987810000000  0.4659480000000  0.5257500000000 1.0
C      1  0.5577430000000  0.5710570000000  0.4948540000000 1.0
C      1  0.5560790000000  0.4684740000000  0.5667030000000 1.0
C      1  0.6147240000000  0.5314420000000  0.4862740000000 1.0
C      1  0.5214180000000  0.5216210000000  0.4961920000000 1.0
C      1  0.5099680000000  0.5771880000000  0.4286170000000 1.0
C      1  0.4591810000000  0.5930570000000  0.5152970000000 1.0
C      1  0.5375290000000  0.5380800000000  0.4560550000000 1.0
C      1  0.5778630000000  0.5432640000000  0.5364470000000 1.0
C      1  0.5212580000000  0.5070000000000  0.5495720000000 1.0
C      1  0.4684230000000  0.6439390000000  0.5354630000000 1.0
C      1  0.5975350000000  0.5319180000000  0.5159880000000 1.0
C      1  0.4582130000000  0.5687210000000  0.5620510000000 1.0
C      1  0.4558360000000  0.4655650000000  0.4128250000000 1.0
C      1  0.5076850000000  0.4119520000000  0.4640110000000 1.0
C      1  0.4521160000000  0.4523360000000  0.5838190000000 1.0
C      1  0.5332840000000  0.4485190000000  0.5108600000000 1.0
C      1  0.4507290000000  0.5455040000000  0.4204210000000 1.0
C      1  0.5056400000000  0.4553380000000  0.3936110000000 1.0
C      1  0.5004260000000  0.4191110000000  0.5287630000000 1.0
C      1  0.3981690000000  0.4620660000000  0.4960560000000 1.0
C      1  0.4800090000000  0.4473530000000  0.5817870000000 1.0
C      1  0.5306910000000  0.4552010000000  0.5502040000000 1.0
C      1  0.5815180000000  0.4617880000000  0.5480860000000 1.0
C      1  0.4954720000000  0.5057370000000  0.5911590000000 1.0
C      1  0.5322350000000  0.5769740000000  0.4483940000000 1.0
C      1  0.5516220000000  0.4488690000000  0.4592080000000 1.0
C      1  0.5362540000000  0.5497120000000  0.5336320000000 1.0
C      1  0.5613350000000  0.5359990000000  0.5628290000000 1.0
C      1  0.4784040000000  0.5422560000000  0.5172520000000 1.0
C      1  0.4103080000000  0.5134390000000  0.4925510000000 1.0
C      1  0.5369350000000  0.5598430000000  0.5651010000000 1.0
C      1  0.4650480000000  0.5128370000000  0.4419810000000 1.0
C      1  0.4783630000000  0.5362560000000  0.4093400000000 1.0
C      1  0.5240350000000  0.4451970000000  0.4198080000000 1.0
C      1  0.5594610000000  0.5573300000000  0.4424490000000 1.0
C      1  0.4583080000000  0.5003750000000  0.4840630000000 1.0
C      1  0.4534200000000  0.4394360000000  0.4345270000000 1.0
C      1  0.5370590000000  0.5239350000000  0.4043300000000 1.0
C      1  0.4785780000000  0.5124150000000  0.5455010000000 1.0
C      1  0.4757520000000  0.5896920000000  0.5472300000000 1.0
C      1  0.4779430000000  0.5473160000000  0.5728950000000 1.0
C      1  0.4562430000000  0.4210120000000  0.5451590000000 1.0
C      1  0.4598160000000  0.4532460000000  0.5446280000000 1.0
C      1  0.5703790000000  0.4355680000000  0.5032400000000 1.0
C      1  0.5911130000000  0.4245400000000  0.4501510000000 1.0
C      1  0.4900770000000  0.4677340000000  0.4571020000000 1.0
C      1  0.4827700000000  0.4391490000000  0.4487320000000 1.0
C      1  0.4856410000000  0.5603600000000  0.4327060000000 1.0
C      1  0.5665700000000  0.4633610000000  0.4854560000000 1.0
C      1  0.4246250000000  0.5670740000000  0.4897580000000 1.0
C      1  0.4909900000000  0.5059330000000  0.4755490000000 1.0
C      1  0.5070520000000  0.5824940000000  0.5512310000000 1.0
C      1  0.5499970000000  0.5163940000000  0.4785920000000 1.0
C      1  0.5420240000000  0.5269850000000  0.5885330000000 1.0
C      1  0.4295270000000  0.5212680000000  0.4256460000000 1.0
C      1  0.4494660000000  0.5350760000000  0.5046070000000 1.0
C      1  0.5746200000000  0.5283790000000  0.4450720000000 1.0
C      1  0.5334790000000  0.4770010000000  0.5029440000000 1.0
C      1  0.5610500000000  0.5808400000000  0.4670070000000 1.0
C      1  0.5169390000000  0.5166600000000  0.5759310000000 1.0
C      1  0.6314600000000  0.5311030000000  0.5129380000000 1.0
C      1  0.4980700000000  0.4739590000000  0.5895700000000 1.0
C      1  0.5623070000000  0.5019070000000  0.5655330000000 1.0
C      1  0.4388380000000  0.4725600000000  0.5605910000000 1.0
C      1  0.5403320000000  0.5874950000000  0.5451560000000 1.0
C      1  0.4083820000000  0.4161050000000  0.4737310000000 1.0
C      1  0.5332080000000  0.5516230000000  0.4850640000000 1.0
C      1  0.4327580000000  0.4651220000000  0.4381750000000 1.0
C      1  0.4532040000000  0.4357670000000  0.4901040000000 1.0
C      1  0.4717610000000  0.5672180000000  0.4732330000000 1.0
C      1  0.4842440000000  0.3987950000000  0.5125740000000 1.0
C      1  0.4848950000000  0.5039460000000  0.4158810000000 1.0
C      1  0.4762970000000  0.5374490000000  0.4560430000000 1.0
C      1  0.5098330000000  0.5396790000000  0.4084990000000 1.0
C      1  0.5299110000000  0.4657600000000  0.5886220000000 1.0
C      1  0.4545130000000  0.5685070000000  0.4444750000000 1.0
C      1  0.4833650000000  0.4744010000000  0.4039380000000 1.0
C      1  0.4870430000000  0.4263760000000  0.5563080000000 1.0
C      1  0.4675040000000  0.5216110000000  0.5849460000000 1.0
C      1  0.4520870000000  0.4049480000000  0.5154330000000 1.0
C      1  0.5443030000000  0.4794110000000  0.4646560000000 1.0
C      1  0.4677140000000  0.6183040000000  0.5334020000000 1.0
C      1  0.5116740000000  0.4310950000000  0.4923030000000 1.0
C      1  0.4364620000000  0.4350160000000  0.5179310000000 1.0
C      1  0.4959090000000  0.5373550000000  0.4837000000000 1.0
C      1  0.4549500000000  0.5104860000000  0.5225380000000 1.0
C      1  0.4121810000000  0.5143650000000  0.5265840000000 1.0
END
