TITL C-2778434-4341-563 -0.00132156116231532 125000 -461.156272992064 0 0 80 (C1) n - 1
REM
REM in /home/nfs/bkarasulu/CARBON/AIRSS/Generating-Clusters/REBO/Only-C1/SD-CG/HFTN-CG
REM
REM
REM
REM
REM
REM ./C.cell (11c1c37f851c82e70ff6c80c92926a4b)
REM
REM compiler GCC version 9.2.1 20190827 (Red Hat 9.2.1-1)
REM options -cpp -mtune=generic -march=x86-64 -g -O0 -fpre-include=/usr/include/finclude/math-vector-fortran.h
REM seed 2038502996 -355381086 1222223185 -1224624636 73671056 1241560885 -1399069145 -114218123 207482706 -1793298817 -1244739054 -140704620 -1909812438 733029914 500790096 -1777492606 284322592 -468375785 315216967 -1390404748 1729902665 919769459 95981351 -1581983806 -1219688308 13381150 1432166351 288702391 411004883 1596647517 827742464 -158070475 2096838915
REM
CELL 1.54180   50.00000   50.00000   50.00000   90.00000   90.00000   90.00000
LATT -1
SFAC C  
C      1  0.4636890000000  0.4520510000000  0.4476100000000 1.0
C      1  0.4750700000000  0.5076470000000  0.5014140000000 1.0
C      1  0.4786210000000  0.4798020000000  0.5532770000000 1.0
C      1  0.4761100000000  0.5379350000000  0.4599390000000 1.0
C      1  0.4625950000000  0.4414070000000  0.5018240000000 1.0
C      1  0.4560250000000  0.5280680000000  0.4843860000000 1.0
C      1  0.5321710000000  0.4922850000000  0.4859670000000 1.0
C      1  0.4061330000000  0.4625520000000  0.5033740000000 1.0
C      1  0.4978160000000  0.5175200000000  0.4456770000000 1.0
C      1  0.5043960000000  0.4535190000000  0.4725260000000 1.0
C      1  0.5510920000000  0.5205260000000  0.4841940000000 1.0
C      1  0.5370970000000  0.4647360000000  0.4353980000000 1.0
C      1  0.5679770000000  0.4592010000000  0.4836020000000 1.0
C      1  0.4957210000000  0.5305960000000  0.4866830000000 1.0
C      1  0.5243130000000  0.5148850000000  0.4638380000000 1.0
C      1  0.5383280000000  0.4455100000000  0.5351500000000 1.0
C      1  0.5538470000000  0.4373120000000  0.5060040000000 1.0
C      1  0.5292210000000  0.4848720000000  0.4165290000000 1.0
C      1  0.5525340000000  0.5502250000000  0.4993480000000 1.0
C      1  0.5673000000000  0.4722780000000  0.5302020000000 1.0
C      1  0.4889480000000  0.4884700000000  0.4361400000000 1.0
C      1  0.5233200000000  0.4713180000000  0.5758000000000 1.0
C      1  0.4722420000000  0.4345370000000  0.5399710000000 1.0
C      1  0.4732930000000  0.5971920000000  0.5094210000000 1.0
C      1  0.4302900000000  0.5291020000000  0.5276990000000 1.0
C      1  0.4525660000000  0.4825560000000  0.5051300000000 1.0
C      1  0.4634860000000  0.5262910000000  0.4239410000000 1.0
C      1  0.4540200000000  0.5071590000000  0.4415680000000 1.0
C      1  0.4536300000000  0.5227020000000  0.5471710000000 1.0
C      1  0.5021290000000  0.5519180000000  0.5512770000000 1.0
C      1  0.4522280000000  0.5031070000000  0.5716370000000 1.0
C      1  0.5307890000000  0.5343290000000  0.4295630000000 1.0
C      1  0.4898520000000  0.4565460000000  0.5425410000000 1.0
C      1  0.5123470000000  0.5845530000000  0.4863880000000 1.0
C      1  0.4455790000000  0.4431930000000  0.5291480000000 1.0
C      1  0.5391050000000  0.5690910000000  0.4796510000000 1.0
C      1  0.5200810000000  0.5313120000000  0.5619220000000 1.0
C      1  0.4354120000000  0.4805810000000  0.5652360000000 1.0
C      1  0.5238580000000  0.4206610000000  0.5092020000000 1.0
C      1  0.5369790000000  0.4789610000000  0.5390460000000 1.0
C      1  0.5162310000000  0.4466860000000  0.4427490000000 1.0
C      1  0.5125240000000  0.5037200000000  0.5790300000000 1.0
C      1  0.5169830000000  0.4501260000000  0.4989070000000 1.0
C      1  0.4582900000000  0.4650370000000  0.4772680000000 1.0
C      1  0.5097640000000  0.4833810000000  0.4619500000000 1.0
C      1  0.5779100000000  0.4964820000000  0.5176550000000 1.0
C      1  0.5426140000000  0.5287370000000  0.5442290000000 1.0
C      1  0.4669610000000  0.4977900000000  0.5319720000000 1.0
C      1  0.5043840000000  0.4650280000000  0.5206840000000 1.0
C      1  0.5557770000000  0.5249070000000  0.4412950000000 1.0
C      1  0.4543770000000  0.5599230000000  0.5329510000000 1.0
C      1  0.5667620000000  0.5015050000000  0.4530470000000 1.0
C      1  0.4869970000000  0.4317480000000  0.4444640000000 1.0
C      1  0.5167940000000  0.5101630000000  0.4179790000000 1.0
C      1  0.5133370000000  0.4930050000000  0.5212380000000 1.0
C      1  0.4140140000000  0.5082560000000  0.5210830000000 1.0
C      1  0.5143960000000  0.5722550000000  0.5324160000000 1.0
C      1  0.4319480000000  0.4610070000000  0.5462140000000 1.0
C      1  0.5584270000000  0.4722230000000  0.4538640000000 1.0
C      1  0.4822230000000  0.4960600000000  0.5783540000000 1.0
C      1  0.4824560000000  0.5500830000000  0.4287560000000 1.0
C      1  0.5111480000000  0.5542420000000  0.4387240000000 1.0
C      1  0.4544070000000  0.4979210000000  0.4684340000000 1.0
C      1  0.4422770000000  0.5468380000000  0.5034540000000 1.0
C      1  0.5000170000000  0.5876710000000  0.5115900000000 1.0
C      1  0.5417930000000  0.4692330000000  0.4996800000000 1.0
C      1  0.4690060000000  0.4724580000000  0.4287850000000 1.0
C      1  0.5339050000000  0.5328030000000  0.5179350000000 1.0
C      1  0.5720620000000  0.4934450000000  0.4859220000000 1.0
C      1  0.4812250000000  0.4315750000000  0.4767710000000 1.0
C      1  0.5434560000000  0.4959410000000  0.5667630000000 1.0
C      1  0.4742970000000  0.5472050000000  0.5499950000000 1.0
C      1  0.5259580000000  0.4481130000000  0.5619140000000 1.0
C      1  0.5432610000000  0.5706400000000  0.5253120000000 1.0
C      1  0.5105380000000  0.5558770000000  0.4692470000000 1.0
C      1  0.5127680000000  0.5176920000000  0.5098500000000 1.0
C      1  0.4903990000000  0.4214110000000  0.5065030000000 1.0
C      1  0.5656470000000  0.5093660000000  0.5446500000000 1.0
C      1  0.4520120000000  0.5791170000000  0.5091240000000 1.0
C      1  0.4224440000000  0.4838210000000  0.5098510000000 1.0
END
