TITL C-2778435-5768-179 -0.0502636594195718 125000 -865.519554419949 0 0 148 (C1) n - 1
REM
REM in /home/nfs/bkarasulu/CARBON/AIRSS/Generating-Clusters/REBO/Only-C1/SD-CG/HFTN-CG
REM
REM
REM
REM
REM
REM ./C.cell (11c1c37f851c82e70ff6c80c92926a4b)
REM
REM compiler GCC version 9.2.1 20190827 (Red Hat 9.2.1-1)
REM options -cpp -mtune=generic -march=x86-64 -g -O0 -fpre-include=/usr/include/finclude/math-vector-fortran.h
REM seed -1876770684 841498376 859216236 354936472 1528792311 -659035768 897018967 1624504300 -1865431190 -371013631 -1319667510 749169161 1029408256 -2005550222 -897118162 -1211786115 1729943851 957674891 1631111665 -1069570418 -279229288 -512507774 -82150647 -238840670 -313120146 1844764565 1718889884 1130257095 -1402806980 1251586624 360686397 -1809496204 1921672895
REM
CELL 1.54180   50.00000   50.00000   50.00000   90.00000   90.00000   90.00000
LATT -1
SFAC C  
C      1  0.5593620000000  0.4668770000000  0.5575380000000 1.0
C      1  0.4408130000000  0.4826100000000  0.4600500000000 1.0
C      1  0.5184710000000  0.5179220000000  0.4588340000000 1.0
C      1  0.5195570000000  0.4396270000000  0.4190450000000 1.0
C      1  0.4490110000000  0.5472940000000  0.4432330000000 1.0
C      1  0.5030860000000  0.4655490000000  0.5393210000000 1.0
C      1  0.4319590000000  0.5255030000000  0.5291780000000 1.0
C      1  0.5842130000000  0.5268880000000  0.5092400000000 1.0
C      1  0.4750580000000  0.4108470000000  0.4724700000000 1.0
C      1  0.5575870000000  0.4301120000000  0.4466440000000 1.0
C      1  0.5224470000000  0.4776300000000  0.4333210000000 1.0
C      1  0.4487840000000  0.4887920000000  0.4915490000000 1.0
C      1  0.4912720000000  0.5402560000000  0.4931350000000 1.0
C      1  0.5550450000000  0.5138490000000  0.4035050000000 1.0
C      1  0.4900090000000  0.4103960000000  0.5391530000000 1.0
C      1  0.4093610000000  0.4769520000000  0.4510780000000 1.0
C      1  0.5268410000000  0.4158740000000  0.5717480000000 1.0
C      1  0.5292020000000  0.5729640000000  0.5722120000000 1.0
C      1  0.5649710000000  0.4524800000000  0.4273120000000 1.0
C      1  0.5130110000000  0.4876630000000  0.5798060000000 1.0
C      1  0.5228340000000  0.4511550000000  0.5539100000000 1.0
C      1  0.4434300000000  0.5594530000000  0.4746420000000 1.0
C      1  0.4732080000000  0.4375410000000  0.4324370000000 1.0
C      1  0.5631930000000  0.5121990000000  0.5800760000000 1.0
C      1  0.4985890000000  0.5057430000000  0.5554540000000 1.0
C      1  0.4722960000000  0.4631920000000  0.5425620000000 1.0
C      1  0.5607370000000  0.5665070000000  0.4611420000000 1.0
C      1  0.5363020000000  0.5083700000000  0.5919150000000 1.0
C      1  0.5697430000000  0.5290370000000  0.4272760000000 1.0
C      1  0.4599650000000  0.4143790000000  0.4450410000000 1.0
C      1  0.5864540000000  0.4651880000000  0.4977760000000 1.0
C      1  0.4509470000000  0.4649130000000  0.5658180000000 1.0
C      1  0.4704660000000  0.4400870000000  0.5182310000000 1.0
C      1  0.4387700000000  0.5029430000000  0.5667690000000 1.0
C      1  0.5136010000000  0.5968640000000  0.4634310000000 1.0
C      1  0.4634280000000  0.4726890000000  0.5941410000000 1.0
C      1  0.5362190000000  0.4884550000000  0.5572630000000 1.0
C      1  0.5402070000000  0.4630200000000  0.4078630000000 1.0
C      1  0.4012510000000  0.5127940000000  0.5216680000000 1.0
C      1  0.4993470000000  0.4725180000000  0.4096890000000 1.0
C      1  0.4348870000000  0.5906140000000  0.4682460000000 1.0
C      1  0.4894180000000  0.5010630000000  0.4610730000000 1.0
C      1  0.4034010000000  0.4817040000000  0.5278230000000 1.0
C      1  0.3911290000000  0.4707120000000  0.4703470000000 1.0
C      1  0.4572760000000  0.5125700000000  0.4611200000000 1.0
C      1  0.5747600000000  0.5527890000000  0.5208700000000 1.0
C      1  0.5752820000000  0.4934290000000  0.5616830000000 1.0
C      1  0.4014860000000  0.4662560000000  0.5006940000000 1.0
C      1  0.4244880000000  0.5185300000000  0.4658050000000 1.0
C      1  0.4158950000000  0.4392980000000  0.5027840000000 1.0
C      1  0.5257050000000  0.4735470000000  0.4890730000000 1.0
C      1  0.5602410000000  0.5700780000000  0.5008040000000 1.0
C      1  0.4462330000000  0.5710350000000  0.5287720000000 1.0
C      1  0.4780520000000  0.5332050000000  0.5350370000000 1.0
C      1  0.4978870000000  0.4952090000000  0.3872440000000 1.0
C      1  0.5815090000000  0.5541740000000  0.5542410000000 1.0
C      1  0.4350070000000  0.4928320000000  0.5284910000000 1.0
C      1  0.5218000000000  0.4226670000000  0.4947240000000 1.0
C      1  0.5079270000000  0.5143630000000  0.4285080000000 1.0
C      1  0.5788280000000  0.5044330000000  0.5323760000000 1.0
C      1  0.5681380000000  0.5417280000000  0.5788110000000 1.0
C      1  0.5439920000000  0.5554760000000  0.5898370000000 1.0
C      1  0.4663410000000  0.5100830000000  0.5481780000000 1.0
C      1  0.5476050000000  0.5132820000000  0.5407920000000 1.0
C      1  0.4227420000000  0.4773090000000  0.5558600000000 1.0
C      1  0.4278500000000  0.4309310000000  0.4786310000000 1.0
C      1  0.5297680000000  0.5603780000000  0.5447410000000 1.0
C      1  0.5831090000000  0.4698140000000  0.4397410000000 1.0
C      1  0.5909300000000  0.4680540000000  0.4693470000000 1.0
C      1  0.4900350000000  0.5700840000000  0.5027760000000 1.0
C      1  0.5146540000000  0.4131980000000  0.5233820000000 1.0
C      1  0.5796050000000  0.5528240000000  0.4469480000000 1.0
C      1  0.4305360000000  0.4908160000000  0.4295970000000 1.0
C      1  0.5041360000000  0.4587320000000  0.5883420000000 1.0
C      1  0.4788090000000  0.4597740000000  0.4846030000000 1.0
C      1  0.5304420000000  0.4933850000000  0.3958530000000 1.0
C      1  0.4843680000000  0.5152940000000  0.5850870000000 1.0
C      1  0.5418540000000  0.5027750000000  0.4865130000000 1.0
C      1  0.5646350000000  0.5958600000000  0.4973350000000 1.0
C      1  0.4975490000000  0.4140300000000  0.5678270000000 1.0
C      1  0.4166590000000  0.4947530000000  0.4894450000000 1.0
C      1  0.4395970000000  0.5655880000000  0.5555710000000 1.0
C      1  0.4884180000000  0.4868420000000  0.4920260000000 1.0
C      1  0.4906940000000  0.4420730000000  0.4098280000000 1.0
C      1  0.5316370000000  0.5399280000000  0.4287120000000 1.0
C      1  0.5107220000000  0.5792420000000  0.5269880000000 1.0
C      1  0.5183220000000  0.5110660000000  0.5281940000000 1.0
C      1  0.4459750000000  0.4164960000000  0.5625830000000 1.0
C      1  0.5188040000000  0.4391300000000  0.4475470000000 1.0
C      1  0.5659390000000  0.4502910000000  0.5113580000000 1.0
C      1  0.5378080000000  0.5540480000000  0.4831060000000 1.0
C      1  0.4845460000000  0.4359140000000  0.5827740000000 1.0
C      1  0.4315990000000  0.4172640000000  0.4521160000000 1.0
C      1  0.4998620000000  0.5478680000000  0.5344330000000 1.0
C      1  0.4835350000000  0.4941860000000  0.4282100000000 1.0
C      1  0.5225250000000  0.5592130000000  0.4533110000000 1.0
C      1  0.5422020000000  0.4468360000000  0.4934300000000 1.0
C      1  0.5376320000000  0.4225140000000  0.5423350000000 1.0
C      1  0.4157550000000  0.4401700000000  0.5507140000000 1.0
C      1  0.4127740000000  0.5282640000000  0.4946770000000 1.0
C      1  0.5311400000000  0.4431690000000  0.5859430000000 1.0
C      1  0.5225140000000  0.5280470000000  0.4989230000000 1.0
C      1  0.5498790000000  0.5274100000000  0.4551520000000 1.0
C      1  0.4270870000000  0.4301270000000  0.5271970000000 1.0
C      1  0.4896270000000  0.6253450000000  0.5495450000000 1.0
C      1  0.4558860000000  0.4708380000000  0.5154190000000 1.0
C      1  0.5909360000000  0.5286470000000  0.4609330000000 1.0
C      1  0.4953260000000  0.5767240000000  0.4425380000000 1.0
C      1  0.5524280000000  0.5430690000000  0.5420620000000 1.0
C      1  0.4149900000000  0.5415380000000  0.4444430000000 1.0
C      1  0.5513530000000  0.4831390000000  0.4603440000000 1.0
C      1  0.5095800000000  0.4838210000000  0.5158250000000 1.0
C      1  0.4564140000000  0.5023260000000  0.4135190000000 1.0
C      1  0.4807710000000  0.4557900000000  0.4526970000000 1.0
C      1  0.5328260000000  0.4199600000000  0.4653420000000 1.0
C      1  0.4565720000000  0.4365780000000  0.4780500000000 1.0
C      1  0.4778090000000  0.5144060000000  0.3942310000000 1.0
C      1  0.5955430000000  0.4887800000000  0.5107680000000 1.0
C      1  0.4882440000000  0.5400500000000  0.4055220000000 1.0
C      1  0.4954730000000  0.5416700000000  0.4614290000000 1.0
C      1  0.4556730000000  0.5266560000000  0.5826960000000 1.0
C      1  0.5522170000000  0.4934590000000  0.4306840000000 1.0
C      1  0.5262270000000  0.5346570000000  0.5999580000000 1.0
C      1  0.5193880000000  0.5262960000000  0.4000150000000 1.0
C      1  0.4919340000000  0.5977640000000  0.5479280000000 1.0
C      1  0.6034840000000  0.4979980000000  0.4591630000000 1.0
C      1  0.4343850000000  0.5230550000000  0.4251960000000 1.0
C      1  0.5113720000000  0.4676830000000  0.4615980000000 1.0
C      1  0.4569660000000  0.4145700000000  0.5320160000000 1.0
C      1  0.4702010000000  0.5156020000000  0.4925460000000 1.0
C      1  0.4662900000000  0.5803740000000  0.4601220000000 1.0
C      1  0.4779260000000  0.5497500000000  0.4342480000000 1.0
C      1  0.4585090000000  0.5585770000000  0.5785970000000 1.0
C      1  0.5687810000000  0.5206630000000  0.4825980000000 1.0
C      1  0.4988130000000  0.5396870000000  0.5960660000000 1.0
C      1  0.5022760000000  0.5829180000000  0.5743500000000 1.0
C      1  0.5858320000000  0.5008420000000  0.4302160000000 1.0
C      1  0.4331700000000  0.5352710000000  0.5585520000000 1.0
C      1  0.5592450000000  0.4456380000000  0.5383720000000 1.0
C      1  0.4853940000000  0.5641580000000  0.5872420000000 1.0
C      1  0.4362070000000  0.5497910000000  0.5054640000000 1.0
C      1  0.4715040000000  0.5821490000000  0.5260490000000 1.0
C      1  0.5516470000000  0.4551760000000  0.4648910000000 1.0
C      1  0.4797450000000  0.4898550000000  0.6018920000000 1.0
C      1  0.4567200000000  0.4369930000000  0.5774750000000 1.0
C      1  0.4914420000000  0.4299070000000  0.4954300000000 1.0
C      1  0.6063260000000  0.5091830000000  0.4902480000000 1.0
C      1  0.4895620000000  0.5887400000000  0.4797570000000 1.0
END
