TITL C-2778431-5191-449 2.06615476960161e-05 125000 -120.320601765371 0 0 22 (C1) n - 1
REM
REM in /home/nfs/bkarasulu/CARBON/AIRSS/Generating-Clusters/REBO/Only-C1/SD-CG/HFTN-CG
REM
REM
REM
REM
REM
REM ./C.cell (11c1c37f851c82e70ff6c80c92926a4b)
REM
REM compiler GCC version 9.2.1 20190827 (Red Hat 9.2.1-1)
REM options -cpp -mtune=generic -march=x86-64 -g -O0 -fpre-include=/usr/include/finclude/math-vector-fortran.h
REM seed 1252116669 -1538732856 -1328303722 -49861593 1293662385 1128571079 -1428689487 -259566729 -650127474 -1215896959 -192064125 -868401414 1082418474 -1444017481 -1227823181 1603683676 1237116753 1593342884 -2125789015 -906583709 -1616522420 1744027809 1306211748 703396764 1820014702 -949751869 -1868305312 -1686686580 481733005 1842359761 -1610741911 -976781976 -2103114133
REM
CELL 1.54180   50.00000   50.00000   50.00000   90.00000   90.00000   90.00000
LATT -1
SFAC C  
C      1  0.4876700000000  0.5240440000000  0.4913250000000 1.0
C      1  0.5665890000000  0.5001070000000  0.4908380000000 1.0
C      1  0.5403540000000  0.5107290000000  0.5412260000000 1.0
C      1  0.4586810000000  0.5082810000000  0.5525240000000 1.0
C      1  0.5388490000000  0.5027400000000  0.4922980000000 1.0
C      1  0.4148080000000  0.4874410000000  0.5503620000000 1.0
C      1  0.5261430000000  0.5104030000000  0.5166560000000 1.0
C      1  0.5042900000000  0.4791570000000  0.3754830000000 1.0
C      1  0.4558460000000  0.5148310000000  0.5787730000000 1.0
C      1  0.5027830000000  0.4826190000000  0.4014170000000 1.0
C      1  0.5012520000000  0.4861370000000  0.4277700000000 1.0
C      1  0.4754100000000  0.4867260000000  0.4691400000000 1.0
C      1  0.4381870000000  0.4944130000000  0.5383300000000 1.0
C      1  0.4996470000000  0.4898230000000  0.4553830000000 1.0
C      1  0.5222230000000  0.4967800000000  0.4705130000000 1.0
C      1  0.4984350000000  0.5170240000000  0.5154470000000 1.0
C      1  0.4816720000000  0.5147580000000  0.5377700000000 1.0
C      1  0.5667560000000  0.5039060000000  0.5414410000000 1.0
C      1  0.5926440000000  0.4976340000000  0.4894670000000 1.0
C      1  0.4567700000000  0.4861860000000  0.4882750000000 1.0
C      1  0.4436960000000  0.4884020000000  0.5114830000000 1.0
C      1  0.5272950000000  0.5178600000000  0.5640800000000 1.0
END
