TITL C-2778437-8639-924 -0.00238020268431773 125000 -682.722095985562 0 0 117 (C1) n - 1
REM
REM in /home/nfs/bkarasulu/CARBON/AIRSS/Generating-Clusters/REBO/Only-C1/SD-CG/HFTN-CG
REM
REM
REM
REM
REM
REM ./C.cell (11c1c37f851c82e70ff6c80c92926a4b)
REM
REM compiler GCC version 9.2.1 20190827 (Red Hat 9.2.1-1)
REM options -cpp -mtune=generic -march=x86-64 -g -O0 -fpre-include=/usr/include/finclude/math-vector-fortran.h
REM seed 53578005 292233151 1176596783 1278264002 -1895917733 -69487592 -410774837 -296230902 -822031910 -1609593069 -1470256629 -1424927304 900544366 -687733510 1278754833 -1751355952 -1358340910 -1035603257 -1948139070 990470448 1924169888 302206340 1664137984 701519816 -490818041 1371524794 1524211450 -217971439 -549706071 -819489415 1326369385 -1548617102 129458006
REM
CELL 1.54180   50.00000   50.00000   50.00000   90.00000   90.00000   90.00000
LATT -1
SFAC C  
C      1  0.4435500000000  0.5595190000000  0.4643980000000 1.0
C      1  0.4872430000000  0.5539840000000  0.4787870000000 1.0
C      1  0.4561980000000  0.4942720000000  0.5072160000000 1.0
C      1  0.5707830000000  0.4705990000000  0.4557140000000 1.0
C      1  0.4191430000000  0.4494920000000  0.4876630000000 1.0
C      1  0.5433560000000  0.5826520000000  0.5053560000000 1.0
C      1  0.5799560000000  0.4733690000000  0.5189420000000 1.0
C      1  0.4560500000000  0.5521110000000  0.4396760000000 1.0
C      1  0.5242330000000  0.4490570000000  0.5413650000000 1.0
C      1  0.5091230000000  0.5897570000000  0.5498140000000 1.0
C      1  0.4326830000000  0.4420850000000  0.5168780000000 1.0
C      1  0.5646190000000  0.4259920000000  0.5203340000000 1.0
C      1  0.4674120000000  0.4783030000000  0.5602720000000 1.0
C      1  0.5203540000000  0.5074780000000  0.5715710000000 1.0
C      1  0.4889580000000  0.4154650000000  0.4949880000000 1.0
C      1  0.5342170000000  0.4387980000000  0.4272160000000 1.0
C      1  0.5085000000000  0.4572270000000  0.5827080000000 1.0
C      1  0.4554680000000  0.5444710000000  0.4906510000000 1.0
C      1  0.5077300000000  0.4000740000000  0.4751360000000 1.0
C      1  0.5640520000000  0.5113180000000  0.4711980000000 1.0
C      1  0.4421730000000  0.5019310000000  0.5797600000000 1.0
C      1  0.4908770000000  0.4450570000000  0.5347990000000 1.0
C      1  0.4726070000000  0.4710700000000  0.4517240000000 1.0
C      1  0.4558370000000  0.5782100000000  0.5113490000000 1.0
C      1  0.4748300000000  0.4961770000000  0.5874520000000 1.0
C      1  0.4771620000000  0.4917690000000  0.5335490000000 1.0
C      1  0.5917620000000  0.4977600000000  0.5134320000000 1.0
C      1  0.5046920000000  0.4598780000000  0.4542760000000 1.0
C      1  0.5534920000000  0.4834330000000  0.5463820000000 1.0
C      1  0.4063620000000  0.5089010000000  0.4618730000000 1.0
C      1  0.4824750000000  0.5661420000000  0.4385400000000 1.0
C      1  0.5527820000000  0.5066330000000  0.5647340000000 1.0
C      1  0.4100920000000  0.4735690000000  0.5072160000000 1.0
C      1  0.5245160000000  0.5241520000000  0.4903620000000 1.0
C      1  0.5468990000000  0.5155500000000  0.4424170000000 1.0
C      1  0.4819520000000  0.4526230000000  0.5633820000000 1.0
C      1  0.4287510000000  0.4455030000000  0.4630270000000 1.0
C      1  0.4715780000000  0.4830890000000  0.4197650000000 1.0
C      1  0.5329940000000  0.4660510000000  0.4229450000000 1.0
C      1  0.4616180000000  0.4258040000000  0.4817930000000 1.0
C      1  0.4536330000000  0.4153910000000  0.5134070000000 1.0
C      1  0.4423610000000  0.5000100000000  0.4764430000000 1.0
C      1  0.4905130000000  0.5225810000000  0.5789800000000 1.0
C      1  0.4810820000000  0.5883900000000  0.4594180000000 1.0
C      1  0.4345790000000  0.4769270000000  0.5626450000000 1.0
C      1  0.5105780000000  0.5040270000000  0.4334970000000 1.0
C      1  0.5062410000000  0.4800590000000  0.5240110000000 1.0
C      1  0.5877730000000  0.4920320000000  0.4668050000000 1.0
C      1  0.5461060000000  0.4995890000000  0.4949890000000 1.0
C      1  0.4576760000000  0.5285180000000  0.5720860000000 1.0
C      1  0.5266830000000  0.6049640000000  0.4931660000000 1.0
C      1  0.5343920000000  0.4045830000000  0.4843700000000 1.0
C      1  0.5272080000000  0.5238510000000  0.5359140000000 1.0
C      1  0.4649580000000  0.5233870000000  0.5331180000000 1.0
C      1  0.5077810000000  0.6006200000000  0.4670660000000 1.0
C      1  0.5671370000000  0.4472810000000  0.4734670000000 1.0
C      1  0.4124940000000  0.5026130000000  0.4927800000000 1.0
C      1  0.6056940000000  0.4961650000000  0.4883760000000 1.0
C      1  0.5167340000000  0.4154730000000  0.5392800000000 1.0
C      1  0.4950840000000  0.5235330000000  0.4206570000000 1.0
C      1  0.4921540000000  0.4013700000000  0.4502880000000 1.0
C      1  0.5368230000000  0.5512530000000  0.4924440000000 1.0
C      1  0.5328860000000  0.5456160000000  0.4363670000000 1.0
C      1  0.4319260000000  0.5195720000000  0.5402780000000 1.0
C      1  0.5202910000000  0.4322220000000  0.4550030000000 1.0
C      1  0.5637100000000  0.5561180000000  0.5120280000000 1.0
C      1  0.5752260000000  0.4497550000000  0.5009210000000 1.0
C      1  0.5026570000000  0.4751720000000  0.4256500000000 1.0
C      1  0.5111340000000  0.4380370000000  0.4870750000000 1.0
C      1  0.5165760000000  0.5708440000000  0.4749060000000 1.0
C      1  0.5184330000000  0.4788580000000  0.4750050000000 1.0
C      1  0.4987440000000  0.5259240000000  0.5068350000000 1.0
C      1  0.5329910000000  0.4706770000000  0.5047430000000 1.0
C      1  0.5407700000000  0.5505540000000  0.5494440000000 1.0
C      1  0.4140780000000  0.5254510000000  0.5125910000000 1.0
C      1  0.4683120000000  0.4175360000000  0.4509600000000 1.0
C      1  0.4864280000000  0.5782240000000  0.5031340000000 1.0
C      1  0.5416350000000  0.5644010000000  0.4552520000000 1.0
C      1  0.5223780000000  0.5063600000000  0.4636870000000 1.0
C      1  0.5383150000000  0.4070730000000  0.5169060000000 1.0
C      1  0.4950290000000  0.4657550000000  0.4951510000000 1.0
C      1  0.5152730000000  0.4782850000000  0.5568640000000 1.0
C      1  0.4485030000000  0.5261770000000  0.4299210000000 1.0
C      1  0.5642570000000  0.5296020000000  0.5494980000000 1.0
C      1  0.5173930000000  0.5412020000000  0.5713920000000 1.0
C      1  0.5043560000000  0.4270460000000  0.5678390000000 1.0
C      1  0.4855610000000  0.4136040000000  0.5257170000000 1.0
C      1  0.4308920000000  0.5114350000000  0.4462790000000 1.0
C      1  0.5046670000000  0.5572430000000  0.5145900000000 1.0
C      1  0.5734440000000  0.5363090000000  0.4868530000000 1.0
C      1  0.4856280000000  0.5311660000000  0.4587390000000 1.0
C      1  0.4318150000000  0.4920550000000  0.5259440000000 1.0
C      1  0.5786960000000  0.5264000000000  0.5195080000000 1.0
C      1  0.4351510000000  0.5516120000000  0.5170180000000 1.0
C      1  0.4690440000000  0.5118670000000  0.4163290000000 1.0
C      1  0.5662510000000  0.5611240000000  0.4672840000000 1.0
C      1  0.4567100000000  0.5833960000000  0.4775660000000 1.0
C      1  0.4206390000000  0.4631630000000  0.5380970000000 1.0
C      1  0.5517840000000  0.4823500000000  0.4365270000000 1.0
C      1  0.5000240000000  0.6056660000000  0.5057490000000 1.0
C      1  0.5368680000000  0.4392150000000  0.5047890000000 1.0
C      1  0.4414520000000  0.5496730000000  0.5509770000000 1.0
C      1  0.4526590000000  0.4437640000000  0.4473380000000 1.0
C      1  0.4727960000000  0.5185920000000  0.4942220000000 1.0
C      1  0.4661720000000  0.4469370000000  0.5152170000000 1.0
C      1  0.5566170000000  0.4543080000000  0.5359560000000 1.0
C      1  0.4965600000000  0.5285530000000  0.5400290000000 1.0
C      1  0.5045590000000  0.5492050000000  0.4284960000000 1.0
C      1  0.4736400000000  0.5029100000000  0.4639860000000 1.0
C      1  0.4934520000000  0.4763950000000  0.6034190000000 1.0
C      1  0.5489640000000  0.4257330000000  0.4691860000000 1.0
C      1  0.5062210000000  0.6142130000000  0.5573970000000 1.0
C      1  0.4960860000000  0.5603190000000  0.5532350000000 1.0
C      1  0.4666990000000  0.4593040000000  0.4835470000000 1.0
C      1  0.5278290000000  0.5708760000000  0.5314620000000 1.0
C      1  0.4698590000000  0.5575900000000  0.5350150000000 1.0
C      1  0.5431930000000  0.5026170000000  0.5262160000000 1.0
END
