TITL C-2778429-3646-1114 -0.00125363567612221 125000 -792.422655989365 0 0 137 (C1) n - 1
REM
REM in /home/nfs/bkarasulu/CARBON/AIRSS/Generating-Clusters/REBO/Only-C1/SD-CG/HFTN-CG
REM
REM
REM
REM
REM
REM ./C.cell (11c1c37f851c82e70ff6c80c92926a4b)
REM
REM compiler GCC version 9.2.1 20190827 (Red Hat 9.2.1-1)
REM options -cpp -mtune=generic -march=x86-64 -g -O0 -fpre-include=/usr/include/finclude/math-vector-fortran.h
REM seed 1863774296 1682412902 -98031798 -2017335879 21462997 1835357088 -665252217 1171904569 -628127290 1654214049 207298378 -1507899775 -860511037 -1955176342 -1205688653 -303788820 -495620241 -635919231 -2063510140 1391312568 -1621547720 -1651798588 -1012110658 87543369 251659834 -1310468270 -804278066 -125449935 -1045325311 1811768702 940376140 -822958612 -1303078612
REM
CELL 1.54180   50.00000   50.00000   50.00000   90.00000   90.00000   90.00000
LATT -1
SFAC C  
C      1  0.4777390000000  0.5532490000000  0.4106000000000 1.0
C      1  0.5795500000000  0.5358890000000  0.5461180000000 1.0
C      1  0.5709370000000  0.4412520000000  0.4957820000000 1.0
C      1  0.4813010000000  0.5846040000000  0.4918170000000 1.0
C      1  0.5081150000000  0.4112600000000  0.5628140000000 1.0
C      1  0.4433020000000  0.5827920000000  0.5466060000000 1.0
C      1  0.5866520000000  0.4663620000000  0.5129400000000 1.0
C      1  0.5471930000000  0.4172420000000  0.5019640000000 1.0
C      1  0.4792890000000  0.4758630000000  0.4433860000000 1.0
C      1  0.5635110000000  0.5755030000000  0.4767290000000 1.0
C      1  0.5785890000000  0.4790950000000  0.4500700000000 1.0
C      1  0.4575840000000  0.5611070000000  0.5686860000000 1.0
C      1  0.5425060000000  0.5070450000000  0.5434430000000 1.0
C      1  0.4292270000000  0.5608530000000  0.5297970000000 1.0
C      1  0.5430690000000  0.4867530000000  0.5090760000000 1.0
C      1  0.4778460000000  0.4774300000000  0.5534400000000 1.0
C      1  0.4098940000000  0.5469490000000  0.4923050000000 1.0
C      1  0.4905020000000  0.5352520000000  0.4911320000000 1.0
C      1  0.4647990000000  0.5260200000000  0.4037680000000 1.0
C      1  0.4706850000000  0.5158630000000  0.5911700000000 1.0
C      1  0.4387470000000  0.4980640000000  0.5764660000000 1.0
C      1  0.4867180000000  0.5440800000000  0.5374880000000 1.0
C      1  0.4448760000000  0.4553080000000  0.5062380000000 1.0
C      1  0.5509640000000  0.5565540000000  0.4564450000000 1.0
C      1  0.5324720000000  0.5456690000000  0.5302500000000 1.0
C      1  0.4967280000000  0.4688980000000  0.5940960000000 1.0
C      1  0.5255370000000  0.5763570000000  0.5724200000000 1.0
C      1  0.5039500000000  0.5716660000000  0.4817270000000 1.0
C      1  0.4530310000000  0.4274470000000  0.5222440000000 1.0
C      1  0.5660950000000  0.4919420000000  0.4206480000000 1.0
C      1  0.5494900000000  0.5389850000000  0.4049820000000 1.0
C      1  0.5735870000000  0.4785730000000  0.5639540000000 1.0
C      1  0.4438940000000  0.5303690000000  0.5653240000000 1.0
C      1  0.5147590000000  0.5170800000000  0.5283940000000 1.0
C      1  0.5482470000000  0.4932160000000  0.5675010000000 1.0
C      1  0.5866510000000  0.4832220000000  0.5377600000000 1.0
C      1  0.4401480000000  0.4699300000000  0.4407400000000 1.0
C      1  0.4478110000000  0.5064290000000  0.5183800000000 1.0
C      1  0.4609260000000  0.4723950000000  0.4660040000000 1.0
C      1  0.5354570000000  0.4489960000000  0.5398090000000 1.0
C      1  0.5467540000000  0.4031400000000  0.5274720000000 1.0
C      1  0.5726200000000  0.5435650000000  0.5735560000000 1.0
C      1  0.4658810000000  0.5048330000000  0.5586640000000 1.0
C      1  0.5262990000000  0.5642470000000  0.4391050000000 1.0
C      1  0.4866250000000  0.3962560000000  0.5423860000000 1.0
C      1  0.5676350000000  0.4532250000000  0.4310770000000 1.0
C      1  0.5022160000000  0.5579040000000  0.3991030000000 1.0
C      1  0.5080070000000  0.4797740000000  0.5573270000000 1.0
C      1  0.4330840000000  0.5650520000000  0.4786080000000 1.0
C      1  0.5256090000000  0.5386300000000  0.5601900000000 1.0
C      1  0.5263760000000  0.4099270000000  0.4441020000000 1.0
C      1  0.5272790000000  0.5557530000000  0.4120760000000 1.0
C      1  0.4221870000000  0.4811320000000  0.4645400000000 1.0
C      1  0.5210270000000  0.4546290000000  0.5763700000000 1.0
C      1  0.5203230000000  0.4393030000000  0.5043400000000 1.0
C      1  0.5427040000000  0.5045860000000  0.4459170000000 1.0
C      1  0.5402730000000  0.4708260000000  0.4424050000000 1.0
C      1  0.4249370000000  0.5195060000000  0.4964420000000 1.0
C      1  0.4226850000000  0.5098530000000  0.4659460000000 1.0
C      1  0.5255150000000  0.4122690000000  0.4759220000000 1.0
C      1  0.4622950000000  0.5913240000000  0.5192780000000 1.0
C      1  0.5681210000000  0.4498520000000  0.4647620000000 1.0
C      1  0.4802350000000  0.4097340000000  0.5156870000000 1.0
C      1  0.5674510000000  0.5232290000000  0.4207690000000 1.0
C      1  0.5385990000000  0.4507830000000  0.4153740000000 1.0
C      1  0.5869070000000  0.5116870000000  0.5001450000000 1.0
C      1  0.5689840000000  0.5660190000000  0.5032780000000 1.0
C      1  0.5474620000000  0.4394240000000  0.5694720000000 1.0
C      1  0.4953030000000  0.4133860000000  0.4858110000000 1.0
C      1  0.5462100000000  0.5545250000000  0.5777520000000 1.0
C      1  0.5733770000000  0.4528990000000  0.5758020000000 1.0
C      1  0.5483290000000  0.5417530000000  0.4938300000000 1.0
C      1  0.4619910000000  0.5102110000000  0.4327320000000 1.0
C      1  0.4922220000000  0.4396800000000  0.5155700000000 1.0
C      1  0.5709800000000  0.5330980000000  0.4465690000000 1.0
C      1  0.4567140000000  0.4360540000000  0.4264440000000 1.0
C      1  0.5046170000000  0.5268580000000  0.4556670000000 1.0
C      1  0.4228690000000  0.4396900000000  0.5453950000000 1.0
C      1  0.4808960000000  0.5133760000000  0.5234170000000 1.0
C      1  0.4714000000000  0.5493490000000  0.5099720000000 1.0
C      1  0.4472790000000  0.5506920000000  0.4561390000000 1.0
C      1  0.4454260000000  0.5572780000000  0.5069010000000 1.0
C      1  0.5627380000000  0.5527500000000  0.5292000000000 1.0
C      1  0.4746290000000  0.4150560000000  0.5679640000000 1.0
C      1  0.5482380000000  0.4558490000000  0.5116920000000 1.0
C      1  0.4900280000000  0.4626860000000  0.4908380000000 1.0
C      1  0.4832210000000  0.4374920000000  0.4737260000000 1.0
C      1  0.5555640000000  0.5162820000000  0.5133720000000 1.0
C      1  0.4236300000000  0.5324490000000  0.4445030000000 1.0
C      1  0.4697920000000  0.4370190000000  0.4496220000000 1.0
C      1  0.5030090000000  0.5686970000000  0.4535140000000 1.0
C      1  0.4638650000000  0.5865180000000  0.4654250000000 1.0
C      1  0.4510080000000  0.4304020000000  0.5555180000000 1.0
C      1  0.4656820000000  0.4821850000000  0.5912430000000 1.0
C      1  0.4115930000000  0.5138870000000  0.5335570000000 1.0
C      1  0.5880180000000  0.4822270000000  0.4827960000000 1.0
C      1  0.5057660000000  0.5714490000000  0.5464440000000 1.0
C      1  0.3991810000000  0.5462040000000  0.4415680000000 1.0
C      1  0.4201090000000  0.4709610000000  0.4926280000000 1.0
C      1  0.4573280000000  0.4852140000000  0.4952230000000 1.0
C      1  0.4113400000000  0.4927670000000  0.5094390000000 1.0
C      1  0.4707760000000  0.5273380000000  0.4574490000000 1.0
C      1  0.4744000000000  0.5447050000000  0.5912420000000 1.0
C      1  0.5661200000000  0.5229190000000  0.4755030000000 1.0
C      1  0.4633310000000  0.4741110000000  0.4160650000000 1.0
C      1  0.4959110000000  0.4356220000000  0.5842620000000 1.0
C      1  0.5322410000000  0.5281090000000  0.4549460000000 1.0
C      1  0.4925620000000  0.4842890000000  0.5169230000000 1.0
C      1  0.5369300000000  0.4445040000000  0.4750830000000 1.0
C      1  0.4791580000000  0.5048890000000  0.4802590000000 1.0
C      1  0.4765130000000  0.5809870000000  0.5485230000000 1.0
C      1  0.4438440000000  0.4351040000000  0.4036350000000 1.0
C      1  0.4945340000000  0.5029230000000  0.4365500000000 1.0
C      1  0.4795560000000  0.4955380000000  0.4002850000000 1.0
C      1  0.5574480000000  0.4929090000000  0.4810590000000 1.0
C      1  0.4732310000000  0.5656830000000  0.4400790000000 1.0
C      1  0.5122090000000  0.5102280000000  0.5693560000000 1.0
C      1  0.5106730000000  0.4956330000000  0.4076330000000 1.0
C      1  0.4942240000000  0.5378410000000  0.5674720000000 1.0
C      1  0.4649360000000  0.4540350000000  0.5721250000000 1.0
C      1  0.4705950000000  0.4625090000000  0.5256230000000 1.0
C      1  0.5273540000000  0.4231030000000  0.4230560000000 1.0
C      1  0.5193990000000  0.5511830000000  0.4992280000000 1.0
C      1  0.5902570000000  0.5121690000000  0.5324090000000 1.0
C      1  0.5079680000000  0.4866020000000  0.4801390000000 1.0
C      1  0.5203500000000  0.5836320000000  0.5221900000000 1.0
C      1  0.4433980000000  0.5938650000000  0.4910870000000 1.0
C      1  0.4344940000000  0.5209360000000  0.4176500000000 1.0
C      1  0.5132500000000  0.5122000000000  0.4975710000000 1.0
C      1  0.5241440000000  0.4895660000000  0.5915380000000 1.0
C      1  0.4222580000000  0.5376460000000  0.5438950000000 1.0
C      1  0.5369360000000  0.4832450000000  0.4051930000000 1.0
C      1  0.5342770000000  0.4171760000000  0.5496440000000 1.0
C      1  0.5335930000000  0.4757320000000  0.4718140000000 1.0
C      1  0.4313230000000  0.4910260000000  0.5440170000000 1.0
C      1  0.4189720000000  0.4635860000000  0.5402750000000 1.0
C      1  0.5200150000000  0.4774870000000  0.5291190000000 1.0
END
