TITL C-2778425-5191-1032 0.00229471906453889 125000 -786.72511129409 0 0 136 (C1) n - 1
REM
REM in /home/nfs/bkarasulu/CARBON/AIRSS/Generating-Clusters/REBO/Only-C1/SD-CG/HFTN-CG
REM
REM
REM
REM
REM
REM ./C.cell (11c1c37f851c82e70ff6c80c92926a4b)
REM
REM compiler GCC version 9.2.1 20190827 (Red Hat 9.2.1-1)
REM options -cpp -mtune=generic -march=x86-64 -g -O0 -fpre-include=/usr/include/finclude/math-vector-fortran.h
REM seed -969842832 1727173121 -1816905351 1254096720 343613205 1719247050 -1091138168 907408790 264183710 -312383435 1938223510 2143364391 1236875600 -1749650842 2113477971 331443148 1121958757 -1035669436 2103606657 1049817401 480438518 2715848 -1347622246 32320096 1527669500 -533278438 1029438879 960618942 -1971650887 -379620340 1965880808 -1846494301 -925591479
REM
CELL 1.54180   50.00000   50.00000   50.00000   90.00000   90.00000   90.00000
LATT -1
SFAC C  
C      1  0.4201270000000  0.5314350000000  0.4709940000000 1.0
C      1  0.4268450000000  0.5111890000000  0.5046120000000 1.0
C      1  0.5240670000000  0.4512110000000  0.4462130000000 1.0
C      1  0.5597710000000  0.5169490000000  0.5140600000000 1.0
C      1  0.5073820000000  0.5498800000000  0.5890410000000 1.0
C      1  0.4140940000000  0.5497090000000  0.5295720000000 1.0
C      1  0.5749030000000  0.5431240000000  0.5608780000000 1.0
C      1  0.5567220000000  0.5174110000000  0.4364570000000 1.0
C      1  0.5059190000000  0.6038080000000  0.4786530000000 1.0
C      1  0.5160560000000  0.4427110000000  0.5115520000000 1.0
C      1  0.5227600000000  0.5369780000000  0.3973350000000 1.0
C      1  0.4862470000000  0.4769030000000  0.5919340000000 1.0
C      1  0.5083060000000  0.3911070000000  0.5008320000000 1.0
C      1  0.4932040000000  0.4422910000000  0.4358080000000 1.0
C      1  0.4829950000000  0.5558630000000  0.5305030000000 1.0
C      1  0.4104840000000  0.4995830000000  0.4803550000000 1.0
C      1  0.4435320000000  0.4539720000000  0.5628630000000 1.0
C      1  0.5318640000000  0.4443170000000  0.5749470000000 1.0
C      1  0.4622280000000  0.5315440000000  0.5328200000000 1.0
C      1  0.4380470000000  0.5598560000000  0.5473130000000 1.0
C      1  0.4603510000000  0.5291180000000  0.5832350000000 1.0
C      1  0.4785370000000  0.4884650000000  0.5544450000000 1.0
C      1  0.5062650000000  0.5048800000000  0.4305410000000 1.0
C      1  0.5146300000000  0.4609720000000  0.4165030000000 1.0
C      1  0.5030430000000  0.4719470000000  0.5561070000000 1.0
C      1  0.4447010000000  0.5736950000000  0.5203920000000 1.0
C      1  0.5838030000000  0.5260460000000  0.4834920000000 1.0
C      1  0.5112920000000  0.5800460000000  0.5620960000000 1.0
C      1  0.5751240000000  0.4295710000000  0.5083560000000 1.0
C      1  0.6150110000000  0.5087490000000  0.5259020000000 1.0
C      1  0.4438420000000  0.4173460000000  0.4583730000000 1.0
C      1  0.5322020000000  0.5773400000000  0.4464780000000 1.0
C      1  0.5739870000000  0.4305520000000  0.4770290000000 1.0
C      1  0.4554370000000  0.5205630000000  0.5041680000000 1.0
C      1  0.4242120000000  0.4527460000000  0.5395050000000 1.0
C      1  0.4430650000000  0.5498730000000  0.4283180000000 1.0
C      1  0.4759580000000  0.5497070000000  0.4301350000000 1.0
C      1  0.5678360000000  0.5488700000000  0.4891040000000 1.0
C      1  0.4526180000000  0.5783920000000  0.4653520000000 1.0
C      1  0.4707510000000  0.4528720000000  0.5841300000000 1.0
C      1  0.4125770000000  0.4413910000000  0.4930310000000 1.0
C      1  0.4370050000000  0.4525730000000  0.4412880000000 1.0
C      1  0.5292050000000  0.5883730000000  0.4735740000000 1.0
C      1  0.5315710000000  0.5013320000000  0.5833510000000 1.0
C      1  0.5588970000000  0.5628830000000  0.5141640000000 1.0
C      1  0.4853130000000  0.5762910000000  0.4584090000000 1.0
C      1  0.5840350000000  0.4771730000000  0.4963040000000 1.0
C      1  0.5352910000000  0.5482960000000  0.5605250000000 1.0
C      1  0.4401320000000  0.4972490000000  0.4096900000000 1.0
C      1  0.4904680000000  0.4861650000000  0.4619760000000 1.0
C      1  0.4560890000000  0.5435360000000  0.4842890000000 1.0
C      1  0.4704120000000  0.4554630000000  0.5334440000000 1.0
C      1  0.4646360000000  0.4472360000000  0.4294020000000 1.0
C      1  0.4292490000000  0.4340120000000  0.5178430000000 1.0
C      1  0.5550410000000  0.4878170000000  0.4243980000000 1.0
C      1  0.5465950000000  0.4173070000000  0.5199880000000 1.0
C      1  0.5005210000000  0.5624030000000  0.4826910000000 1.0
C      1  0.4539100000000  0.4191720000000  0.5086270000000 1.0
C      1  0.5482690000000  0.4628270000000  0.5538670000000 1.0
C      1  0.4728250000000  0.5795010000000  0.5157170000000 1.0
C      1  0.5481800000000  0.5456250000000  0.4042390000000 1.0
C      1  0.5085260000000  0.4818690000000  0.5089800000000 1.0
C      1  0.5263880000000  0.4761540000000  0.5346680000000 1.0
C      1  0.5412740000000  0.5298470000000  0.5822260000000 1.0
C      1  0.5906450000000  0.5070860000000  0.5061510000000 1.0
C      1  0.4606540000000  0.4836940000000  0.4495100000000 1.0
C      1  0.5527930000000  0.4729220000000  0.4887430000000 1.0
C      1  0.4820180000000  0.4079290000000  0.5138230000000 1.0
C      1  0.4751440000000  0.5921200000000  0.4873500000000 1.0
C      1  0.5177220000000  0.4726640000000  0.5855860000000 1.0
C      1  0.5122550000000  0.5360190000000  0.4398610000000 1.0
C      1  0.5836950000000  0.5177380000000  0.5619190000000 1.0
C      1  0.5203560000000  0.4832040000000  0.4492040000000 1.0
C      1  0.4605580000000  0.4633530000000  0.4755490000000 1.0
C      1  0.5696410000000  0.4448320000000  0.5373070000000 1.0
C      1  0.5832330000000  0.4598190000000  0.4670090000000 1.0
C      1  0.5160920000000  0.5125570000000  0.5221560000000 1.0
C      1  0.4965300000000  0.4311980000000  0.4668050000000 1.0
C      1  0.5509700000000  0.4977910000000  0.5387820000000 1.0
C      1  0.4689010000000  0.4319090000000  0.5572130000000 1.0
C      1  0.5309890000000  0.5669290000000  0.4973700000000 1.0
C      1  0.4016160000000  0.4719370000000  0.4986050000000 1.0
C      1  0.4830600000000  0.5162500000000  0.5508750000000 1.0
C      1  0.4229580000000  0.4719870000000  0.4650580000000 1.0
C      1  0.5514480000000  0.5512270000000  0.4354750000000 1.0
C      1  0.4597220000000  0.4752800000000  0.4177280000000 1.0
C      1  0.4085950000000  0.5460670000000  0.4995410000000 1.0
C      1  0.4819390000000  0.5727810000000  0.5685020000000 1.0
C      1  0.4102040000000  0.4760370000000  0.5299080000000 1.0
C      1  0.5177230000000  0.5092390000000  0.4008370000000 1.0
C      1  0.5459160000000  0.4469120000000  0.5015050000000 1.0
C      1  0.5372440000000  0.4953450000000  0.5013930000000 1.0
C      1  0.4366930000000  0.5072760000000  0.4536670000000 1.0
C      1  0.5327990000000  0.4026350000000  0.4958120000000 1.0
C      1  0.5586160000000  0.5654070000000  0.5443210000000 1.0
C      1  0.4776830000000  0.5168370000000  0.4352290000000 1.0
C      1  0.4618140000000  0.4718880000000  0.5146030000000 1.0
C      1  0.4534520000000  0.4836210000000  0.5661170000000 1.0
C      1  0.5764280000000  0.4768100000000  0.5296110000000 1.0
C      1  0.5225750000000  0.5115370000000  0.5523060000000 1.0
C      1  0.4983970000000  0.4289470000000  0.4934740000000 1.0
C      1  0.4753200000000  0.5377340000000  0.4620790000000 1.0
C      1  0.5491420000000  0.5482450000000  0.4671740000000 1.0
C      1  0.4589370000000  0.5551550000000  0.5682280000000 1.0
C      1  0.5134370000000  0.4209990000000  0.5583790000000 1.0
C      1  0.5072850000000  0.5529400000000  0.5448180000000 1.0
C      1  0.4341480000000  0.5201270000000  0.5474300000000 1.0
C      1  0.4352310000000  0.5604850000000  0.4963100000000 1.0
C      1  0.5021520000000  0.4450470000000  0.5393100000000 1.0
C      1  0.5458720000000  0.4237670000000  0.5509720000000 1.0
C      1  0.4935960000000  0.5145530000000  0.4757540000000 1.0
C      1  0.4740770000000  0.4974510000000  0.4965640000000 1.0
C      1  0.6402380000000  0.5185870000000  0.5257290000000 1.0
C      1  0.5673250000000  0.4673220000000  0.4408030000000 1.0
C      1  0.4410560000000  0.5085740000000  0.5725130000000 1.0
C      1  0.5465210000000  0.4931420000000  0.4629200000000 1.0
C      1  0.4338860000000  0.5578330000000  0.4544630000000 1.0
C      1  0.5021270000000  0.5547520000000  0.4129630000000 1.0
C      1  0.5311310000000  0.4830620000000  0.4081340000000 1.0
C      1  0.4504500000000  0.5219870000000  0.4174900000000 1.0
C      1  0.4809780000000  0.5054170000000  0.5905200000000 1.0
C      1  0.5323480000000  0.5345520000000  0.5048170000000 1.0
C      1  0.4912170000000  0.4679350000000  0.4883950000000 1.0
C      1  0.5733240000000  0.5120170000000  0.4620090000000 1.0
C      1  0.5944180000000  0.4981980000000  0.5448520000000 1.0
C      1  0.5508370000000  0.4405510000000  0.4539110000000 1.0
C      1  0.5462040000000  0.4120120000000  0.4718900000000 1.0
C      1  0.5020990000000  0.5269410000000  0.5747530000000 1.0
C      1  0.4357220000000  0.4732510000000  0.4965870000000 1.0
C      1  0.4436180000000  0.4348780000000  0.4805780000000 1.0
C      1  0.5053420000000  0.5761990000000  0.4359040000000 1.0
C      1  0.4189740000000  0.5035790000000  0.5304160000000 1.0
C      1  0.4239150000000  0.4827680000000  0.4335200000000 1.0
C      1  0.5387450000000  0.5880010000000  0.5592580000000 1.0
C      1  0.4859590000000  0.4092440000000  0.5452110000000 1.0
C      1  0.5186600000000  0.5368330000000  0.4733460000000 1.0
END
