TITL C-2778429-3646-1495 -0.00661651083483806 125000 -708.115786228578 0 0 121 (C1) n - 1
REM
REM in /home/nfs/bkarasulu/CARBON/AIRSS/Generating-Clusters/REBO/Only-C1/SD-CG/HFTN-CG
REM
REM
REM
REM
REM
REM ./C.cell (11c1c37f851c82e70ff6c80c92926a4b)
REM
REM compiler GCC version 9.2.1 20190827 (Red Hat 9.2.1-1)
REM options -cpp -mtune=generic -march=x86-64 -g -O0 -fpre-include=/usr/include/finclude/math-vector-fortran.h
REM seed 1279870883 -2024887210 1971100387 -350380043 -1600873828 1132580809 1979788148 1531765314 -1519316783 -409874039 957508064 217877301 -609347011 1891754627 1300174874 -1085387770 -281463150 597312955 -1399451503 -1307992087 2061630097 1909902936 -148113042 -1219458247 -1267072576 1961568278 1283252688 1843496874 -1775781253 -1898263280 -1849159293 -944211439 -1203428334
REM
CELL 1.54180   50.00000   50.00000   50.00000   90.00000   90.00000   90.00000
LATT -1
SFAC C  
C      1  0.4324820000000  0.5778750000000  0.4724370000000 1.0
C      1  0.4615260000000  0.5726400000000  0.4993680000000 1.0
C      1  0.4499030000000  0.5089830000000  0.4352250000000 1.0
C      1  0.4411010000000  0.5388910000000  0.4388030000000 1.0
C      1  0.5516960000000  0.5225610000000  0.4166150000000 1.0
C      1  0.5012540000000  0.5092460000000  0.5395540000000 1.0
C      1  0.4746110000000  0.4816420000000  0.5579010000000 1.0
C      1  0.5049190000000  0.4739350000000  0.5871560000000 1.0
C      1  0.4744170000000  0.5402530000000  0.4368840000000 1.0
C      1  0.5331010000000  0.5479580000000  0.5777200000000 1.0
C      1  0.5590750000000  0.5356280000000  0.5118530000000 1.0
C      1  0.4525960000000  0.5933780000000  0.4630940000000 1.0
C      1  0.5060880000000  0.4175910000000  0.5620090000000 1.0
C      1  0.5338900000000  0.4740030000000  0.4578130000000 1.0
C      1  0.5254830000000  0.4446010000000  0.4321800000000 1.0
C      1  0.5694740000000  0.5561750000000  0.4886980000000 1.0
C      1  0.4798540000000  0.4638360000000  0.4668230000000 1.0
C      1  0.4202500000000  0.4878820000000  0.4627350000000 1.0
C      1  0.5092250000000  0.5877840000000  0.4521480000000 1.0
C      1  0.5745010000000  0.5354510000000  0.4644030000000 1.0
C      1  0.4344440000000  0.5137590000000  0.5609710000000 1.0
C      1  0.5891450000000  0.4889530000000  0.4972600000000 1.0
C      1  0.4762960000000  0.4353460000000  0.4818970000000 1.0
C      1  0.4844720000000  0.5828650000000  0.5125780000000 1.0
C      1  0.5645810000000  0.4933330000000  0.4285400000000 1.0
C      1  0.4951510000000  0.5110280000000  0.4722490000000 1.0
C      1  0.5347370000000  0.5078120000000  0.4622780000000 1.0
C      1  0.4372050000000  0.4380470000000  0.4746310000000 1.0
C      1  0.5299350000000  0.5490760000000  0.5232030000000 1.0
C      1  0.4597320000000  0.4841880000000  0.4277500000000 1.0
C      1  0.4521950000000  0.4227710000000  0.4994880000000 1.0
C      1  0.5679680000000  0.4653840000000  0.4980960000000 1.0
C      1  0.5533150000000  0.4449710000000  0.4386330000000 1.0
C      1  0.4219730000000  0.4575410000000  0.4512380000000 1.0
C      1  0.4532330000000  0.4581620000000  0.5714950000000 1.0
C      1  0.5321810000000  0.4893380000000  0.4270890000000 1.0
C      1  0.4958410000000  0.4009160000000  0.4833260000000 1.0
C      1  0.5460830000000  0.4804180000000  0.5647250000000 1.0
C      1  0.5268870000000  0.5804410000000  0.4789900000000 1.0
C      1  0.4512340000000  0.4564490000000  0.5374890000000 1.0
C      1  0.5168970000000  0.4939500000000  0.5633290000000 1.0
C      1  0.5430890000000  0.4506740000000  0.5512340000000 1.0
C      1  0.4088470000000  0.5136190000000  0.5192890000000 1.0
C      1  0.5514570000000  0.4202220000000  0.5133440000000 1.0
C      1  0.5269770000000  0.5645860000000  0.5526830000000 1.0
C      1  0.4900840000000  0.5476350000000  0.4875150000000 1.0
C      1  0.5972910000000  0.5029900000000  0.5223520000000 1.0
C      1  0.4555780000000  0.4644340000000  0.4491130000000 1.0
C      1  0.4662420000000  0.5195170000000  0.4631030000000 1.0
C      1  0.4838790000000  0.4801670000000  0.4948640000000 1.0
C      1  0.5530440000000  0.5786270000000  0.5366990000000 1.0
C      1  0.5098550000000  0.5378590000000  0.5909870000000 1.0
C      1  0.5014170000000  0.5047010000000  0.5057880000000 1.0
C      1  0.4786710000000  0.5811060000000  0.5405540000000 1.0
C      1  0.5154260000000  0.4276440000000  0.4799910000000 1.0
C      1  0.5060910000000  0.4992340000000  0.4453720000000 1.0
C      1  0.4956590000000  0.5618490000000  0.5525380000000 1.0
C      1  0.5115660000000  0.5671110000000  0.5041570000000 1.0
C      1  0.4268850000000  0.5567900000000  0.4972480000000 1.0
C      1  0.5746340000000  0.4693030000000  0.4393770000000 1.0
C      1  0.4351830000000  0.4816460000000  0.5547510000000 1.0
C      1  0.4787950000000  0.4048950000000  0.5074200000000 1.0
C      1  0.5459660000000  0.4979830000000  0.5150980000000 1.0
C      1  0.4206480000000  0.5143720000000  0.4626090000000 1.0
C      1  0.4793900000000  0.5869170000000  0.4565330000000 1.0
C      1  0.5313210000000  0.5618290000000  0.4499640000000 1.0
C      1  0.5718320000000  0.4895260000000  0.5347120000000 1.0
C      1  0.5524910000000  0.5119780000000  0.4880000000000 1.0
C      1  0.5001790000000  0.5043480000000  0.4061920000000 1.0
C      1  0.4553700000000  0.4884480000000  0.5026120000000 1.0
C      1  0.5739430000000  0.4610360000000  0.5436430000000 1.0
C      1  0.4448320000000  0.4339050000000  0.4413790000000 1.0
C      1  0.4933690000000  0.5332660000000  0.4152600000000 1.0
C      1  0.4366070000000  0.4474560000000  0.5133900000000 1.0
C      1  0.4860870000000  0.4533100000000  0.5745840000000 1.0
C      1  0.5416870000000  0.4659290000000  0.5205510000000 1.0
C      1  0.4219370000000  0.5485770000000  0.4619620000000 1.0
C      1  0.5663570000000  0.5747100000000  0.5160310000000 1.0
C      1  0.5705160000000  0.4627820000000  0.5774650000000 1.0
C      1  0.5487390000000  0.5332490000000  0.4457390000000 1.0
C      1  0.4807570000000  0.5039390000000  0.5771910000000 1.0
C      1  0.4994960000000  0.4512330000000  0.4990580000000 1.0
C      1  0.4845100000000  0.5576260000000  0.4599990000000 1.0
C      1  0.5715830000000  0.4398600000000  0.5190200000000 1.0
C      1  0.4067490000000  0.4606480000000  0.5152740000000 1.0
C      1  0.4828810000000  0.4455090000000  0.5431320000000 1.0
C      1  0.4201100000000  0.5253920000000  0.4940030000000 1.0
C      1  0.5263430000000  0.4313260000000  0.5666900000000 1.0
C      1  0.5610980000000  0.4594020000000  0.4691360000000 1.0
C      1  0.4566860000000  0.4962280000000  0.5327370000000 1.0
C      1  0.5521170000000  0.5095080000000  0.5527670000000 1.0
C      1  0.4891920000000  0.4805010000000  0.4224660000000 1.0
C      1  0.5445140000000  0.4189690000000  0.4855430000000 1.0
C      1  0.5231070000000  0.5359550000000  0.4036230000000 1.0
C      1  0.5313870000000  0.5034100000000  0.3968820000000 1.0
C      1  0.4833050000000  0.5467790000000  0.5883650000000 1.0
C      1  0.4639510000000  0.5396270000000  0.5029690000000 1.0
C      1  0.5089500000000  0.5074340000000  0.5928270000000 1.0
C      1  0.5822140000000  0.5279120000000  0.5304620000000 1.0
C      1  0.5563100000000  0.5325620000000  0.5736370000000 1.0
C      1  0.4851210000000  0.4163160000000  0.4570090000000 1.0
C      1  0.4501010000000  0.5771430000000  0.5441870000000 1.0
C      1  0.4844230000000  0.5335790000000  0.5507090000000 1.0
C      1  0.4366490000000  0.5530070000000  0.5288310000000 1.0
C      1  0.5120650000000  0.4500040000000  0.5262720000000 1.0
C      1  0.4766500000000  0.4306630000000  0.4333030000000 1.0
C      1  0.4595590000000  0.5277430000000  0.5324090000000 1.0
C      1  0.4337930000000  0.4695750000000  0.4873740000000 1.0
C      1  0.4006040000000  0.4868670000000  0.5187620000000 1.0
C      1  0.5809390000000  0.5368370000000  0.5573140000000 1.0
C      1  0.5827160000000  0.5080500000000  0.4759160000000 1.0
C      1  0.4934680000000  0.4151740000000  0.5316970000000 1.0
C      1  0.5169840000000  0.5301240000000  0.4901000000000 1.0
C      1  0.5093470000000  0.4526660000000  0.4605170000000 1.0
C      1  0.5294270000000  0.5183650000000  0.5319770000000 1.0
C      1  0.4960840000000  0.4499130000000  0.4230890000000 1.0
C      1  0.4205420000000  0.5280810000000  0.5407730000000 1.0
C      1  0.5381750000000  0.5489030000000  0.4806710000000 1.0
C      1  0.4503910000000  0.5159910000000  0.4890080000000 1.0
C      1  0.4596950000000  0.5272340000000  0.5733110000000 1.0
C      1  0.5271150000000  0.4206550000000  0.5282070000000 1.0
END
