TITL C-2778423-5760-309 0.00365691832396373 125000 -1159.91100969459 0 0 200 (C1) n - 1
REM
REM in /home/nfs/bkarasulu/CARBON/AIRSS/Generating-Clusters/REBO/Only-C1/SD-CG/HFTN-CG
REM
REM
REM
REM
REM
REM ./C.cell (11c1c37f851c82e70ff6c80c92926a4b)
REM
REM compiler GCC version 9.2.1 20190827 (Red Hat 9.2.1-1)
REM options -cpp -mtune=generic -march=x86-64 -g -O0 -fpre-include=/usr/include/finclude/math-vector-fortran.h
REM seed 506268823 1871061345 993337181 -1310681186 -1700356020 567594721 2131723403 -1165847449 636008007 -1840203936 -973395252 1981978533 519670076 -2057013491 -2114463043 -1619220833 1302593678 -570131214 242211942 -439289222 -1657660489 1518646481 -920307178 -1809654350 -1039820221 -57398306 -2115052994 -202297909 1282303473 -1910752435 -432660343 256167124 -653239261
REM
CELL 1.54180   50.00000   50.00000   50.00000   90.00000   90.00000   90.00000
LATT -1
SFAC C  
C      1  0.4334350000000  0.4880910000000  0.5622940000000 1.0
C      1  0.5329810000000  0.5128960000000  0.5048440000000 1.0
C      1  0.5235330000000  0.5184000000000  0.6067600000000 1.0
C      1  0.4569230000000  0.5856570000000  0.5836750000000 1.0
C      1  0.5737700000000  0.4791520000000  0.4638250000000 1.0
C      1  0.5142050000000  0.4286200000000  0.5344210000000 1.0
C      1  0.5992280000000  0.4732400000000  0.4847820000000 1.0
C      1  0.6021970000000  0.4995730000000  0.5281100000000 1.0
C      1  0.5963280000000  0.5563390000000  0.5239160000000 1.0
C      1  0.4866200000000  0.5098020000000  0.5219120000000 1.0
C      1  0.4342420000000  0.4675070000000  0.5895680000000 1.0
C      1  0.5061120000000  0.4025020000000  0.4677550000000 1.0
C      1  0.4508120000000  0.5608970000000  0.4285220000000 1.0
C      1  0.4851210000000  0.5793420000000  0.5569120000000 1.0
C      1  0.5904950000000  0.5675310000000  0.4858590000000 1.0
C      1  0.5465830000000  0.4056030000000  0.5345020000000 1.0
C      1  0.4098530000000  0.5559810000000  0.4672830000000 1.0
C      1  0.5215580000000  0.3955740000000  0.5185310000000 1.0
C      1  0.4976220000000  0.5880770000000  0.5195440000000 1.0
C      1  0.5122440000000  0.5960020000000  0.5499280000000 1.0
C      1  0.5140610000000  0.5097050000000  0.4023500000000 1.0
C      1  0.5249860000000  0.4989730000000  0.4610050000000 1.0
C      1  0.6124030000000  0.4677760000000  0.4480160000000 1.0
C      1  0.5718710000000  0.4602180000000  0.5105680000000 1.0
C      1  0.4904580000000  0.5498190000000  0.4868960000000 1.0
C      1  0.4262840000000  0.5470140000000  0.4339550000000 1.0
C      1  0.5077240000000  0.3937230000000  0.5699630000000 1.0
C      1  0.4625880000000  0.3870330000000  0.5621940000000 1.0
C      1  0.5296020000000  0.5958340000000  0.4659720000000 1.0
C      1  0.5175050000000  0.5646070000000  0.5920130000000 1.0
C      1  0.4978110000000  0.5171050000000  0.5891480000000 1.0
C      1  0.4516980000000  0.5879600000000  0.5526110000000 1.0
C      1  0.4731490000000  0.4317750000000  0.4051910000000 1.0
C      1  0.5357480000000  0.5763440000000  0.4274220000000 1.0
C      1  0.4410920000000  0.3980820000000  0.5234290000000 1.0
C      1  0.4520240000000  0.4607720000000  0.5548820000000 1.0
C      1  0.4781330000000  0.5529750000000  0.4565560000000 1.0
C      1  0.5721610000000  0.4381770000000  0.4323820000000 1.0
C      1  0.5556800000000  0.4258230000000  0.5603340000000 1.0
C      1  0.4401350000000  0.5503840000000  0.5464310000000 1.0
C      1  0.4661030000000  0.5834590000000  0.5220340000000 1.0
C      1  0.5304110000000  0.4330640000000  0.5077840000000 1.0
C      1  0.5285840000000  0.4145500000000  0.4452480000000 1.0
C      1  0.5389180000000  0.5679830000000  0.5049220000000 1.0
C      1  0.3905130000000  0.5138330000000  0.5007460000000 1.0
C      1  0.4474640000000  0.5970120000000  0.4628040000000 1.0
C      1  0.5644450000000  0.5294160000000  0.4624090000000 1.0
C      1  0.4377060000000  0.4240610000000  0.5535280000000 1.0
C      1  0.5931800000000  0.4683200000000  0.5352660000000 1.0
C      1  0.5152550000000  0.5593710000000  0.5281050000000 1.0
C      1  0.4895740000000  0.4144010000000  0.5193340000000 1.0
C      1  0.4867140000000  0.6182270000000  0.4776510000000 1.0
C      1  0.4149890000000  0.5073170000000  0.5441440000000 1.0
C      1  0.5297350000000  0.4635350000000  0.4983030000000 1.0
C      1  0.4404910000000  0.4915850000000  0.4886810000000 1.0
C      1  0.4956380000000  0.4127680000000  0.4369520000000 1.0
C      1  0.4678910000000  0.4499090000000  0.4571020000000 1.0
C      1  0.4567200000000  0.5207300000000  0.4666410000000 1.0
C      1  0.4507630000000  0.4386930000000  0.5814430000000 1.0
C      1  0.4731780000000  0.4230130000000  0.5917610000000 1.0
C      1  0.5334580000000  0.4306460000000  0.4738830000000 1.0
C      1  0.4879220000000  0.4611140000000  0.4082670000000 1.0
C      1  0.5243780000000  0.5453990000000  0.5576930000000 1.0
C      1  0.5797460000000  0.4919230000000  0.5532710000000 1.0
C      1  0.4309300000000  0.5762890000000  0.4786570000000 1.0
C      1  0.4854060000000  0.4653900000000  0.6015780000000 1.0
C      1  0.4663600000000  0.4834320000000  0.4107230000000 1.0
C      1  0.4853230000000  0.5677020000000  0.5894800000000 1.0
C      1  0.5770390000000  0.5529460000000  0.4160800000000 1.0
C      1  0.5027630000000  0.6167970000000  0.5017070000000 1.0
C      1  0.4959530000000  0.5416220000000  0.4352480000000 1.0
C      1  0.5688250000000  0.5259630000000  0.4323440000000 1.0
C      1  0.4503400000000  0.6087050000000  0.5076730000000 1.0
C      1  0.5065630000000  0.4324660000000  0.4124250000000 1.0
C      1  0.4693990000000  0.5527380000000  0.5471680000000 1.0
C      1  0.4142430000000  0.4759820000000  0.4145660000000 1.0
C      1  0.4140410000000  0.5459180000000  0.4984160000000 1.0
C      1  0.5586090000000  0.5651170000000  0.5624330000000 1.0
C      1  0.4823550000000  0.4913770000000  0.5808870000000 1.0
C      1  0.4899750000000  0.4924470000000  0.4416890000000 1.0
C      1  0.5690610000000  0.4930970000000  0.5914900000000 1.0
C      1  0.5698790000000  0.4612570000000  0.4127290000000 1.0
C      1  0.4699480000000  0.5829720000000  0.4462160000000 1.0
C      1  0.4333240000000  0.4563330000000  0.5272580000000 1.0
C      1  0.5914730000000  0.4440980000000  0.4525570000000 1.0
C      1  0.5115560000000  0.5269690000000  0.5252060000000 1.0
C      1  0.5212800000000  0.4741300000000  0.5468800000000 1.0
C      1  0.4243370000000  0.4343410000000  0.4379830000000 1.0
C      1  0.4825970000000  0.3705420000000  0.4973360000000 1.0
C      1  0.4676780000000  0.4220060000000  0.4435800000000 1.0
C      1  0.4905020000000  0.5607060000000  0.4005460000000 1.0
C      1  0.5624500000000  0.5758850000000  0.4316550000000 1.0
C      1  0.4090680000000  0.4594880000000  0.4395190000000 1.0
C      1  0.4564790000000  0.4480210000000  0.4882850000000 1.0
C      1  0.4649670000000  0.5537400000000  0.5077190000000 1.0
C      1  0.5602590000000  0.4274280000000  0.4914180000000 1.0
C      1  0.5786900000000  0.5198410000000  0.5728390000000 1.0
C      1  0.4594270000000  0.4070590000000  0.4716430000000 1.0
C      1  0.4597860000000  0.3783700000000  0.4839110000000 1.0
C      1  0.4370780000000  0.4967970000000  0.4002620000000 1.0
C      1  0.4841880000000  0.4402300000000  0.5576190000000 1.0
C      1  0.5820840000000  0.5082620000000  0.4765770000000 1.0
C      1  0.4695460000000  0.5289830000000  0.5637690000000 1.0
C      1  0.4421640000000  0.4913120000000  0.4561580000000 1.0
C      1  0.4631530000000  0.4749940000000  0.4428110000000 1.0
C      1  0.4972090000000  0.6006070000000  0.4567130000000 1.0
C      1  0.5897840000000  0.4387570000000  0.5388140000000 1.0
C      1  0.5340830000000  0.4859120000000  0.3887980000000 1.0
C      1  0.4018260000000  0.4963580000000  0.5215240000000 1.0
C      1  0.4898510000000  0.4525560000000  0.4812060000000 1.0
C      1  0.4750340000000  0.5386640000000  0.5949920000000 1.0
C      1  0.5059700000000  0.5231080000000  0.4861370000000 1.0
C      1  0.5853820000000  0.4783610000000  0.4328670000000 1.0
C      1  0.5834340000000  0.4450870000000  0.4822910000000 1.0
C      1  0.5332860000000  0.5290100000000  0.4684420000000 1.0
C      1  0.5071770000000  0.4630320000000  0.5680430000000 1.0
C      1  0.4576410000000  0.5256950000000  0.5203470000000 1.0
C      1  0.6183260000000  0.4955480000000  0.4669680000000 1.0
C      1  0.5108040000000  0.4684380000000  0.4292260000000 1.0
C      1  0.5300330000000  0.5779760000000  0.5661430000000 1.0
C      1  0.4203550000000  0.4976620000000  0.4362760000000 1.0
C      1  0.4587120000000  0.6158120000000  0.4812920000000 1.0
C      1  0.4047340000000  0.4683410000000  0.5183030000000 1.0
C      1  0.4633430000000  0.4142490000000  0.5332920000000 1.0
C      1  0.4184440000000  0.4513210000000  0.5638280000000 1.0
C      1  0.5439710000000  0.4629560000000  0.3990810000000 1.0
C      1  0.4849290000000  0.4905590000000  0.4975810000000 1.0
C      1  0.5670020000000  0.4260080000000  0.5220860000000 1.0
C      1  0.4932690000000  0.4389840000000  0.6018870000000 1.0
C      1  0.5365740000000  0.5425690000000  0.5987410000000 1.0
C      1  0.4836060000000  0.5069200000000  0.4690940000000 1.0
C      1  0.4293660000000  0.4199440000000  0.4615550000000 1.0
C      1  0.3847710000000  0.4461900000000  0.5184860000000 1.0
C      1  0.4519130000000  0.5524350000000  0.4782500000000 1.0
C      1  0.5560220000000  0.4888830000000  0.5130220000000 1.0
C      1  0.4916380000000  0.5148850000000  0.4205870000000 1.0
C      1  0.5605560000000  0.5548700000000  0.4817650000000 1.0
C      1  0.5062240000000  0.3864420000000  0.4952900000000 1.0
C      1  0.5674380000000  0.4459010000000  0.5769040000000 1.0
C      1  0.5258310000000  0.4282280000000  0.5617750000000 1.0
C      1  0.3939560000000  0.5632690000000  0.5363670000000 1.0
C      1  0.5126390000000  0.5625990000000  0.4206560000000 1.0
C      1  0.4639510000000  0.5170630000000  0.4046790000000 1.0
C      1  0.5758010000000  0.5819920000000  0.5109280000000 1.0
C      1  0.4525040000000  0.4959670000000  0.5362750000000 1.0
C      1  0.4297960000000  0.5278240000000  0.5602280000000 1.0
C      1  0.5466630000000  0.4892180000000  0.5457130000000 1.0
C      1  0.4830110000000  0.4560880000000  0.5285220000000 1.0
C      1  0.5584830000000  0.5349560000000  0.3951060000000 1.0
C      1  0.5348060000000  0.6117550000000  0.4956680000000 1.0
C      1  0.3912160000000  0.5048910000000  0.4710510000000 1.0
C      1  0.5277260000000  0.6128130000000  0.5283650000000 1.0
C      1  0.5391820000000  0.4372660000000  0.4214690000000 1.0
C      1  0.5094150000000  0.5726730000000  0.4910150000000 1.0
C      1  0.5665370000000  0.5173390000000  0.5259400000000 1.0
C      1  0.3964720000000  0.4771540000000  0.4607270000000 1.0
C      1  0.5438640000000  0.5139700000000  0.4181780000000 1.0
C      1  0.4816790000000  0.4903590000000  0.6206380000000 1.0
C      1  0.4345070000000  0.5206330000000  0.4998700000000 1.0
C      1  0.6137120000000  0.5525470000000  0.4982520000000 1.0
C      1  0.5304590000000  0.4541560000000  0.4498760000000 1.0
C      1  0.5654980000000  0.5616760000000  0.5340150000000 1.0
C      1  0.5598800000000  0.5945260000000  0.4834660000000 1.0
C      1  0.5250640000000  0.4665970000000  0.5967470000000 1.0
C      1  0.4232400000000  0.4110800000000  0.5074290000000 1.0
C      1  0.5097790000000  0.4787820000000  0.4794010000000 1.0
C      1  0.4481730000000  0.5187720000000  0.5873720000000 1.0
C      1  0.5482370000000  0.5402950000000  0.5167680000000 1.0
C      1  0.5938970000000  0.5537330000000  0.4457450000000 1.0
C      1  0.6030090000000  0.5233460000000  0.4538420000000 1.0
C      1  0.5925990000000  0.5281310000000  0.5426950000000 1.0
C      1  0.5312490000000  0.5629180000000  0.4664910000000 1.0
C      1  0.5095840000000  0.4666000000000  0.5229090000000 1.0
C      1  0.5134770000000  0.4904740000000  0.6142970000000 1.0
C      1  0.4828030000000  0.4067100000000  0.5673230000000 1.0
C      1  0.6067400000000  0.5015120000000  0.4991460000000 1.0
C      1  0.5475260000000  0.4679140000000  0.4721080000000 1.0
C      1  0.4245380000000  0.5220190000000  0.4198610000000 1.0
C      1  0.5786100000000  0.5815590000000  0.4582560000000 1.0
C      1  0.4468770000000  0.4277080000000  0.4192870000000 1.0
C      1  0.5448200000000  0.5219240000000  0.5520070000000 1.0
C      1  0.4542370000000  0.4902210000000  0.5998780000000 1.0
C      1  0.4250770000000  0.5252730000000  0.4673660000000 1.0
C      1  0.4658390000000  0.5483970000000  0.4076310000000 1.0
C      1  0.4584860000000  0.4728710000000  0.5110920000000 1.0
C      1  0.4239950000000  0.5757900000000  0.5364900000000 1.0
C      1  0.4861930000000  0.4203100000000  0.4882590000000 1.0
C      1  0.5293210000000  0.4928370000000  0.4352310000000 1.0
C      1  0.5057470000000  0.5167620000000  0.5570700000000 1.0
C      1  0.3985650000000  0.5300510000000  0.4491020000000 1.0
C      1  0.5563130000000  0.4689630000000  0.5904200000000 1.0
C      1  0.5928530000000  0.5067310000000  0.4268790000000 1.0
C      1  0.4288150000000  0.5871080000000  0.5080400000000 1.0
C      1  0.4820950000000  0.4932210000000  0.5502810000000 1.0
C      1  0.5384010000000  0.5169780000000  0.3791680000000 1.0
C      1  0.3896870000000  0.5438890000000  0.5151860000000 1.0
C      1  0.4093360000000  0.4336080000000  0.5371530000000 1.0
C      1  0.5607050000000  0.5434260000000  0.5817340000000 1.0
C      1  0.4319370000000  0.4302300000000  0.4889290000000 1.0
C      1  0.5200340000000  0.4332980000000  0.5905250000000 1.0
END
