TITL C-2778427-5640-1429 1.32995007989713e-05 125000 -558.899872572996 0 0 97 (C1) n - 1
REM
REM in /home/nfs/bkarasulu/CARBON/AIRSS/Generating-Clusters/REBO/Only-C1/SD-CG/HFTN-CG
REM
REM
REM
REM
REM
REM ./C.cell (11c1c37f851c82e70ff6c80c92926a4b)
REM
REM compiler GCC version 9.2.1 20190827 (Red Hat 9.2.1-1)
REM options -cpp -mtune=generic -march=x86-64 -g -O0 -fpre-include=/usr/include/finclude/math-vector-fortran.h
REM seed -1187566052 1545690818 -971954126 409123687 1514756664 -228396422 209813142 1999819917 789415829 1497113607 -1486035262 1745261433 -2071046052 -1672202785 894857242 89334233 1356169583 -1465070498 -178957957 -1094310118 -107617227 -931268830 1105017744 49320842 400183911 -292106519 -2126296024 1050539018 -1117083304 -453676825 83789173 738893151 1313700549
REM
CELL 1.54180   50.00000   50.00000   50.00000   90.00000   90.00000   90.00000
LATT -1
SFAC C  
C      1  0.4641210000000  0.5320050000000  0.5740870000000 1.0
C      1  0.4134940000000  0.5064360000000  0.4779640000000 1.0
C      1  0.5073600000000  0.3925580000000  0.4302030000000 1.0
C      1  0.5701860000000  0.5364000000000  0.4946510000000 1.0
C      1  0.5343150000000  0.4067390000000  0.5249780000000 1.0
C      1  0.5881940000000  0.5135070000000  0.4960560000000 1.0
C      1  0.4896370000000  0.5107410000000  0.4284000000000 1.0
C      1  0.4619810000000  0.4390270000000  0.5417650000000 1.0
C      1  0.4937500000000  0.5219440000000  0.4880680000000 1.0
C      1  0.4536840000000  0.5622530000000  0.4997450000000 1.0
C      1  0.4545820000000  0.4720780000000  0.4982120000000 1.0
C      1  0.5717850000000  0.4566670000000  0.5304710000000 1.0
C      1  0.5569820000000  0.4738430000000  0.5666680000000 1.0
C      1  0.4319450000000  0.4575560000000  0.4880190000000 1.0
C      1  0.5566330000000  0.5763860000000  0.4490950000000 1.0
C      1  0.4615160000000  0.4758220000000  0.5267140000000 1.0
C      1  0.5163290000000  0.4243190000000  0.5206520000000 1.0
C      1  0.5123280000000  0.4496970000000  0.5512350000000 1.0
C      1  0.4859770000000  0.4362800000000  0.5559280000000 1.0
C      1  0.5111130000000  0.5514720000000  0.5640440000000 1.0
C      1  0.5644930000000  0.5596410000000  0.5145860000000 1.0
C      1  0.4196450000000  0.4825140000000  0.5297560000000 1.0
C      1  0.5099620000000  0.5824630000000  0.4519360000000 1.0
C      1  0.4968790000000  0.4168530000000  0.4352350000000 1.0
C      1  0.5662150000000  0.5307020000000  0.5551870000000 1.0
C      1  0.4780990000000  0.4626200000000  0.4266310000000 1.0
C      1  0.4031320000000  0.4941770000000  0.5021420000000 1.0
C      1  0.5077950000000  0.4384600000000  0.4513000000000 1.0
C      1  0.5596710000000  0.4565990000000  0.4764640000000 1.0
C      1  0.5441120000000  0.4738200000000  0.5168290000000 1.0
C      1  0.5211020000000  0.4874960000000  0.4656190000000 1.0
C      1  0.5250990000000  0.6047450000000  0.5085270000000 1.0
C      1  0.4934930000000  0.4834750000000  0.5661640000000 1.0
C      1  0.5015730000000  0.4666150000000  0.4935400000000 1.0
C      1  0.4467730000000  0.5468100000000  0.4759580000000 1.0
C      1  0.5142400000000  0.5826100000000  0.4856800000000 1.0
C      1  0.4908600000000  0.6039780000000  0.5100050000000 1.0
C      1  0.4788220000000  0.5072610000000  0.5464690000000 1.0
C      1  0.4698590000000  0.4923430000000  0.4182760000000 1.0
C      1  0.4788840000000  0.5702030000000  0.4477680000000 1.0
C      1  0.4398340000000  0.4636920000000  0.5496620000000 1.0
C      1  0.4465220000000  0.4805240000000  0.5752000000000 1.0
C      1  0.4736430000000  0.4873850000000  0.4575600000000 1.0
C      1  0.4096960000000  0.4635450000000  0.5042970000000 1.0
C      1  0.5555000000000  0.4624210000000  0.4473500000000 1.0
C      1  0.5111460000000  0.5349090000000  0.5216480000000 1.0
C      1  0.5351070000000  0.5235580000000  0.5201990000000 1.0
C      1  0.5291700000000  0.5615860000000  0.5453180000000 1.0
C      1  0.5549200000000  0.5642500000000  0.4760840000000 1.0
C      1  0.5147460000000  0.4998510000000  0.5834020000000 1.0
C      1  0.5409110000000  0.4566400000000  0.5453750000000 1.0
C      1  0.4740760000000  0.4296330000000  0.4237820000000 1.0
C      1  0.5305230000000  0.4533180000000  0.4396010000000 1.0
C      1  0.4558280000000  0.4455920000000  0.4459210000000 1.0
C      1  0.4643020000000  0.4373240000000  0.4763460000000 1.0
C      1  0.4916480000000  0.5561730000000  0.5296360000000 1.0
C      1  0.5554660000000  0.5522890000000  0.5406010000000 1.0
C      1  0.4785380000000  0.5552020000000  0.5575730000000 1.0
C      1  0.4550060000000  0.5432050000000  0.5212840000000 1.0
C      1  0.5536720000000  0.5039710000000  0.5223010000000 1.0
C      1  0.5942990000000  0.4896750000000  0.4969570000000 1.0
C      1  0.4157980000000  0.4899100000000  0.4541680000000 1.0
C      1  0.4692480000000  0.5861110000000  0.4994120000000 1.0
C      1  0.4406310000000  0.5455570000000  0.5447180000000 1.0
C      1  0.4384160000000  0.5200070000000  0.4820990000000 1.0
C      1  0.5067680000000  0.4756810000000  0.4369900000000 1.0
C      1  0.4712870000000  0.4728090000000  0.5850590000000 1.0
C      1  0.5507960000000  0.5834740000000  0.5015600000000 1.0
C      1  0.5159760000000  0.5743740000000  0.5187900000000 1.0
C      1  0.4968390000000  0.5227940000000  0.5710780000000 1.0
C      1  0.5427820000000  0.5331050000000  0.4767660000000 1.0
C      1  0.5829500000000  0.4614400000000  0.5003530000000 1.0
C      1  0.4606270000000  0.5000660000000  0.4842400000000 1.0
C      1  0.4657210000000  0.4334280000000  0.5102510000000 1.0
C      1  0.4875190000000  0.4577590000000  0.4670200000000 1.0
C      1  0.4746860000000  0.5200170000000  0.5165570000000 1.0
C      1  0.4659870000000  0.5464150000000  0.4549190000000 1.0
C      1  0.4297370000000  0.4596790000000  0.4575300000000 1.0
C      1  0.5355880000000  0.5834510000000  0.4369360000000 1.0
C      1  0.5334260000000  0.4681570000000  0.4892130000000 1.0
C      1  0.5462280000000  0.5051820000000  0.4241210000000 1.0
C      1  0.4886960000000  0.4923510000000  0.5021020000000 1.0
C      1  0.5834670000000  0.4329020000000  0.4821570000000 1.0
C      1  0.4847730000000  0.5908040000000  0.4727530000000 1.0
C      1  0.4822630000000  0.5207060000000  0.4573240000000 1.0
C      1  0.4455830000000  0.5017960000000  0.5396290000000 1.0
C      1  0.4458820000000  0.4837140000000  0.4394720000000 1.0
C      1  0.4459170000000  0.5110100000000  0.5702520000000 1.0
C      1  0.4901680000000  0.4705340000000  0.5359190000000 1.0
C      1  0.5636710000000  0.4865100000000  0.4347940000000 1.0
C      1  0.4494880000000  0.4119440000000  0.4898270000000 1.0
C      1  0.5182520000000  0.5037290000000  0.4239780000000 1.0
C      1  0.5651260000000  0.5059540000000  0.5675070000000 1.0
C      1  0.5213460000000  0.5158010000000  0.4735580000000 1.0
C      1  0.5412520000000  0.4941050000000  0.5853620000000 1.0
C      1  0.5769290000000  0.4897060000000  0.5329560000000 1.0
C      1  0.4949980000000  0.4451610000000  0.5155080000000 1.0
END
