TITL C-2778427-5640-884 -0.000319646791237933 125000 -961.155525949516 0 0 165 (C1) n - 1
REM
REM in /home/nfs/bkarasulu/CARBON/AIRSS/Generating-Clusters/REBO/Only-C1/SD-CG/HFTN-CG
REM
REM
REM
REM
REM
REM ./C.cell (11c1c37f851c82e70ff6c80c92926a4b)
REM
REM compiler GCC version 9.2.1 20190827 (Red Hat 9.2.1-1)
REM options -cpp -mtune=generic -march=x86-64 -g -O0 -fpre-include=/usr/include/finclude/math-vector-fortran.h
REM seed 1931098005 1840044499 -422269111 927369522 -305142297 -1685399755 1565056381 -725690564 -1103144222 -778077375 1041784187 -743253629 -1800463909 -460885717 -1460410067 -68481455 -1178301814 -169352614 -2051790572 -2085300335 1147772716 -357622319 -517453013 -615217429 1107291489 1622759627 -1855790011 -2095290335 -1070564982 -445659060 1659577424 -1805007406 2057287815
REM
CELL 1.54180   50.00000   50.00000   50.00000   90.00000   90.00000   90.00000
LATT -1
SFAC C  
C      1  0.4486150000000  0.4123800000000  0.4983770000000 1.0
C      1  0.4634100000000  0.4893030000000  0.4010870000000 1.0
C      1  0.5366980000000  0.5043560000000  0.4635790000000 1.0
C      1  0.6225790000000  0.5063590000000  0.5024860000000 1.0
C      1  0.4922140000000  0.4204740000000  0.4385770000000 1.0
C      1  0.4470940000000  0.3952000000000  0.5417060000000 1.0
C      1  0.5887190000000  0.5403320000000  0.5394800000000 1.0
C      1  0.4718480000000  0.4367760000000  0.5197890000000 1.0
C      1  0.5588490000000  0.5838960000000  0.5221400000000 1.0
C      1  0.5436050000000  0.4077010000000  0.5460910000000 1.0
C      1  0.5159050000000  0.5236330000000  0.5895520000000 1.0
C      1  0.5168740000000  0.4620240000000  0.4153400000000 1.0
C      1  0.4610500000000  0.5979960000000  0.4416000000000 1.0
C      1  0.5359470000000  0.5993690000000  0.4935090000000 1.0
C      1  0.5810480000000  0.5217610000000  0.4288620000000 1.0
C      1  0.5420290000000  0.4007950000000  0.5186570000000 1.0
C      1  0.4226420000000  0.5444760000000  0.4644960000000 1.0
C      1  0.5526270000000  0.4292410000000  0.4712200000000 1.0
C      1  0.5750530000000  0.5689400000000  0.5048340000000 1.0
C      1  0.5469990000000  0.5242190000000  0.4292900000000 1.0
C      1  0.4380190000000  0.4628360000000  0.5014260000000 1.0
C      1  0.4393870000000  0.5130280000000  0.5160200000000 1.0
C      1  0.5235020000000  0.5026960000000  0.4925280000000 1.0
C      1  0.4090090000000  0.5037390000000  0.5035870000000 1.0
C      1  0.4721690000000  0.5401680000000  0.5233610000000 1.0
C      1  0.4616240000000  0.4587930000000  0.5738470000000 1.0
C      1  0.4562090000000  0.4100850000000  0.4511160000000 1.0
C      1  0.5255430000000  0.5526500000000  0.4112640000000 1.0
C      1  0.4379050000000  0.4154110000000  0.5240510000000 1.0
C      1  0.4724480000000  0.5758750000000  0.5786830000000 1.0
C      1  0.4975140000000  0.4550810000000  0.5905410000000 1.0
C      1  0.5175260000000  0.4227750000000  0.5545510000000 1.0
C      1  0.5086170000000  0.4424730000000  0.4356740000000 1.0
C      1  0.4413630000000  0.5124680000000  0.4819590000000 1.0
C      1  0.4400160000000  0.5561490000000  0.4204690000000 1.0
C      1  0.5763520000000  0.4820870000000  0.4893680000000 1.0
C      1  0.4585770000000  0.5707970000000  0.4342630000000 1.0
C      1  0.4609450000000  0.4997720000000  0.5379150000000 1.0
C      1  0.5079080000000  0.5669790000000  0.4355920000000 1.0
C      1  0.4475010000000  0.5590070000000  0.5190930000000 1.0
C      1  0.6084360000000  0.4936050000000  0.5235970000000 1.0
C      1  0.5166730000000  0.3946530000000  0.5099550000000 1.0
C      1  0.4012720000000  0.5220550000000  0.4776730000000 1.0
C      1  0.5106420000000  0.5222260000000  0.5595540000000 1.0
C      1  0.4800630000000  0.5318600000000  0.6045910000000 1.0
C      1  0.5435180000000  0.4680240000000  0.5238440000000 1.0
C      1  0.5491750000000  0.5755240000000  0.5514630000000 1.0
C      1  0.4957150000000  0.5021280000000  0.6066200000000 1.0
C      1  0.6056800000000  0.5296840000000  0.4901700000000 1.0
C      1  0.4657990000000  0.4181040000000  0.4228530000000 1.0
C      1  0.4433200000000  0.5011520000000  0.4240140000000 1.0
C      1  0.4869470000000  0.4153540000000  0.5586290000000 1.0
C      1  0.4633250000000  0.4384600000000  0.5487390000000 1.0
C      1  0.5613440000000  0.5583050000000  0.4829320000000 1.0
C      1  0.5071780000000  0.4495340000000  0.4875190000000 1.0
C      1  0.5091220000000  0.5925650000000  0.4545160000000 1.0
C      1  0.4761970000000  0.5497960000000  0.4929380000000 1.0
C      1  0.5421790000000  0.4983750000000  0.5187440000000 1.0
C      1  0.6046060000000  0.4551200000000  0.4802560000000 1.0
C      1  0.4708530000000  0.3960970000000  0.4939870000000 1.0
C      1  0.5254160000000  0.4428630000000  0.5798780000000 1.0
C      1  0.4877460000000  0.3887510000000  0.5160210000000 1.0
C      1  0.5236710000000  0.5490950000000  0.4741450000000 1.0
C      1  0.5195320000000  0.5614980000000  0.5546080000000 1.0
C      1  0.5248630000000  0.5856130000000  0.5212520000000 1.0
C      1  0.4208850000000  0.4867260000000  0.5595810000000 1.0
C      1  0.4962760000000  0.5694490000000  0.4736360000000 1.0
C      1  0.5717890000000  0.4580340000000  0.5371360000000 1.0
C      1  0.5952290000000  0.5508330000000  0.5137380000000 1.0
C      1  0.4375830000000  0.5303100000000  0.5785460000000 1.0
C      1  0.4059300000000  0.4743200000000  0.5003330000000 1.0
C      1  0.5813440000000  0.4942320000000  0.4577390000000 1.0
C      1  0.4757150000000  0.3923880000000  0.5420540000000 1.0
C      1  0.4771090000000  0.4799710000000  0.5955550000000 1.0
C      1  0.4746510000000  0.5537220000000  0.4533660000000 1.0
C      1  0.4182150000000  0.5462510000000  0.5578280000000 1.0
C      1  0.5071010000000  0.5521780000000  0.6019160000000 1.0
C      1  0.5582100000000  0.5340590000000  0.5144300000000 1.0
C      1  0.5388140000000  0.4961570000000  0.5704780000000 1.0
C      1  0.5040650000000  0.5749530000000  0.5813950000000 1.0
C      1  0.4426730000000  0.5949140000000  0.5347800000000 1.0
C      1  0.4723680000000  0.5965160000000  0.5352580000000 1.0
C      1  0.3937310000000  0.4630370000000  0.4741310000000 1.0
C      1  0.5157330000000  0.4584800000000  0.4618540000000 1.0
C      1  0.5597160000000  0.4198310000000  0.5022640000000 1.0
C      1  0.5047260000000  0.6072640000000  0.5360880000000 1.0
C      1  0.5593560000000  0.4527860000000  0.4928720000000 1.0
C      1  0.5350500000000  0.4606410000000  0.5525220000000 1.0
C      1  0.4776500000000  0.4556710000000  0.4997220000000 1.0
C      1  0.5615100000000  0.4948570000000  0.4305840000000 1.0
C      1  0.5745870000000  0.4947800000000  0.5270190000000 1.0
C      1  0.4726260000000  0.5016210000000  0.4377560000000 1.0
C      1  0.5111040000000  0.4320600000000  0.5227080000000 1.0
C      1  0.4428950000000  0.4747730000000  0.4690740000000 1.0
C      1  0.5944840000000  0.5131860000000  0.5442120000000 1.0
C      1  0.4592640000000  0.5082210000000  0.5914910000000 1.0
C      1  0.5303500000000  0.5329460000000  0.5025680000000 1.0
C      1  0.4508900000000  0.5889030000000  0.5021220000000 1.0
C      1  0.4859460000000  0.5771440000000  0.5178230000000 1.0
C      1  0.5734270000000  0.5483450000000  0.4471380000000 1.0
C      1  0.5101070000000  0.4776360000000  0.5683000000000 1.0
C      1  0.5372690000000  0.5954950000000  0.4662360000000 1.0
C      1  0.5820460000000  0.4300300000000  0.5226460000000 1.0
C      1  0.5926790000000  0.4596460000000  0.5099880000000 1.0
C      1  0.4203020000000  0.5056680000000  0.4561370000000 1.0
C      1  0.4773470000000  0.4306940000000  0.5848370000000 1.0
C      1  0.4182040000000  0.5368130000000  0.5033920000000 1.0
C      1  0.4649940000000  0.4582980000000  0.3972410000000 1.0
C      1  0.4129810000000  0.4632190000000  0.5459870000000 1.0
C      1  0.5220050000000  0.5943050000000  0.5601690000000 1.0
C      1  0.5130530000000  0.4651150000000  0.5156620000000 1.0
C      1  0.4275390000000  0.4481020000000  0.4291680000000 1.0
C      1  0.4038730000000  0.4480910000000  0.4538590000000 1.0
C      1  0.5570770000000  0.5761400000000  0.4588350000000 1.0
C      1  0.4479780000000  0.4369640000000  0.4806700000000 1.0
C      1  0.4665980000000  0.4970150000000  0.4700510000000 1.0
C      1  0.4131940000000  0.5140240000000  0.5622930000000 1.0
C      1  0.3926130000000  0.4653590000000  0.5270720000000 1.0
C      1  0.5284440000000  0.4950630000000  0.6029550000000 1.0
C      1  0.4350200000000  0.4465460000000  0.5314360000000 1.0
C      1  0.4874300000000  0.5186630000000  0.3884160000000 1.0
C      1  0.5442110000000  0.4700020000000  0.4211160000000 1.0
C      1  0.5915760000000  0.4628590000000  0.4578760000000 1.0
C      1  0.5337920000000  0.5474370000000  0.4442850000000 1.0
C      1  0.4825340000000  0.5357660000000  0.5525120000000 1.0
C      1  0.5251020000000  0.5049900000000  0.4116760000000 1.0
C      1  0.5467370000000  0.4224310000000  0.4469790000000 1.0
C      1  0.4505000000000  0.4390130000000  0.4109810000000 1.0
C      1  0.5396540000000  0.5175960000000  0.5458620000000 1.0
C      1  0.4937670000000  0.4737170000000  0.4015390000000 1.0
C      1  0.4799820000000  0.6040570000000  0.4620810000000 1.0
C      1  0.4543080000000  0.5397390000000  0.4724870000000 1.0
C      1  0.4660490000000  0.5447610000000  0.5772670000000 1.0
C      1  0.5018400000000  0.5234670000000  0.5189070000000 1.0
C      1  0.4919710000000  0.4970200000000  0.5517050000000 1.0
C      1  0.4510350000000  0.4873850000000  0.5663060000000 1.0
C      1  0.4297360000000  0.5686220000000  0.5463970000000 1.0
C      1  0.5040830000000  0.4181010000000  0.4920300000000 1.0
C      1  0.5571510000000  0.5272850000000  0.4695720000000 1.0
C      1  0.5581880000000  0.5450200000000  0.5458060000000 1.0
C      1  0.5249180000000  0.5299860000000  0.3964400000000 1.0
C      1  0.4962320000000  0.5349060000000  0.4400520000000 1.0
C      1  0.5086500000000  0.5559490000000  0.5263920000000 1.0
C      1  0.4928150000000  0.5012920000000  0.4826250000000 1.0
C      1  0.5642210000000  0.4583960000000  0.4461170000000 1.0
C      1  0.4722070000000  0.4576100000000  0.4670100000000 1.0
C      1  0.4286580000000  0.5301870000000  0.4339630000000 1.0
C      1  0.4913160000000  0.6171100000000  0.5069540000000 1.0
C      1  0.5682880000000  0.4215820000000  0.5523190000000 1.0
C      1  0.5419080000000  0.4730340000000  0.4607690000000 1.0
C      1  0.4856950000000  0.4065690000000  0.4678530000000 1.0
C      1  0.5760070000000  0.5159150000000  0.4932710000000 1.0
C      1  0.5955570000000  0.5249720000000  0.4596280000000 1.0
C      1  0.5453460000000  0.4687150000000  0.5899430000000 1.0
C      1  0.5631530000000  0.4495530000000  0.5687410000000 1.0
C      1  0.4280080000000  0.4773980000000  0.4413080000000 1.0
C      1  0.4303880000000  0.4283800000000  0.4561530000000 1.0
C      1  0.4954810000000  0.4900350000000  0.5204890000000 1.0
C      1  0.4296680000000  0.5649760000000  0.4908080000000 1.0
C      1  0.4734170000000  0.6052810000000  0.4896950000000 1.0
C      1  0.4930920000000  0.4770840000000  0.4482720000000 1.0
C      1  0.4871000000000  0.5185620000000  0.4142430000000 1.0
C      1  0.5121400000000  0.5048710000000  0.4421880000000 1.0
C      1  0.4645200000000  0.4827290000000  0.5100550000000 1.0
C      1  0.4980290000000  0.5306540000000  0.4797810000000 1.0
END
