TITL C-2778434-4341-809 0.00185423030752622 125000 -412.736690170871 0 0 70 (C1) n - 1
REM
REM in /home/nfs/bkarasulu/CARBON/AIRSS/Generating-Clusters/REBO/Only-C1/SD-CG/HFTN-CG
REM
REM
REM
REM
REM
REM ./C.cell (11c1c37f851c82e70ff6c80c92926a4b)
REM
REM compiler GCC version 9.2.1 20190827 (Red Hat 9.2.1-1)
REM options -cpp -mtune=generic -march=x86-64 -g -O0 -fpre-include=/usr/include/finclude/math-vector-fortran.h
REM seed 44446957 179169811 -1217722763 -1407567862 -1896464100 -1992070666 -1323185547 848425030 1414131986 1839452235 -264902450 577169631 1504628352 -504097638 -1353381280 2053696459 1714083034 1845054016 -1621999419 -171701473 1793883474 1971071590 1012255290 1839857866 1947001731 1258106939 1988040628 -488849158 2009975580 1114127457 117580806 -496798101 -547268551
REM
CELL 1.54180   50.00000   50.00000   50.00000   90.00000   90.00000   90.00000
LATT -1
SFAC C  
C      1  0.5626900000000  0.4667210000000  0.5024570000000 1.0
C      1  0.5229240000000  0.4695740000000  0.4368010000000 1.0
C      1  0.5278590000000  0.4391910000000  0.4802740000000 1.0
C      1  0.4697960000000  0.5477020000000  0.4788350000000 1.0
C      1  0.4593800000000  0.4411830000000  0.4785620000000 1.0
C      1  0.4420860000000  0.4570090000000  0.5301400000000 1.0
C      1  0.5180360000000  0.4865850000000  0.4662390000000 1.0
C      1  0.4339600000000  0.4507510000000  0.4696310000000 1.0
C      1  0.4258120000000  0.4751530000000  0.4820020000000 1.0
C      1  0.5285240000000  0.4381310000000  0.5306460000000 1.0
C      1  0.5438890000000  0.4572000000000  0.4583460000000 1.0
C      1  0.5813000000000  0.5265010000000  0.4945600000000 1.0
C      1  0.4408020000000  0.5020030000000  0.4706400000000 1.0
C      1  0.4659240000000  0.4799700000000  0.4730010000000 1.0
C      1  0.4879320000000  0.4542560000000  0.5539750000000 1.0
C      1  0.5352140000000  0.5077220000000  0.5104720000000 1.0
C      1  0.5187530000000  0.4807460000000  0.5139810000000 1.0
C      1  0.5460070000000  0.5509850000000  0.5191850000000 1.0
C      1  0.4698480000000  0.4630650000000  0.5020100000000 1.0
C      1  0.4459890000000  0.4778800000000  0.5536820000000 1.0
C      1  0.4867100000000  0.4997680000000  0.5693780000000 1.0
C      1  0.5682940000000  0.5319390000000  0.5213370000000 1.0
C      1  0.5020420000000  0.5164190000000  0.5070800000000 1.0
C      1  0.4719870000000  0.4438070000000  0.5285040000000 1.0
C      1  0.5174400000000  0.4560210000000  0.5512810000000 1.0
C      1  0.5142500000000  0.5023330000000  0.5754680000000 1.0
C      1  0.5565450000000  0.5029570000000  0.4461830000000 1.0
C      1  0.5027150000000  0.5572910000000  0.4760650000000 1.0
C      1  0.5591700000000  0.5052610000000  0.4931470000000 1.0
C      1  0.3937740000000  0.6243800000000  0.4891040000000 1.0
C      1  0.5093530000000  0.5155570000000  0.4292240000000 1.0
C      1  0.4322840000000  0.4954350000000  0.5298540000000 1.0
C      1  0.5492650000000  0.5035850000000  0.5571740000000 1.0
C      1  0.5171200000000  0.5170450000000  0.5376310000000 1.0
C      1  0.5328110000000  0.4985010000000  0.4310660000000 1.0
C      1  0.5586170000000  0.5298990000000  0.4554820000000 1.0
C      1  0.4951020000000  0.4849760000000  0.5303210000000 1.0
C      1  0.5071900000000  0.5449230000000  0.4443640000000 1.0
C      1  0.4834480000000  0.4739670000000  0.4510790000000 1.0
C      1  0.5306580000000  0.5303630000000  0.5645760000000 1.0
C      1  0.5051540000000  0.4482860000000  0.4564820000000 1.0
C      1  0.4608120000000  0.5093530000000  0.4465910000000 1.0
C      1  0.5287170000000  0.5548190000000  0.5421080000000 1.0
C      1  0.4836950000000  0.5152100000000  0.5424320000000 1.0
C      1  0.4788150000000  0.4314820000000  0.4621700000000 1.0
C      1  0.5435780000000  0.4463860000000  0.5076180000000 1.0
C      1  0.4836920000000  0.5265070000000  0.4596970000000 1.0
C      1  0.4091780000000  0.6032160000000  0.4878180000000 1.0
C      1  0.4228110000000  0.4724520000000  0.5103670000000 1.0
C      1  0.5609950000000  0.4804750000000  0.4713230000000 1.0
C      1  0.5121870000000  0.4148000000000  0.5261240000000 1.0
C      1  0.5308090000000  0.4789730000000  0.5630190000000 1.0
C      1  0.5325500000000  0.5544470000000  0.4932370000000 1.0
C      1  0.4670880000000  0.5365760000000  0.5392700000000 1.0
C      1  0.4961860000000  0.5471030000000  0.5076640000000 1.0
C      1  0.5173460000000  0.4693230000000  0.4881610000000 1.0
C      1  0.5023610000000  0.5598200000000  0.5314390000000 1.0
C      1  0.4436590000000  0.5280530000000  0.4888670000000 1.0
C      1  0.5674010000000  0.5067170000000  0.5363460000000 1.0
C      1  0.4722320000000  0.4753760000000  0.5664250000000 1.0
C      1  0.4748370000000  0.4963560000000  0.5080660000000 1.0
C      1  0.5347000000000  0.5340260000000  0.4710980000000 1.0
C      1  0.5132100000000  0.5143430000000  0.4689150000000 1.0
C      1  0.4248310000000  0.5817110000000  0.4865110000000 1.0
C      1  0.4400580000000  0.5607920000000  0.4852400000000 1.0
C      1  0.4850050000000  0.4165160000000  0.5223220000000 1.0
C      1  0.5826940000000  0.5381610000000  0.4686590000000 1.0
C      1  0.4497350000000  0.5114400000000  0.5136880000000 1.0
C      1  0.5745350000000  0.4828520000000  0.5224290000000 1.0
C      1  0.4856260000000  0.4976700000000  0.4321550000000 1.0
END
