TITL C-2778426-5645-467 0.0111072922173831 125000 -1078.32276623495 0 0 186 (C1) n - 1
REM
REM in /home/nfs/bkarasulu/CARBON/AIRSS/Generating-Clusters/REBO/Only-C1/SD-CG/HFTN-CG
REM
REM
REM
REM
REM
REM ./C.cell (11c1c37f851c82e70ff6c80c92926a4b)
REM
REM compiler GCC version 9.2.1 20190827 (Red Hat 9.2.1-1)
REM options -cpp -mtune=generic -march=x86-64 -g -O0 -fpre-include=/usr/include/finclude/math-vector-fortran.h
REM seed -578188507 1639502821 737880704 -337485038 41749473 198758601 -1439929889 -349742577 -1048428076 -604535241 -2030295051 178336921 1610498220 -992819748 964369117 -736724215 1703565121 -1350139329 -1471644751 -609344133 395126144 -975299662 -1690570606 -1268437605 -66502758 -633846588 666530235 54432587 672575951 -1021071191 1461184307 1161285723 -400888249
REM
CELL 1.54180   50.00000   50.00000   50.00000   90.00000   90.00000   90.00000
LATT -1
SFAC C  
C      1  0.5329110000000  0.4368440000000  0.4161800000000 1.0
C      1  0.4865930000000  0.4869680000000  0.3971880000000 1.0
C      1  0.6000060000000  0.4198560000000  0.4958820000000 1.0
C      1  0.5148690000000  0.5596290000000  0.5778460000000 1.0
C      1  0.4063810000000  0.5323850000000  0.4787840000000 1.0
C      1  0.5701290000000  0.5741020000000  0.4692820000000 1.0
C      1  0.4889990000000  0.5388770000000  0.6156880000000 1.0
C      1  0.5099270000000  0.4629080000000  0.3970750000000 1.0
C      1  0.5657850000000  0.5115160000000  0.5894780000000 1.0
C      1  0.5880940000000  0.5318010000000  0.4402910000000 1.0
C      1  0.5396960000000  0.5007950000000  0.6065930000000 1.0
C      1  0.5164650000000  0.5935220000000  0.5371600000000 1.0
C      1  0.4241300000000  0.5829020000000  0.5131930000000 1.0
C      1  0.4181670000000  0.4664470000000  0.4564000000000 1.0
C      1  0.5860630000000  0.5593140000000  0.4957040000000 1.0
C      1  0.4648410000000  0.5869570000000  0.5628990000000 1.0
C      1  0.5780860000000  0.4064730000000  0.4871030000000 1.0
C      1  0.5405770000000  0.5125740000000  0.5430400000000 1.0
C      1  0.4894840000000  0.4744300000000  0.5899540000000 1.0
C      1  0.4645380000000  0.5608360000000  0.5790420000000 1.0
C      1  0.5146560000000  0.4678990000000  0.4319090000000 1.0
C      1  0.5845060000000  0.5583810000000  0.5296930000000 1.0
C      1  0.4497130000000  0.5121590000000  0.5588850000000 1.0
C      1  0.4867930000000  0.5415050000000  0.4323630000000 1.0
C      1  0.5774070000000  0.4621110000000  0.5544710000000 1.0
C      1  0.5044700000000  0.5449790000000  0.5266910000000 1.0
C      1  0.5979330000000  0.4575240000000  0.4730290000000 1.0
C      1  0.4673900000000  0.4627350000000  0.5665980000000 1.0
C      1  0.5234990000000  0.4614160000000  0.4611630000000 1.0
C      1  0.4023040000000  0.4843380000000  0.4760010000000 1.0
C      1  0.5016660000000  0.5163600000000  0.3973260000000 1.0
C      1  0.5105420000000  0.4109210000000  0.5506060000000 1.0
C      1  0.4976700000000  0.3956250000000  0.5055440000000 1.0
C      1  0.4600660000000  0.4921920000000  0.4462910000000 1.0
C      1  0.5376850000000  0.4769690000000  0.5609840000000 1.0
C      1  0.4286720000000  0.5627280000000  0.5617810000000 1.0
C      1  0.5611860000000  0.5262350000000  0.4811400000000 1.0
C      1  0.5167810000000  0.5688040000000  0.5236590000000 1.0
C      1  0.4988440000000  0.4042910000000  0.4487410000000 1.0
C      1  0.4928110000000  0.4171550000000  0.4796340000000 1.0
C      1  0.6006460000000  0.4912600000000  0.5156250000000 1.0
C      1  0.5521520000000  0.4225800000000  0.5754880000000 1.0
C      1  0.5471110000000  0.4294500000000  0.4973030000000 1.0
C      1  0.4253490000000  0.4916980000000  0.5828750000000 1.0
C      1  0.5637950000000  0.4828070000000  0.4413840000000 1.0
C      1  0.4932990000000  0.5139840000000  0.6249710000000 1.0
C      1  0.4885530000000  0.5224840000000  0.5372170000000 1.0
C      1  0.5293200000000  0.4731400000000  0.5911670000000 1.0
C      1  0.5331810000000  0.5004800000000  0.5146630000000 1.0
C      1  0.5389280000000  0.5678350000000  0.5016540000000 1.0
C      1  0.4721840000000  0.5224210000000  0.4083090000000 1.0
C      1  0.4163220000000  0.4155720000000  0.4886750000000 1.0
C      1  0.5910270000000  0.4924710000000  0.5465590000000 1.0
C      1  0.4700200000000  0.5006320000000  0.5787340000000 1.0
C      1  0.5155640000000  0.4490920000000  0.5407370000000 1.0
C      1  0.5539080000000  0.4963250000000  0.4879910000000 1.0
C      1  0.5637050000000  0.5831440000000  0.5184290000000 1.0
C      1  0.4402970000000  0.5995300000000  0.4890600000000 1.0
C      1  0.4632050000000  0.5699050000000  0.4471320000000 1.0
C      1  0.5359140000000  0.4899210000000  0.4596400000000 1.0
C      1  0.4525620000000  0.4038160000000  0.4917600000000 1.0
C      1  0.4727300000000  0.5423250000000  0.4634470000000 1.0
C      1  0.5651560000000  0.5643470000000  0.4382950000000 1.0
C      1  0.5249040000000  0.5769880000000  0.4323130000000 1.0
C      1  0.5106620000000  0.4472640000000  0.5913830000000 1.0
C      1  0.5039730000000  0.5642340000000  0.4638260000000 1.0
C      1  0.4091120000000  0.5251370000000  0.4496220000000 1.0
C      1  0.4554140000000  0.5485450000000  0.4143140000000 1.0
C      1  0.5499090000000  0.5435250000000  0.5434000000000 1.0
C      1  0.4258660000000  0.5771430000000  0.4741840000000 1.0
C      1  0.4597430000000  0.5772610000000  0.5336160000000 1.0
C      1  0.5130170000000  0.5892790000000  0.5649020000000 1.0
C      1  0.4841890000000  0.4875310000000  0.4783600000000 1.0
C      1  0.4724950000000  0.3846930000000  0.4908940000000 1.0
C      1  0.5627730000000  0.5736390000000  0.5510890000000 1.0
C      1  0.5709410000000  0.5368680000000  0.5692900000000 1.0
C      1  0.5280140000000  0.3970580000000  0.5083110000000 1.0
C      1  0.4901030000000  0.4741450000000  0.5232500000000 1.0
C      1  0.5727800000000  0.5252260000000  0.5117210000000 1.0
C      1  0.5547440000000  0.4718490000000  0.5323030000000 1.0
C      1  0.4771680000000  0.5030020000000  0.5172380000000 1.0
C      1  0.5258050000000  0.5962140000000  0.4552340000000 1.0
C      1  0.4241500000000  0.5195540000000  0.5375260000000 1.0
C      1  0.4622260000000  0.5189800000000  0.4941290000000 1.0
C      1  0.4516930000000  0.4848690000000  0.5209120000000 1.0
C      1  0.4846570000000  0.6095050000000  0.5107600000000 1.0
C      1  0.5454170000000  0.3992160000000  0.4812940000000 1.0
C      1  0.4188720000000  0.4388690000000  0.5134610000000 1.0
C      1  0.5718760000000  0.4399760000000  0.5683270000000 1.0
C      1  0.6019410000000  0.4944200000000  0.4383910000000 1.0
C      1  0.4512890000000  0.4201430000000  0.5646650000000 1.0
C      1  0.5132890000000  0.5535240000000  0.4221950000000 1.0
C      1  0.4939170000000  0.5969680000000  0.4672670000000 1.0
C      1  0.4894270000000  0.5549730000000  0.5942090000000 1.0
C      1  0.4678920000000  0.4642050000000  0.4621580000000 1.0
C      1  0.4544170000000  0.5423890000000  0.5519290000000 1.0
C      1  0.4872730000000  0.4380190000000  0.3989590000000 1.0
C      1  0.4132810000000  0.4610540000000  0.4243870000000 1.0
C      1  0.5482770000000  0.5014890000000  0.4067230000000 1.0
C      1  0.5258630000000  0.3938180000000  0.4570840000000 1.0
C      1  0.4719440000000  0.5760990000000  0.4195970000000 1.0
C      1  0.5236110000000  0.4710990000000  0.5179270000000 1.0
C      1  0.5315720000000  0.4238220000000  0.5270370000000 1.0
C      1  0.6201590000000  0.4680250000000  0.4897820000000 1.0
C      1  0.5724520000000  0.4852320000000  0.5119790000000 1.0
C      1  0.4567330000000  0.4074320000000  0.5393680000000 1.0
C      1  0.4717090000000  0.4497160000000  0.5128540000000 1.0
C      1  0.4365440000000  0.5324340000000  0.5118900000000 1.0
C      1  0.5905380000000  0.5469080000000  0.4638210000000 1.0
C      1  0.4351410000000  0.5179780000000  0.5963700000000 1.0
C      1  0.5412590000000  0.4376100000000  0.4651340000000 1.0
C      1  0.5488240000000  0.5611110000000  0.5790470000000 1.0
C      1  0.4857830000000  0.4035320000000  0.5346580000000 1.0
C      1  0.4626550000000  0.5496030000000  0.5197040000000 1.0
C      1  0.4205860000000  0.5796910000000  0.5409210000000 1.0
C      1  0.4636520000000  0.4421290000000  0.4231450000000 1.0
C      1  0.4321410000000  0.4076140000000  0.5184840000000 1.0
C      1  0.5138670000000  0.5230680000000  0.5050240000000 1.0
C      1  0.4366640000000  0.5439830000000  0.5874340000000 1.0
C      1  0.3819870000000  0.4711810000000  0.4999950000000 1.0
C      1  0.4553990000000  0.4946060000000  0.4068010000000 1.0
C      1  0.5067460000000  0.4809470000000  0.5523640000000 1.0
C      1  0.6159910000000  0.5018710000000  0.4900640000000 1.0
C      1  0.4893220000000  0.4985850000000  0.4353270000000 1.0
C      1  0.4329070000000  0.5125340000000  0.4206670000000 1.0
C      1  0.5625180000000  0.4581250000000  0.4245150000000 1.0
C      1  0.4028080000000  0.5363940000000  0.5463880000000 1.0
C      1  0.3686570000000  0.4896420000000  0.4782450000000 1.0
C      1  0.4445540000000  0.4655450000000  0.5913380000000 1.0
C      1  0.5188850000000  0.4967150000000  0.4185540000000 1.0
C      1  0.5418080000000  0.5393500000000  0.5134000000000 1.0
C      1  0.5856830000000  0.5260000000000  0.5413070000000 1.0
C      1  0.4949830000000  0.5165200000000  0.4840880000000 1.0
C      1  0.5995660000000  0.5283500000000  0.4908830000000 1.0
C      1  0.4904010000000  0.5815070000000  0.4966050000000 1.0
C      1  0.4437530000000  0.4696870000000  0.4259530000000 1.0
C      1  0.5746290000000  0.5070290000000  0.4240150000000 1.0
C      1  0.5629990000000  0.4984680000000  0.5608900000000 1.0
C      1  0.4830890000000  0.4673950000000  0.4253780000000 1.0
C      1  0.4518690000000  0.5150220000000  0.4641230000000 1.0
C      1  0.4285450000000  0.4865820000000  0.5060650000000 1.0
C      1  0.5520890000000  0.5450180000000  0.4249450000000 1.0
C      1  0.4667710000000  0.4167450000000  0.4446200000000 1.0
C      1  0.5716530000000  0.4754810000000  0.4701120000000 1.0
C      1  0.4545800000000  0.4935020000000  0.6079810000000 1.0
C      1  0.4271360000000  0.5447000000000  0.4304600000000 1.0
C      1  0.4409740000000  0.4512930000000  0.4687650000000 1.0
C      1  0.4790620000000  0.5550460000000  0.4944330000000 1.0
C      1  0.4088330000000  0.4666220000000  0.5111820000000 1.0
C      1  0.4945420000000  0.4436690000000  0.4956040000000 1.0
C      1  0.5486170000000  0.6063100000000  0.5017060000000 1.0
C      1  0.5480110000000  0.5964770000000  0.4742840000000 1.0
C      1  0.4345710000000  0.5689240000000  0.4493360000000 1.0
C      1  0.5534410000000  0.4318240000000  0.4402490000000 1.0
C      1  0.5202980000000  0.5283390000000  0.5653840000000 1.0
C      1  0.5276910000000  0.6145050000000  0.5205180000000 1.0
C      1  0.4217090000000  0.4587010000000  0.5479840000000 1.0
C      1  0.4760960000000  0.4228900000000  0.5783370000000 1.0
C      1  0.4666540000000  0.6100690000000  0.4835960000000 1.0
C      1  0.5298120000000  0.5608930000000  0.4741670000000 1.0
C      1  0.4404490000000  0.4176760000000  0.4644270000000 1.0
C      1  0.4163020000000  0.4967600000000  0.4409920000000 1.0
C      1  0.4198820000000  0.4901160000000  0.5531950000000 1.0
C      1  0.4733390000000  0.6055220000000  0.5369890000000 1.0
C      1  0.5236420000000  0.4208600000000  0.5757420000000 1.0
C      1  0.4943350000000  0.4449240000000  0.5636280000000 1.0
C      1  0.5390010000000  0.5314420000000  0.5925300000000 1.0
C      1  0.5715460000000  0.4468310000000  0.4880710000000 1.0
C      1  0.5458070000000  0.5407230000000  0.4641190000000 1.0
C      1  0.4963900000000  0.5072540000000  0.5633020000000 1.0
C      1  0.4335070000000  0.4418970000000  0.5704980000000 1.0
C      1  0.6152030000000  0.4929910000000  0.4590210000000 1.0
C      1  0.5309340000000  0.5311500000000  0.4031610000000 1.0
C      1  0.6186830000000  0.4395810000000  0.5019030000000 1.0
C      1  0.4872140000000  0.4413890000000  0.4553660000000 1.0
C      1  0.5099980000000  0.5090950000000  0.4555070000000 1.0
C      1  0.4481460000000  0.4375170000000  0.4980730000000 1.0
C      1  0.5084140000000  0.4916790000000  0.6111780000000 1.0
C      1  0.5038050000000  0.4655310000000  0.4825040000000 1.0
C      1  0.4177150000000  0.5547770000000  0.4958500000000 1.0
C      1  0.5413010000000  0.4680870000000  0.4022210000000 1.0
C      1  0.5028790000000  0.4301500000000  0.4269890000000 1.0
C      1  0.4508140000000  0.4674450000000  0.5420090000000 1.0
C      1  0.4242920000000  0.5068160000000  0.4817470000000 1.0
C      1  0.3950330000000  0.4536480000000  0.4077500000000 1.0
C      1  0.5332700000000  0.5257420000000  0.4423920000000 1.0
END
