TITL C-2778434-4341-1300 0.00453952231928284 125000 -765.931594531748 0 0 134 (C1) n - 1
REM
REM in /home/nfs/bkarasulu/CARBON/AIRSS/Generating-Clusters/REBO/Only-C1/SD-CG/HFTN-CG
REM
REM
REM
REM
REM
REM ./C.cell (11c1c37f851c82e70ff6c80c92926a4b)
REM
REM compiler GCC version 9.2.1 20190827 (Red Hat 9.2.1-1)
REM options -cpp -mtune=generic -march=x86-64 -g -O0 -fpre-include=/usr/include/finclude/math-vector-fortran.h
REM seed -782406992 447980569 -843698062 -1464335386 -1014817139 -255742926 -1347075098 1918698738 -1019231806 -1399809937 187004983 -1137356479 -1734898656 -892865648 -2074392986 -1528406843 1147459782 695579230 -257646388 -292721260 -2141173057 -1000529815 707314659 -1217938085 1784342429 1659522303 8985342 42118911 1591814490 1229314741 1324654882 729258874 -1131339651
REM
CELL 1.54180   50.00000   50.00000   50.00000   90.00000   90.00000   90.00000
LATT -1
SFAC C  
C      1  0.5055600000000  0.4352820000000  0.4307510000000 1.0
C      1  0.5742820000000  0.4711440000000  0.4568700000000 1.0
C      1  0.5520030000000  0.4383120000000  0.4594090000000 1.0
C      1  0.4144810000000  0.5252390000000  0.4480120000000 1.0
C      1  0.4857770000000  0.4390260000000  0.5635350000000 1.0
C      1  0.4759230000000  0.5434940000000  0.4821400000000 1.0
C      1  0.5203220000000  0.4224140000000  0.5535810000000 1.0
C      1  0.4647540000000  0.4042270000000  0.4969900000000 1.0
C      1  0.5312790000000  0.5350660000000  0.4810600000000 1.0
C      1  0.5620090000000  0.5675100000000  0.5378110000000 1.0
C      1  0.4396400000000  0.5302250000000  0.4319530000000 1.0
C      1  0.4052640000000  0.4942150000000  0.5202980000000 1.0
C      1  0.5802590000000  0.5368620000000  0.4794630000000 1.0
C      1  0.5212830000000  0.4802440000000  0.5873780000000 1.0
C      1  0.5592780000000  0.5054410000000  0.4964660000000 1.0
C      1  0.4765970000000  0.6057460000000  0.5391990000000 1.0
C      1  0.4468080000000  0.5803940000000  0.4625090000000 1.0
C      1  0.4201080000000  0.5192210000000  0.5363940000000 1.0
C      1  0.5663140000000  0.4171700000000  0.5246250000000 1.0
C      1  0.5765180000000  0.5272440000000  0.4470260000000 1.0
C      1  0.5516100000000  0.4772410000000  0.5534600000000 1.0
C      1  0.5206830000000  0.4779110000000  0.4128050000000 1.0
C      1  0.4872200000000  0.4171880000000  0.4413940000000 1.0
C      1  0.5228910000000  0.5489030000000  0.5189280000000 1.0
C      1  0.4272320000000  0.4593780000000  0.4540530000000 1.0
C      1  0.5651280000000  0.5381890000000  0.5422860000000 1.0
C      1  0.5049990000000  0.5703730000000  0.4332010000000 1.0
C      1  0.5463190000000  0.5749850000000  0.4597400000000 1.0
C      1  0.5153090000000  0.5631130000000  0.5480350000000 1.0
C      1  0.5210020000000  0.4773260000000  0.5442580000000 1.0
C      1  0.4492040000000  0.5774320000000  0.4361650000000 1.0
C      1  0.5688240000000  0.4429280000000  0.5418760000000 1.0
C      1  0.4616000000000  0.4244530000000  0.4626370000000 1.0
C      1  0.4846790000000  0.5465870000000  0.4177330000000 1.0
C      1  0.4795600000000  0.4869600000000  0.4549040000000 1.0
C      1  0.5279830000000  0.5195540000000  0.4134730000000 1.0
C      1  0.5122580000000  0.5035000000000  0.5561090000000 1.0
C      1  0.4505910000000  0.5239590000000  0.4831010000000 1.0
C      1  0.5189650000000  0.4811620000000  0.4928020000000 1.0
C      1  0.4369500000000  0.4323390000000  0.5676040000000 1.0
C      1  0.5120970000000  0.4509260000000  0.4074290000000 1.0
C      1  0.5927310000000  0.5262500000000  0.5023000000000 1.0
C      1  0.5239350000000  0.5835730000000  0.5123170000000 1.0
C      1  0.5553170000000  0.5567350000000  0.4849040000000 1.0
C      1  0.4604670000000  0.4698690000000  0.5442050000000 1.0
C      1  0.4621100000000  0.4250610000000  0.5518680000000 1.0
C      1  0.5855510000000  0.4871650000000  0.4850840000000 1.0
C      1  0.5473470000000  0.5177620000000  0.4603890000000 1.0
C      1  0.4887330000000  0.6018220000000  0.5075720000000 1.0
C      1  0.4424220000000  0.4283930000000  0.4888080000000 1.0
C      1  0.5004860000000  0.5553890000000  0.4979460000000 1.0
C      1  0.4659070000000  0.4642580000000  0.5919630000000 1.0
C      1  0.5360490000000  0.4368400000000  0.4865490000000 1.0
C      1  0.5077790000000  0.5315110000000  0.4324730000000 1.0
C      1  0.4710350000000  0.5371600000000  0.5215170000000 1.0
C      1  0.5960900000000  0.4589550000000  0.4877480000000 1.0
C      1  0.4871540000000  0.4039450000000  0.4720120000000 1.0
C      1  0.5535680000000  0.4650680000000  0.4944420000000 1.0
C      1  0.4916340000000  0.5835120000000  0.5584280000000 1.0
C      1  0.5014580000000  0.4659770000000  0.4704330000000 1.0
C      1  0.5152440000000  0.4028080000000  0.4881880000000 1.0
C      1  0.4946070000000  0.4331790000000  0.5249700000000 1.0
C      1  0.5097930000000  0.6003990000000  0.5348010000000 1.0
C      1  0.4898070000000  0.4732750000000  0.5984900000000 1.0
C      1  0.4540920000000  0.4467360000000  0.4400920000000 1.0
C      1  0.4809400000000  0.4872490000000  0.5228140000000 1.0
C      1  0.4976470000000  0.5039770000000  0.5940670000000 1.0
C      1  0.4805460000000  0.5128820000000  0.4105100000000 1.0
C      1  0.4352550000000  0.5729960000000  0.5296390000000 1.0
C      1  0.4430530000000  0.4818500000000  0.4380080000000 1.0
C      1  0.4752180000000  0.4799720000000  0.4018650000000 1.0
C      1  0.5048500000000  0.4350680000000  0.4953380000000 1.0
C      1  0.4161630000000  0.5639940000000  0.5044810000000 1.0
C      1  0.4576590000000  0.4562460000000  0.5146820000000 1.0
C      1  0.4379880000000  0.5556190000000  0.4835970000000 1.0
C      1  0.5009430000000  0.4931690000000  0.4291890000000 1.0
C      1  0.4242900000000  0.4521690000000  0.4832230000000 1.0
C      1  0.4058000000000  0.5159140000000  0.4691360000000 1.0
C      1  0.4083840000000  0.5167410000000  0.4984370000000 1.0
C      1  0.5436800000000  0.4089980000000  0.5019190000000 1.0
C      1  0.4367410000000  0.4756730000000  0.5025840000000 1.0
C      1  0.5167930000000  0.4485510000000  0.5756700000000 1.0
C      1  0.4509370000000  0.4595170000000  0.5686880000000 1.0
C      1  0.4959490000000  0.5853410000000  0.4548590000000 1.0
C      1  0.4415330000000  0.5584790000000  0.5597620000000 1.0
C      1  0.4496140000000  0.5053430000000  0.4182500000000 1.0
C      1  0.4980540000000  0.4567020000000  0.5417180000000 1.0
C      1  0.4974490000000  0.4054760000000  0.5377380000000 1.0
C      1  0.4555550000000  0.5537920000000  0.4245780000000 1.0
C      1  0.5734710000000  0.4667490000000  0.5220610000000 1.0
C      1  0.4855750000000  0.5154000000000  0.5087890000000 1.0
C      1  0.4849680000000  0.4623590000000  0.4997690000000 1.0
C      1  0.4512080000000  0.5068500000000  0.5405220000000 1.0
C      1  0.5425640000000  0.5761830000000  0.5557650000000 1.0
C      1  0.5519790000000  0.4930220000000  0.5245860000000 1.0
C      1  0.5205350000000  0.4503560000000  0.4523140000000 1.0
C      1  0.4419610000000  0.5050820000000  0.5075960000000 1.0
C      1  0.4675010000000  0.4600060000000  0.4151680000000 1.0
C      1  0.5493300000000  0.4861240000000  0.4172230000000 1.0
C      1  0.5556650000000  0.5267460000000  0.5707850000000 1.0
C      1  0.5471770000000  0.5369920000000  0.4324140000000 1.0
C      1  0.3986680000000  0.5431790000000  0.5089230000000 1.0
C      1  0.5504040000000  0.4945290000000  0.5806020000000 1.0
C      1  0.5296440000000  0.4607130000000  0.5177830000000 1.0
C      1  0.6024020000000  0.4766020000000  0.5226160000000 1.0
C      1  0.5344380000000  0.4309700000000  0.5260300000000 1.0
C      1  0.4524250000000  0.5288670000000  0.5654520000000 1.0
C      1  0.4923870000000  0.3942200000000  0.5102820000000 1.0
C      1  0.5838660000000  0.4403080000000  0.4678520000000 1.0
C      1  0.4839320000000  0.5108030000000  0.5482300000000 1.0
C      1  0.5025660000000  0.5363220000000  0.4635470000000 1.0
C      1  0.4873300000000  0.5447660000000  0.5495360000000 1.0
C      1  0.4424920000000  0.5415820000000  0.5238810000000 1.0
C      1  0.4551600000000  0.4255340000000  0.5206940000000 1.0
C      1  0.5245040000000  0.5237010000000  0.5720620000000 1.0
C      1  0.5474640000000  0.4401290000000  0.5626900000000 1.0
C      1  0.5861330000000  0.5179400000000  0.5280280000000 1.0
C      1  0.4698260000000  0.5643340000000  0.5692560000000 1.0
C      1  0.5684900000000  0.5049040000000  0.4225020000000 1.0
C      1  0.4051820000000  0.4668150000000  0.5074140000000 1.0
C      1  0.4649750000000  0.5748670000000  0.4898750000000 1.0
C      1  0.5040040000000  0.5367240000000  0.5893490000000 1.0
C      1  0.4579420000000  0.5900860000000  0.5171920000000 1.0
C      1  0.5488890000000  0.4884820000000  0.4701380000000 1.0
C      1  0.5745340000000  0.5022450000000  0.5561190000000 1.0
C      1  0.4526730000000  0.5076070000000  0.4575270000000 1.0
C      1  0.4736120000000  0.5258430000000  0.5837310000000 1.0
C      1  0.5336440000000  0.5636410000000  0.4376730000000 1.0
C      1  0.5535830000000  0.5729870000000  0.5106580000000 1.0
C      1  0.5113090000000  0.5117790000000  0.4936840000000 1.0
C      1  0.5032920000000  0.5852060000000  0.4851280000000 1.0
C      1  0.5480400000000  0.4641690000000  0.4385120000000 1.0
C      1  0.5074900000000  0.5040270000000  0.4607860000000 1.0
C      1  0.5448460000000  0.5260040000000  0.5195400000000 1.0
END
