TITL C-2778426-5645-86 -0.000233049054898712 125000 -529.127180275445 0 0 91 (C1) n - 1
REM
REM in /home/nfs/bkarasulu/CARBON/AIRSS/Generating-Clusters/REBO/Only-C1/SD-CG/HFTN-CG
REM
REM
REM
REM
REM
REM ./C.cell (11c1c37f851c82e70ff6c80c92926a4b)
REM
REM compiler GCC version 9.2.1 20190827 (Red Hat 9.2.1-1)
REM options -cpp -mtune=generic -march=x86-64 -g -O0 -fpre-include=/usr/include/finclude/math-vector-fortran.h
REM seed -1816316734 2081707449 1146239081 -53569401 1162945753 -1400687915 1640572602 -604809164 -67829370 2143173101 -511098671 -1760740143 2026567504 -1187283546 -1391556767 794022338 -1734646477 326453069 875247386 -402796681 -1638893229 1214378701 -448598378 -1076621775 -754376979 84765941 -457491508 547671203 -484365749 80693903 1268108537 -117587153 234632150
REM
CELL 1.54180   50.00000   50.00000   50.00000   90.00000   90.00000   90.00000
LATT -1
SFAC C  
C      1  0.4469170000000  0.4925700000000  0.4101000000000 1.0
C      1  0.5382710000000  0.4706050000000  0.5193060000000 1.0
C      1  0.5361890000000  0.5806310000000  0.4163800000000 1.0
C      1  0.4875800000000  0.4461620000000  0.5444180000000 1.0
C      1  0.5080090000000  0.5517410000000  0.5352750000000 1.0
C      1  0.4326090000000  0.5131510000000  0.4769150000000 1.0
C      1  0.5775980000000  0.5292690000000  0.4750250000000 1.0
C      1  0.4965610000000  0.4735160000000  0.4548660000000 1.0
C      1  0.5173850000000  0.4586990000000  0.5409140000000 1.0
C      1  0.4987320000000  0.4400230000000  0.4613950000000 1.0
C      1  0.5399580000000  0.4134850000000  0.4710990000000 1.0
C      1  0.4504860000000  0.4775300000000  0.5123470000000 1.0
C      1  0.5599830000000  0.4837980000000  0.4811960000000 1.0
C      1  0.4393880000000  0.4716300000000  0.5611760000000 1.0
C      1  0.4333200000000  0.4635500000000  0.5348850000000 1.0
C      1  0.5679590000000  0.4807090000000  0.5563620000000 1.0
C      1  0.4751570000000  0.5730170000000  0.4968930000000 1.0
C      1  0.4987360000000  0.5041480000000  0.4702390000000 1.0
C      1  0.4434240000000  0.4711840000000  0.4262280000000 1.0
C      1  0.4538870000000  0.5251720000000  0.5479830000000 1.0
C      1  0.5300130000000  0.4323360000000  0.5267460000000 1.0
C      1  0.4125400000000  0.5309540000000  0.4933530000000 1.0
C      1  0.4265950000000  0.5386050000000  0.5427250000000 1.0
C      1  0.5413280000000  0.5245720000000  0.5599450000000 1.0
C      1  0.5267920000000  0.5567740000000  0.4217990000000 1.0
C      1  0.4825300000000  0.5632710000000  0.4701910000000 1.0
C      1  0.5103010000000  0.5113020000000  0.5546510000000 1.0
C      1  0.5327650000000  0.5645390000000  0.5243410000000 1.0
C      1  0.4983800000000  0.5335580000000  0.4630250000000 1.0
C      1  0.5166980000000  0.5311480000000  0.4276190000000 1.0
C      1  0.5427890000000  0.4928700000000  0.5686620000000 1.0
C      1  0.5112720000000  0.5076570000000  0.5001660000000 1.0
C      1  0.5090340000000  0.4201500000000  0.5106710000000 1.0
C      1  0.5375130000000  0.4874560000000  0.4251350000000 1.0
C      1  0.4811530000000  0.4656430000000  0.5195650000000 1.0
C      1  0.4688340000000  0.5428770000000  0.4491770000000 1.0
C      1  0.5157980000000  0.4789100000000  0.5638180000000 1.0
C      1  0.4792120000000  0.4495310000000  0.5730880000000 1.0
C      1  0.5230620000000  0.6060260000000  0.4992930000000 1.0
C      1  0.4319990000000  0.4394890000000  0.5179240000000 1.0
C      1  0.4554780000000  0.5082490000000  0.5008890000000 1.0
C      1  0.5797340000000  0.4895210000000  0.5048680000000 1.0
C      1  0.4996300000000  0.5603660000000  0.5899430000000 1.0
C      1  0.4878650000000  0.5278080000000  0.4250210000000 1.0
C      1  0.4680290000000  0.5255540000000  0.5210150000000 1.0
C      1  0.5580980000000  0.4343390000000  0.5318050000000 1.0
C      1  0.5053420000000  0.4760980000000  0.4978180000000 1.0
C      1  0.4725390000000  0.4258210000000  0.4503330000000 1.0
C      1  0.4612570000000  0.4370650000000  0.4766220000000 1.0
C      1  0.4794000000000  0.5153930000000  0.5684190000000 1.0
C      1  0.5803040000000  0.5140550000000  0.5202880000000 1.0
C      1  0.5360540000000  0.5119100000000  0.4387190000000 1.0
C      1  0.4970730000000  0.6174580000000  0.5017190000000 1.0
C      1  0.4636310000000  0.4723510000000  0.4517190000000 1.0
C      1  0.5443690000000  0.5648010000000  0.4770370000000 1.0
C      1  0.4945650000000  0.4708590000000  0.5838810000000 1.0
C      1  0.4770990000000  0.4611910000000  0.4874530000000 1.0
C      1  0.5145890000000  0.5635510000000  0.4635770000000 1.0
C      1  0.5439180000000  0.4976380000000  0.5206640000000 1.0
C      1  0.5322560000000  0.4456810000000  0.4631860000000 1.0
C      1  0.4329920000000  0.4608400000000  0.4563370000000 1.0
C      1  0.4751000000000  0.6008840000000  0.5011280000000 1.0
C      1  0.5470540000000  0.4573470000000  0.4365840000000 1.0
C      1  0.4828840000000  0.4257280000000  0.5212220000000 1.0
C      1  0.4997940000000  0.5204060000000  0.5247450000000 1.0
C      1  0.4513200000000  0.4513370000000  0.5771820000000 1.0
C      1  0.5476970000000  0.5497270000000  0.5030870000000 1.0
C      1  0.5407010000000  0.5188990000000  0.4961190000000 1.0
C      1  0.4581050000000  0.5153430000000  0.4227920000000 1.0
C      1  0.4129090000000  0.5390400000000  0.5192380000000 1.0
C      1  0.5124070000000  0.4175090000000  0.4827500000000 1.0
C      1  0.5286500000000  0.5923680000000  0.4749120000000 1.0
C      1  0.5344460000000  0.4636910000000  0.4876120000000 1.0
C      1  0.5699860000000  0.5111410000000  0.5470340000000 1.0
C      1  0.4807690000000  0.4934040000000  0.5922480000000 1.0
C      1  0.5761850000000  0.5360650000000  0.5026200000000 1.0
C      1  0.4509650000000  0.4967700000000  0.5638940000000 1.0
C      1  0.5148520000000  0.4664800000000  0.4311200000000 1.0
C      1  0.4584790000000  0.4277770000000  0.5077240000000 1.0
C      1  0.5034520000000  0.5564340000000  0.5650190000000 1.0
C      1  0.4650240000000  0.4120490000000  0.4298150000000 1.0
C      1  0.4700590000000  0.4920170000000  0.4777500000000 1.0
C      1  0.4437130000000  0.5232170000000  0.4505690000000 1.0
C      1  0.4321160000000  0.4810230000000  0.4837390000000 1.0
C      1  0.5428630000000  0.5506650000000  0.5684490000000 1.0
C      1  0.5687560000000  0.4616520000000  0.4596950000000 1.0
C      1  0.4809300000000  0.5545550000000  0.5174690000000 1.0
C      1  0.5330730000000  0.5919560000000  0.5221780000000 1.0
C      1  0.5515760000000  0.5116080000000  0.4653790000000 1.0
C      1  0.4305990000000  0.4469870000000  0.4866460000000 1.0
C      1  0.5705550000000  0.4551140000000  0.5450710000000 1.0
END
