TITL C-2778424-3986-168 -0.000862722764144142 125000 -806.631292128925 0 0 137 (C1) n - 1
REM
REM in /home/nfs/bkarasulu/CARBON/AIRSS/Generating-Clusters/REBO/Only-C1/SD-CG/HFTN-CG
REM
REM
REM
REM
REM
REM ./C.cell (11c1c37f851c82e70ff6c80c92926a4b)
REM
REM compiler GCC version 9.2.1 20190827 (Red Hat 9.2.1-1)
REM options -cpp -mtune=generic -march=x86-64 -g -O0 -fpre-include=/usr/include/finclude/math-vector-fortran.h
REM seed 1013077935 1265196938 1916451652 -486411697 407866620 1306420832 -1580561799 -1785299224 -1603185712 -110001323 -1691924367 -1505287523 -1980990529 601813141 -2141780556 -1593824663 147278656 -727021523 1648952737 -360601846 -721842987 1473191131 -659698640 -1174577222 -940803604 -1761651193 -115056904 404580308 -438532274 -1616034152 -1756123822 -1984924713 1599699729
REM
CELL 1.54180   50.00000   50.00000   50.00000   90.00000   90.00000   90.00000
LATT -1
SFAC C  
C      1  0.5815770000000  0.5360020000000  0.4932100000000 1.0
C      1  0.4962850000000  0.4483360000000  0.5493680000000 1.0
C      1  0.5913350000000  0.5282910000000  0.5352520000000 1.0
C      1  0.5186210000000  0.5159500000000  0.5981030000000 1.0
C      1  0.4721020000000  0.5435740000000  0.4895420000000 1.0
C      1  0.5044920000000  0.5130740000000  0.4671370000000 1.0
C      1  0.5835260000000  0.4677940000000  0.4467170000000 1.0
C      1  0.5455490000000  0.4902870000000  0.4748370000000 1.0
C      1  0.4106100000000  0.5501320000000  0.5579470000000 1.0
C      1  0.5651730000000  0.5484670000000  0.4660450000000 1.0
C      1  0.5806540000000  0.5880120000000  0.5150340000000 1.0
C      1  0.4980050000000  0.5452480000000  0.4336380000000 1.0
C      1  0.4427830000000  0.4870190000000  0.4871170000000 1.0
C      1  0.4481700000000  0.5404940000000  0.5213690000000 1.0
C      1  0.4820710000000  0.5020390000000  0.4904640000000 1.0
C      1  0.5233270000000  0.4435600000000  0.4185690000000 1.0
C      1  0.5750570000000  0.4634340000000  0.5517970000000 1.0
C      1  0.4452110000000  0.5348960000000  0.5703130000000 1.0
C      1  0.4701380000000  0.5207260000000  0.5527510000000 1.0
C      1  0.5413730000000  0.5853440000000  0.4942850000000 1.0
C      1  0.3974060000000  0.5177990000000  0.4925900000000 1.0
C      1  0.4920930000000  0.4739400000000  0.5028700000000 1.0
C      1  0.5441070000000  0.5210450000000  0.4149480000000 1.0
C      1  0.5471650000000  0.4166680000000  0.5270280000000 1.0
C      1  0.5085280000000  0.5324440000000  0.5367420000000 1.0
C      1  0.4833270000000  0.5465490000000  0.5677400000000 1.0
C      1  0.4176350000000  0.5335670000000  0.5358650000000 1.0
C      1  0.5281160000000  0.5061420000000  0.3968220000000 1.0
C      1  0.5296640000000  0.4543700000000  0.4663630000000 1.0
C      1  0.5669470000000  0.4660660000000  0.4743190000000 1.0
C      1  0.4687480000000  0.4518410000000  0.4674230000000 1.0
C      1  0.5259150000000  0.5702070000000  0.5621030000000 1.0
C      1  0.4942010000000  0.5921530000000  0.5202020000000 1.0
C      1  0.5472740000000  0.4126130000000  0.4984410000000 1.0
C      1  0.5503080000000  0.5345070000000  0.5044510000000 1.0
C      1  0.4353110000000  0.5643880000000  0.5661720000000 1.0
C      1  0.4354480000000  0.4656720000000  0.4340720000000 1.0
C      1  0.5296920000000  0.5419350000000  0.4304730000000 1.0
C      1  0.4904470000000  0.5673480000000  0.4504450000000 1.0
C      1  0.5478610000000  0.5648330000000  0.5421680000000 1.0
C      1  0.5260220000000  0.4740020000000  0.5804250000000 1.0
C      1  0.5633910000000  0.4409410000000  0.5382150000000 1.0
C      1  0.3990090000000  0.5389600000000  0.5115880000000 1.0
C      1  0.5629980000000  0.4842610000000  0.5101460000000 1.0
C      1  0.4231910000000  0.5594840000000  0.5070390000000 1.0
C      1  0.5471580000000  0.5627680000000  0.4466080000000 1.0
C      1  0.4780200000000  0.5102700000000  0.5232280000000 1.0
C      1  0.5681750000000  0.5880170000000  0.5370170000000 1.0
C      1  0.5931510000000  0.4800070000000  0.5366170000000 1.0
C      1  0.5029720000000  0.4323440000000  0.5017130000000 1.0
C      1  0.5951440000000  0.5045320000000  0.5218150000000 1.0
C      1  0.4707500000000  0.4940400000000  0.4594110000000 1.0
C      1  0.5335570000000  0.5600360000000  0.5134640000000 1.0
C      1  0.5619820000000  0.5066590000000  0.4313030000000 1.0
C      1  0.5628830000000  0.5308120000000  0.5784650000000 1.0
C      1  0.4846590000000  0.4728240000000  0.5348120000000 1.0
C      1  0.5017170000000  0.3992120000000  0.5104200000000 1.0
C      1  0.4966070000000  0.4214480000000  0.5429620000000 1.0
C      1  0.4505300000000  0.5811210000000  0.5477740000000 1.0
C      1  0.4771180000000  0.4493520000000  0.4939240000000 1.0
C      1  0.4560620000000  0.4393650000000  0.4276500000000 1.0
C      1  0.5197460000000  0.4719150000000  0.4321460000000 1.0
C      1  0.4415780000000  0.4522550000000  0.4624380000000 1.0
C      1  0.3936750000000  0.4917670000000  0.5028760000000 1.0
C      1  0.5175810000000  0.5082820000000  0.5590370000000 1.0
C      1  0.4403420000000  0.4909520000000  0.4533630000000 1.0
C      1  0.4798570000000  0.5713980000000  0.5512250000000 1.0
C      1  0.4922810000000  0.4777380000000  0.4443960000000 1.0
C      1  0.5611840000000  0.4343220000000  0.4797070000000 1.0
C      1  0.4649390000000  0.5866510000000  0.5177110000000 1.0
C      1  0.5350270000000  0.4213790000000  0.4615660000000 1.0
C      1  0.5298180000000  0.4779330000000  0.5143530000000 1.0
C      1  0.4590700000000  0.4138540000000  0.4743510000000 1.0
C      1  0.5830720000000  0.5030110000000  0.4900030000000 1.0
C      1  0.4358420000000  0.4796990000000  0.5645910000000 1.0
C      1  0.4775450000000  0.4617260000000  0.5902930000000 1.0
C      1  0.5710410000000  0.5686220000000  0.4921450000000 1.0
C      1  0.4295270000000  0.5181370000000  0.4428600000000 1.0
C      1  0.4570120000000  0.4849340000000  0.5179390000000 1.0
C      1  0.5439690000000  0.5097310000000  0.5805440000000 1.0
C      1  0.4925520000000  0.4201480000000  0.4716020000000 1.0
C      1  0.4429370000000  0.4288720000000  0.4948250000000 1.0
C      1  0.5529170000000  0.4972850000000  0.5399670000000 1.0
C      1  0.5198540000000  0.4194260000000  0.4339400000000 1.0
C      1  0.4585270000000  0.5720400000000  0.4934810000000 1.0
C      1  0.5314100000000  0.5830920000000  0.4628220000000 1.0
C      1  0.4930830000000  0.4064920000000  0.4341490000000 1.0
C      1  0.4627280000000  0.4734460000000  0.4163770000000 1.0
C      1  0.5072750000000  0.4597670000000  0.3963120000000 1.0
C      1  0.4313860000000  0.5710150000000  0.4810650000000 1.0
C      1  0.4537420000000  0.4565390000000  0.5744440000000 1.0
C      1  0.5814490000000  0.4983000000000  0.4563620000000 1.0
C      1  0.4813750000000  0.4976110000000  0.4104250000000 1.0
C      1  0.4711270000000  0.5007090000000  0.5871610000000 1.0
C      1  0.5661860000000  0.5402120000000  0.5497740000000 1.0
C      1  0.4877440000000  0.5265840000000  0.5935080000000 1.0
C      1  0.4279790000000  0.5513920000000  0.4601590000000 1.0
C      1  0.5248340000000  0.4782680000000  0.5465970000000 1.0
C      1  0.4258540000000  0.4569290000000  0.4887910000000 1.0
C      1  0.5140050000000  0.4821750000000  0.4781020000000 1.0
C      1  0.5139570000000  0.5457420000000  0.5814640000000 1.0
C      1  0.4209200000000  0.5218180000000  0.4745740000000 1.0
C      1  0.4998000000000  0.4874650000000  0.5974380000000 1.0
C      1  0.4535650000000  0.5412890000000  0.4416270000000 1.0
C      1  0.4741620000000  0.4114490000000  0.5262590000000 1.0
C      1  0.4803560000000  0.5497140000000  0.5279910000000 1.0
C      1  0.4840730000000  0.4488360000000  0.4143290000000 1.0
C      1  0.4618560000000  0.5566830000000  0.4203080000000 1.0
C      1  0.4835910000000  0.5232100000000  0.4224490000000 1.0
C      1  0.4107550000000  0.4723650000000  0.5111340000000 1.0
C      1  0.5191350000000  0.5575650000000  0.4765220000000 1.0
C      1  0.5254850000000  0.5327590000000  0.4616230000000 1.0
C      1  0.5021320000000  0.4539850000000  0.5760950000000 1.0
C      1  0.5419370000000  0.5263360000000  0.5331710000000 1.0
C      1  0.4744040000000  0.5278420000000  0.4610880000000 1.0
C      1  0.5056640000000  0.4886930000000  0.3965640000000 1.0
C      1  0.5566330000000  0.4811990000000  0.5701590000000 1.0
C      1  0.4312040000000  0.4749920000000  0.5335000000000 1.0
C      1  0.5114160000000  0.5041720000000  0.5193820000000 1.0
C      1  0.4654040000000  0.4143570000000  0.4429990000000 1.0
C      1  0.5058000000000  0.5870810000000  0.5490970000000 1.0
C      1  0.5193200000000  0.4016370000000  0.4824980000000 1.0
C      1  0.5542820000000  0.4506280000000  0.4427070000000 1.0
C      1  0.5079410000000  0.5915310000000  0.4948470000000 1.0
C      1  0.5221900000000  0.4070720000000  0.5366740000000 1.0
C      1  0.5496370000000  0.5196810000000  0.4759030000000 1.0
C      1  0.4923820000000  0.5864210000000  0.4706170000000 1.0
C      1  0.4515260000000  0.4275290000000  0.5226960000000 1.0
C      1  0.4474960000000  0.5202090000000  0.4940490000000 1.0
C      1  0.4915560000000  0.4441320000000  0.4472370000000 1.0
C      1  0.4451740000000  0.4467170000000  0.5440420000000 1.0
C      1  0.5583780000000  0.4507340000000  0.5094240000000 1.0
C      1  0.4428480000000  0.5043550000000  0.5768050000000 1.0
C      1  0.5019170000000  0.5528670000000  0.5030700000000 1.0
C      1  0.5267330000000  0.4501990000000  0.4984060000000 1.0
C      1  0.4883100000000  0.4940030000000  0.5582440000000 1.0
C      1  0.5466390000000  0.4828980000000  0.4442700000000 1.0
END
