TITL C-2778430-5657-1061 -0.00253847557327549 125000 -802.950671643289 0 0 138 (C1) n - 1
REM
REM in /home/nfs/bkarasulu/CARBON/AIRSS/Generating-Clusters/REBO/Only-C1/SD-CG/HFTN-CG
REM
REM
REM
REM
REM
REM ./C.cell (11c1c37f851c82e70ff6c80c92926a4b)
REM
REM compiler GCC version 9.2.1 20190827 (Red Hat 9.2.1-1)
REM options -cpp -mtune=generic -march=x86-64 -g -O0 -fpre-include=/usr/include/finclude/math-vector-fortran.h
REM seed -1509002052 -173429908 1349563947 -1957797652 -84691472 -477199801 392365788 -707556547 1786801982 928219819 860896048 1589319109 -1704237125 2089580796 547596826 -337534083 1965596981 407700623 -1682376939 -1375648955 1072432739 -1075236173 -1340088065 869872996 935895380 -1950799180 41016109 -1652366715 -1618425855 -766266815 -1303127705 1903300951 1092188224
REM
CELL 1.54180   50.00000   50.00000   50.00000   90.00000   90.00000   90.00000
LATT -1
SFAC C  
C      1  0.4724170000000  0.5149750000000  0.6037010000000 1.0
C      1  0.4563830000000  0.5879990000000  0.5532790000000 1.0
C      1  0.5472130000000  0.5504720000000  0.5599910000000 1.0
C      1  0.5094170000000  0.4367170000000  0.4399960000000 1.0
C      1  0.5042610000000  0.4636600000000  0.5148280000000 1.0
C      1  0.4687960000000  0.4363850000000  0.4326710000000 1.0
C      1  0.5360830000000  0.5519840000000  0.4356550000000 1.0
C      1  0.5767070000000  0.5296050000000  0.4760940000000 1.0
C      1  0.4354720000000  0.5689190000000  0.4973310000000 1.0
C      1  0.4846640000000  0.4247810000000  0.4111460000000 1.0
C      1  0.4479690000000  0.5157560000000  0.4689850000000 1.0
C      1  0.4437950000000  0.5974390000000  0.5104390000000 1.0
C      1  0.5337890000000  0.4521310000000  0.5816130000000 1.0
C      1  0.4248390000000  0.5579320000000  0.4681460000000 1.0
C      1  0.4281350000000  0.5313270000000  0.4509310000000 1.0
C      1  0.4596120000000  0.5425850000000  0.4155170000000 1.0
C      1  0.5155030000000  0.5287240000000  0.5496710000000 1.0
C      1  0.5343590000000  0.4908990000000  0.5723580000000 1.0
C      1  0.5120340000000  0.5407070000000  0.4157660000000 1.0
C      1  0.5488360000000  0.5144640000000  0.5004460000000 1.0
C      1  0.5182270000000  0.4629970000000  0.4341280000000 1.0
C      1  0.4981620000000  0.4807980000000  0.4232120000000 1.0
C      1  0.4364590000000  0.5262430000000  0.4237190000000 1.0
C      1  0.5644100000000  0.4250160000000  0.5399770000000 1.0
C      1  0.5826060000000  0.4959230000000  0.5470720000000 1.0
C      1  0.5607820000000  0.4612530000000  0.5749830000000 1.0
C      1  0.4290380000000  0.4987920000000  0.4178410000000 1.0
C      1  0.4751470000000  0.4842220000000  0.4436300000000 1.0
C      1  0.4166720000000  0.4907470000000  0.5269150000000 1.0
C      1  0.4519090000000  0.4518100000000  0.5181240000000 1.0
C      1  0.4977570000000  0.4801460000000  0.3908620000000 1.0
C      1  0.4181920000000  0.4885010000000  0.4797570000000 1.0
C      1  0.5821310000000  0.5066100000000  0.5008690000000 1.0
C      1  0.5459010000000  0.4622120000000  0.4164240000000 1.0
C      1  0.4532370000000  0.5097930000000  0.4952150000000 1.0
C      1  0.5306590000000  0.4206870000000  0.5395330000000 1.0
C      1  0.4610660000000  0.5156670000000  0.5544910000000 1.0
C      1  0.5369840000000  0.5197230000000  0.4440670000000 1.0
C      1  0.4565530000000  0.4626320000000  0.4331850000000 1.0
C      1  0.4360900000000  0.5348640000000  0.5677340000000 1.0
C      1  0.4113110000000  0.5447760000000  0.4965670000000 1.0
C      1  0.4889310000000  0.5869030000000  0.5559720000000 1.0
C      1  0.5214670000000  0.5531110000000  0.5807190000000 1.0
C      1  0.5223090000000  0.4862980000000  0.5467990000000 1.0
C      1  0.4550870000000  0.5604300000000  0.4553480000000 1.0
C      1  0.4968930000000  0.5154900000000  0.5721090000000 1.0
C      1  0.4102820000000  0.5142190000000  0.4822850000000 1.0
C      1  0.5262780000000  0.5899390000000  0.5157130000000 1.0
C      1  0.5922890000000  0.4298610000000  0.4950900000000 1.0
C      1  0.5084630000000  0.4095420000000  0.5161800000000 1.0
C      1  0.5458050000000  0.4298410000000  0.4248400000000 1.0
C      1  0.5840310000000  0.5453250000000  0.5048120000000 1.0
C      1  0.5109860000000  0.5628290000000  0.5496880000000 1.0
C      1  0.4939540000000  0.5872150000000  0.4624530000000 1.0
C      1  0.4540340000000  0.5049670000000  0.5857340000000 1.0
C      1  0.5174160000000  0.4365400000000  0.5628250000000 1.0
C      1  0.5655440000000  0.4952590000000  0.5741600000000 1.0
C      1  0.4986520000000  0.6004060000000  0.5291790000000 1.0
C      1  0.4896670000000  0.4433160000000  0.5597080000000 1.0
C      1  0.5777250000000  0.5224150000000  0.5294090000000 1.0
C      1  0.4391680000000  0.5461030000000  0.5296970000000 1.0
C      1  0.4761950000000  0.4596420000000  0.5783780000000 1.0
C      1  0.4926690000000  0.4854780000000  0.5831910000000 1.0
C      1  0.4062670000000  0.5216470000000  0.5212580000000 1.0
C      1  0.4251710000000  0.4675320000000  0.5726020000000 1.0
C      1  0.4592170000000  0.4632380000000  0.4876110000000 1.0
C      1  0.5298450000000  0.4872180000000  0.3998290000000 1.0
C      1  0.5222590000000  0.5526270000000  0.4730260000000 1.0
C      1  0.5198260000000  0.4759330000000  0.5955300000000 1.0
C      1  0.5662620000000  0.5290020000000  0.5740750000000 1.0
C      1  0.4736380000000  0.4338810000000  0.4849900000000 1.0
C      1  0.5168220000000  0.4143820000000  0.4160050000000 1.0
C      1  0.4126800000000  0.4199980000000  0.4541750000000 1.0
C      1  0.5343030000000  0.4483440000000  0.4686420000000 1.0
C      1  0.4190360000000  0.4413710000000  0.4698230000000 1.0
C      1  0.5368760000000  0.5623520000000  0.5291000000000 1.0
C      1  0.6002930000000  0.4817150000000  0.4878410000000 1.0
C      1  0.5093590000000  0.5106880000000  0.4136090000000 1.0
C      1  0.5149720000000  0.4203120000000  0.4687790000000 1.0
C      1  0.5788050000000  0.4676300000000  0.5076450000000 1.0
C      1  0.5398140000000  0.4760960000000  0.4542570000000 1.0
C      1  0.5759200000000  0.4401140000000  0.4379200000000 1.0
C      1  0.4902830000000  0.5670340000000  0.5832680000000 1.0
C      1  0.5082330000000  0.5359220000000  0.5202870000000 1.0
C      1  0.4018820000000  0.5198490000000  0.5550180000000 1.0
C      1  0.5548490000000  0.4961440000000  0.4736010000000 1.0
C      1  0.4964090000000  0.5369480000000  0.5974420000000 1.0
C      1  0.5477220000000  0.6102880000000  0.5093600000000 1.0
C      1  0.4760540000000  0.4969370000000  0.5359310000000 1.0
C      1  0.4385790000000  0.6013100000000  0.5373850000000 1.0
C      1  0.5220170000000  0.4016270000000  0.4926420000000 1.0
C      1  0.5788010000000  0.4189620000000  0.5161200000000 1.0
C      1  0.4945610000000  0.4819410000000  0.5505600000000 1.0
C      1  0.4156830000000  0.5493330000000  0.5483940000000 1.0
C      1  0.4677240000000  0.5342310000000  0.4536630000000 1.0
C      1  0.6001420000000  0.4497310000000  0.4790440000000 1.0
C      1  0.4215380000000  0.5075200000000  0.5785610000000 1.0
C      1  0.5838890000000  0.4696680000000  0.5354670000000 1.0
C      1  0.4989060000000  0.4042740000000  0.4434620000000 1.0
C      1  0.5400040000000  0.4328900000000  0.5097280000000 1.0
C      1  0.5312930000000  0.4596930000000  0.5068010000000 1.0
C      1  0.4670690000000  0.5860110000000  0.4568600000000 1.0
C      1  0.5543800000000  0.4246160000000  0.4574930000000 1.0
C      1  0.5016470000000  0.5855600000000  0.4926280000000 1.0
C      1  0.5076670000000  0.5660800000000  0.4456670000000 1.0
C      1  0.4764330000000  0.4245570000000  0.4590450000000 1.0
C      1  0.4801480000000  0.4478080000000  0.5315890000000 1.0
C      1  0.4851930000000  0.5535180000000  0.4231100000000 1.0
C      1  0.5039690000000  0.5020980000000  0.4833870000000 1.0
C      1  0.4972290000000  0.5528880000000  0.4963480000000 1.0
C      1  0.5481540000000  0.5254330000000  0.5387660000000 1.0
C      1  0.4762920000000  0.4846030000000  0.4744150000000 1.0
C      1  0.5499280000000  0.4153160000000  0.4872600000000 1.0
C      1  0.5865060000000  0.4996190000000  0.4623500000000 1.0
C      1  0.5342870000000  0.4994270000000  0.5257860000000 1.0
C      1  0.5730540000000  0.4491580000000  0.5526030000000 1.0
C      1  0.4296060000000  0.4379990000000  0.4963260000000 1.0
C      1  0.4173500000000  0.4686680000000  0.4591550000000 1.0
C      1  0.4862540000000  0.4261430000000  0.5096320000000 1.0
C      1  0.4753110000000  0.5997210000000  0.5064030000000 1.0
C      1  0.4647370000000  0.5596680000000  0.5397920000000 1.0
C      1  0.4384300000000  0.5218530000000  0.5144240000000 1.0
C      1  0.5529610000000  0.4749310000000  0.4979560000000 1.0
C      1  0.5530350000000  0.5410800000000  0.4631810000000 1.0
C      1  0.4488230000000  0.4598880000000  0.5829270000000 1.0
C      1  0.4143620000000  0.4793760000000  0.5510630000000 1.0
C      1  0.4787600000000  0.5429490000000  0.5620760000000 1.0
C      1  0.5123920000000  0.5108870000000  0.4580950000000 1.0
C      1  0.4301140000000  0.4740770000000  0.4332230000000 1.0
C      1  0.5675080000000  0.4785640000000  0.4346580000000 1.0
C      1  0.4872300000000  0.5154590000000  0.4394390000000 1.0
C      1  0.5913480000000  0.4671120000000  0.4518530000000 1.0
C      1  0.5351000000000  0.5415950000000  0.5021260000000 1.0
C      1  0.5475750000000  0.5011980000000  0.4238130000000 1.0
C      1  0.4327680000000  0.4768390000000  0.5047870000000 1.0
C      1  0.4791090000000  0.4973320000000  0.5061090000000 1.0
C      1  0.4680960000000  0.5661230000000  0.5070480000000 1.0
C      1  0.5658200000000  0.6274610000000  0.5039980000000 1.0
END
