TITL C-2778432-5617-1174 0.00415390933052105 125000 -243.761097876574 0 0 44 (C1) n - 1
REM
REM in /home/nfs/bkarasulu/CARBON/AIRSS/Generating-Clusters/REBO/Only-C1/SD-CG/HFTN-CG
REM
REM
REM
REM
REM
REM ./C.cell (11c1c37f851c82e70ff6c80c92926a4b)
REM
REM compiler GCC version 9.2.1 20190827 (Red Hat 9.2.1-1)
REM options -cpp -mtune=generic -march=x86-64 -g -O0 -fpre-include=/usr/include/finclude/math-vector-fortran.h
REM seed -166772478 -331558845 1961564949 -1712855446 -671123465 2019325466 -152689103 -196300325 857129550 1485207510 -2009110717 -728680992 -189894431 1014714716 -934741097 -688560761 -725499271 409845076 -1218735746 -906787168 -403424760 1703014899 -511613924 1570664693 212424812 -752668403 1060741346 -496992427 1068611482 1388766200 -1876762426 -1021928098 1557769065
REM
CELL 1.54180   50.00000   50.00000   50.00000   90.00000   90.00000   90.00000
LATT -1
SFAC C  
C      1  0.4983810000000  0.5163250000000  0.5219550000000 1.0
C      1  0.4373880000000  0.4959900000000  0.4382470000000 1.0
C      1  0.4622410000000  0.4610110000000  0.4587360000000 1.0
C      1  0.4893640000000  0.5541450000000  0.5620270000000 1.0
C      1  0.5624400000000  0.4965540000000  0.4758300000000 1.0
C      1  0.4894180000000  0.5090290000000  0.4185080000000 1.0
C      1  0.5202070000000  0.4754210000000  0.4512260000000 1.0
C      1  0.4281300000000  0.4818690000000  0.4592750000000 1.0
C      1  0.4773180000000  0.4648560000000  0.4818700000000 1.0
C      1  0.5238750000000  0.5069280000000  0.5130310000000 1.0
C      1  0.5308010000000  0.5189740000000  0.4849720000000 1.0
C      1  0.5374560000000  0.4990940000000  0.5631170000000 1.0
C      1  0.5481930000000  0.4624390000000  0.5359800000000 1.0
C      1  0.4310450000000  0.4697080000000  0.4831520000000 1.0
C      1  0.4662880000000  0.5479690000000  0.4649830000000 1.0
C      1  0.4767340000000  0.5331900000000  0.4370210000000 1.0
C      1  0.5594100000000  0.5041600000000  0.5031340000000 1.0
C      1  0.4986670000000  0.4950400000000  0.5928500000000 1.0
C      1  0.5281750000000  0.5679710000000  0.4906240000000 1.0
C      1  0.5456300000000  0.4938780000000  0.5324960000000 1.0
C      1  0.4976280000000  0.5478650000000  0.4576390000000 1.0
C      1  0.5373770000000  0.4991200000000  0.4603250000000 1.0
C      1  0.5139000000000  0.5447680000000  0.4834620000000 1.0
C      1  0.4964640000000  0.4827240000000  0.4323380000000 1.0
C      1  0.4652650000000  0.4655450000000  0.5647320000000 1.0
C      1  0.5090280000000  0.5387070000000  0.5740460000000 1.0
C      1  0.4903260000000  0.5025450000000  0.5452570000000 1.0
C      1  0.5557380000000  0.4570150000000  0.5632670000000 1.0
C      1  0.5084350000000  0.5084650000000  0.5696830000000 1.0
C      1  0.5492060000000  0.4792820000000  0.5790290000000 1.0
C      1  0.4764000000000  0.4783950000000  0.5428670000000 1.0
C      1  0.4448700000000  0.4618440000000  0.5048360000000 1.0
C      1  0.5030500000000  0.5154940000000  0.3954210000000 1.0
C      1  0.4897760000000  0.5365910000000  0.5044510000000 1.0
C      1  0.4644960000000  0.5437860000000  0.4930980000000 1.0
C      1  0.5365270000000  0.4555200000000  0.4389370000000 1.0
C      1  0.4707860000000  0.5687310000000  0.5506720000000 1.0
C      1  0.5069530000000  0.4557190000000  0.5062740000000 1.0
C      1  0.4745530000000  0.4660940000000  0.4346950000000 1.0
C      1  0.5295770000000  0.4484560000000  0.5205530000000 1.0
C      1  0.4563450000000  0.5099790000000  0.4263690000000 1.0
C      1  0.5291440000000  0.5493690000000  0.5897880000000 1.0
C      1  0.4755430000000  0.4644880000000  0.5159840000000 1.0
C      1  0.5074500000000  0.4649440000000  0.4772420000000 1.0
END
