TITL C-2778432-5617-1383 0.00256908466692473 125000 -694.21779631505 0 0 120 (C1) n - 1
REM
REM in /home/nfs/bkarasulu/CARBON/AIRSS/Generating-Clusters/REBO/Only-C1/SD-CG/HFTN-CG
REM
REM
REM
REM
REM
REM ./C.cell (11c1c37f851c82e70ff6c80c92926a4b)
REM
REM compiler GCC version 9.2.1 20190827 (Red Hat 9.2.1-1)
REM options -cpp -mtune=generic -march=x86-64 -g -O0 -fpre-include=/usr/include/finclude/math-vector-fortran.h
REM seed -556894764 -2017317109 2083157522 -1962852894 -246543099 517960405 -984370173 -217060072 -752400419 -51614392 651506055 -1008145811 1300554152 -906858214 1534454871 -1729958489 1589694258 -567563392 1134890479 997605477 -1641983755 -1302136641 940631832 1647902870 -93311382 -1315237498 1528791315 -461941590 744042534 1673220759 1418719375 332038827 -1314155849
REM
CELL 1.54180   50.00000   50.00000   50.00000   90.00000   90.00000   90.00000
LATT -1
SFAC C  
C      1  0.5227490000000  0.4568580000000  0.5020410000000 1.0
C      1  0.5681450000000  0.5273330000000  0.5684360000000 1.0
C      1  0.4267180000000  0.5219300000000  0.5383030000000 1.0
C      1  0.3987050000000  0.4740790000000  0.4900400000000 1.0
C      1  0.5588850000000  0.5493640000000  0.5369570000000 1.0
C      1  0.5272960000000  0.5694210000000  0.5505220000000 1.0
C      1  0.5014270000000  0.5565970000000  0.5166470000000 1.0
C      1  0.4531050000000  0.5240980000000  0.5557170000000 1.0
C      1  0.5368070000000  0.4718030000000  0.5260150000000 1.0
C      1  0.4748790000000  0.4459570000000  0.5048330000000 1.0
C      1  0.5767420000000  0.4707020000000  0.5481090000000 1.0
C      1  0.4363430000000  0.5085220000000  0.5006080000000 1.0
C      1  0.4950810000000  0.4065540000000  0.4633320000000 1.0
C      1  0.5280820000000  0.5319880000000  0.4274760000000 1.0
C      1  0.4476100000000  0.5633230000000  0.5168110000000 1.0
C      1  0.5737140000000  0.4937880000000  0.5323830000000 1.0
C      1  0.4699010000000  0.4441770000000  0.4575900000000 1.0
C      1  0.4475820000000  0.4938330000000  0.4335820000000 1.0
C      1  0.5438140000000  0.5007000000000  0.5182400000000 1.0
C      1  0.5943170000000  0.5446130000000  0.5191890000000 1.0
C      1  0.4816170000000  0.5788620000000  0.5688380000000 1.0
C      1  0.4907530000000  0.4284010000000  0.4471640000000 1.0
C      1  0.4980930000000  0.5338930000000  0.5312820000000 1.0
C      1  0.4959420000000  0.4881910000000  0.5555580000000 1.0
C      1  0.4932370000000  0.4103150000000  0.4910100000000 1.0
C      1  0.5859400000000  0.5000290000000  0.4553190000000 1.0
C      1  0.4521250000000  0.4221530000000  0.4991870000000 1.0
C      1  0.4625070000000  0.5133520000000  0.4794560000000 1.0
C      1  0.5397720000000  0.4266530000000  0.4545540000000 1.0
C      1  0.5547340000000  0.5550810000000  0.4629290000000 1.0
C      1  0.4701370000000  0.4244410000000  0.5483940000000 1.0
C      1  0.4932910000000  0.5516240000000  0.4260030000000 1.0
C      1  0.5091420000000  0.4698930000000  0.4773290000000 1.0
C      1  0.5781510000000  0.5729980000000  0.4567050000000 1.0
C      1  0.3993520000000  0.5125000000000  0.4242040000000 1.0
C      1  0.5467950000000  0.4980340000000  0.4178370000000 1.0
C      1  0.4926660000000  0.5490150000000  0.5803770000000 1.0
C      1  0.5301390000000  0.4357030000000  0.5632910000000 1.0
C      1  0.5150260000000  0.5063620000000  0.5985530000000 1.0
C      1  0.5548220000000  0.4486160000000  0.4383300000000 1.0
C      1  0.4235380000000  0.4451050000000  0.4623810000000 1.0
C      1  0.4208410000000  0.5357130000000  0.4635470000000 1.0
C      1  0.4679980000000  0.5149820000000  0.4158020000000 1.0
C      1  0.5508140000000  0.5481270000000  0.4943790000000 1.0
C      1  0.4885540000000  0.5194720000000  0.5887320000000 1.0
C      1  0.5848670000000  0.5069460000000  0.4870190000000 1.0
C      1  0.4820160000000  0.4636300000000  0.4103910000000 1.0
C      1  0.5110410000000  0.4226610000000  0.5402200000000 1.0
C      1  0.5159610000000  0.4406840000000  0.4345600000000 1.0
C      1  0.3958890000000  0.4877830000000  0.5140260000000 1.0
C      1  0.5387940000000  0.5238870000000  0.5820740000000 1.0
C      1  0.5362170000000  0.4106820000000  0.5116520000000 1.0
C      1  0.5251740000000  0.4587550000000  0.5856490000000 1.0
C      1  0.5008040000000  0.5398820000000  0.4630880000000 1.0
C      1  0.4947010000000  0.5835930000000  0.5236200000000 1.0
C      1  0.5563410000000  0.4371300000000  0.5182190000000 1.0
C      1  0.5008440000000  0.5832330000000  0.4794020000000 1.0
C      1  0.4709520000000  0.5213800000000  0.5294290000000 1.0
C      1  0.4209120000000  0.5460920000000  0.5141550000000 1.0
C      1  0.5282460000000  0.4648450000000  0.4533560000000 1.0
C      1  0.5316090000000  0.5553860000000  0.4423710000000 1.0
C      1  0.5384600000000  0.4898770000000  0.5797410000000 1.0
C      1  0.5723670000000  0.5135090000000  0.4309410000000 1.0
C      1  0.4737200000000  0.5824120000000  0.4880340000000 1.0
C      1  0.5259240000000  0.4782970000000  0.4014320000000 1.0
C      1  0.4561740000000  0.5765500000000  0.5463530000000 1.0
C      1  0.4197310000000  0.4720930000000  0.4711930000000 1.0
C      1  0.4674000000000  0.5054410000000  0.5775760000000 1.0
C      1  0.4469260000000  0.4304160000000  0.4681260000000 1.0
C      1  0.5428610000000  0.4109130000000  0.5451040000000 1.0
C      1  0.5375890000000  0.4666590000000  0.5548240000000 1.0
C      1  0.5230730000000  0.5490640000000  0.5709180000000 1.0
C      1  0.5199270000000  0.5117800000000  0.4015890000000 1.0
C      1  0.4639840000000  0.4775200000000  0.5492510000000 1.0
C      1  0.5773000000000  0.5343940000000  0.5014840000000 1.0
C      1  0.4421700000000  0.4515070000000  0.5133060000000 1.0
C      1  0.5029670000000  0.4365540000000  0.5125320000000 1.0
C      1  0.4368970000000  0.4692020000000  0.5383590000000 1.0
C      1  0.4400490000000  0.4924410000000  0.4645320000000 1.0
C      1  0.4062220000000  0.5173550000000  0.5107890000000 1.0
C      1  0.4746660000000  0.4789870000000  0.4315610000000 1.0
C      1  0.5481070000000  0.4886190000000  0.4500190000000 1.0
C      1  0.5462150000000  0.5206240000000  0.5430880000000 1.0
C      1  0.5555500000000  0.4577880000000  0.4920360000000 1.0
C      1  0.5276470000000  0.5298980000000  0.4780520000000 1.0
C      1  0.5045380000000  0.5875870000000  0.5500310000000 1.0
C      1  0.4705880000000  0.5511440000000  0.4516880000000 1.0
C      1  0.5523140000000  0.5215890000000  0.4574110000000 1.0
C      1  0.5094590000000  0.4565580000000  0.4090120000000 1.0
C      1  0.5008070000000  0.4792170000000  0.5868070000000 1.0
C      1  0.4514350000000  0.5330690000000  0.4345150000000 1.0
C      1  0.4550330000000  0.4800040000000  0.4998040000000 1.0
C      1  0.5821160000000  0.5515270000000  0.5558090000000 1.0
C      1  0.4168670000000  0.4893730000000  0.5366970000000 1.0
C      1  0.4957250000000  0.4878520000000  0.4514660000000 1.0
C      1  0.4697850000000  0.4715960000000  0.5806560000000 1.0
C      1  0.5685730000000  0.4457450000000  0.5405960000000 1.0
C      1  0.4577950000000  0.5342540000000  0.5055950000000 1.0
C      1  0.5155590000000  0.5099240000000  0.4411710000000 1.0
C      1  0.5230400000000  0.5828730000000  0.4956570000000 1.0
C      1  0.5398700000000  0.5672830000000  0.5189100000000 1.0
C      1  0.4731110000000  0.4913130000000  0.5229970000000 1.0
C      1  0.5177760000000  0.5061670000000  0.4969830000000 1.0
C      1  0.5944380000000  0.5015730000000  0.5164230000000 1.0
C      1  0.4615130000000  0.5513410000000  0.5667340000000 1.0
C      1  0.4679320000000  0.4415390000000  0.5660520000000 1.0
C      1  0.4562740000000  0.5646720000000  0.4748990000000 1.0
C      1  0.5045910000000  0.4953090000000  0.5230300000000 1.0
C      1  0.4925450000000  0.5273780000000  0.4100180000000 1.0
C      1  0.5423720000000  0.4277440000000  0.4828860000000 1.0
C      1  0.4928840000000  0.5106560000000  0.4741060000000 1.0
C      1  0.4311740000000  0.5524860000000  0.4822040000000 1.0
C      1  0.5051160000000  0.5712160000000  0.4512820000000 1.0
C      1  0.4776820000000  0.4653640000000  0.4790020000000 1.0
C      1  0.5669120000000  0.4801570000000  0.4760890000000 1.0
C      1  0.5166010000000  0.5141060000000  0.5473840000000 1.0
C      1  0.5055430000000  0.3973570000000  0.5184220000000 1.0
C      1  0.4649770000000  0.5912910000000  0.5171540000000 1.0
C      1  0.4227820000000  0.5169330000000  0.4380870000000 1.0
C      1  0.4740890000000  0.4101780000000  0.5223550000000 1.0
END
