TITL C-2778423-5760-789 0.00199767491185568 125000 -482.164156958182 0 0 86 (C1) n - 1
REM
REM in /home/nfs/bkarasulu/CARBON/AIRSS/Generating-Clusters/REBO/Only-C1/SD-CG/HFTN-CG
REM
REM
REM
REM
REM
REM ./C.cell (11c1c37f851c82e70ff6c80c92926a4b)
REM
REM compiler GCC version 9.2.1 20190827 (Red Hat 9.2.1-1)
REM options -cpp -mtune=generic -march=x86-64 -g -O0 -fpre-include=/usr/include/finclude/math-vector-fortran.h
REM seed 600917430 -1740946358 593161807 1649116790 -365006171 1933623883 -2060821091 -74152153 151434168 -1389737419 380316063 567561874 524302694 -974898160 -1661272030 443224267 -2008851651 -1233962559 2035526202 -1524956125 631810704 1645796747 137158037 -344213641 1657681928 -1095972565 261752222 1644342953 -992670507 -752512048 -477709082 1315034515 267379781
REM
CELL 1.54180   50.00000   50.00000   50.00000   90.00000   90.00000   90.00000
LATT -1
SFAC C  
C      1  0.5371690000000  0.4587900000000  0.5456910000000 1.0
C      1  0.4834660000000  0.4809770000000  0.4862910000000 1.0
C      1  0.4937860000000  0.4138690000000  0.5209410000000 1.0
C      1  0.5066730000000  0.5306200000000  0.4735570000000 1.0
C      1  0.5243200000000  0.5492510000000  0.5542880000000 1.0
C      1  0.4351400000000  0.4974620000000  0.4516020000000 1.0
C      1  0.4996530000000  0.5188040000000  0.5469380000000 1.0
C      1  0.5447170000000  0.4885500000000  0.5605540000000 1.0
C      1  0.5695860000000  0.4981890000000  0.4964710000000 1.0
C      1  0.4656620000000  0.4302610000000  0.5126470000000 1.0
C      1  0.5339080000000  0.5204150000000  0.5667730000000 1.0
C      1  0.4424990000000  0.4975230000000  0.5616520000000 1.0
C      1  0.4832060000000  0.5305460000000  0.5736530000000 1.0
C      1  0.5393770000000  0.5721540000000  0.5041680000000 1.0
C      1  0.4299640000000  0.4690440000000  0.4792180000000 1.0
C      1  0.4743630000000  0.4627540000000  0.4271580000000 1.0
C      1  0.5806920000000  0.4892530000000  0.5432120000000 1.0
C      1  0.5080020000000  0.4987150000000  0.5726560000000 1.0
C      1  0.5227250000000  0.4537160000000  0.5151410000000 1.0
C      1  0.4860750000000  0.5203450000000  0.4483550000000 1.0
C      1  0.5710150000000  0.5284840000000  0.4842870000000 1.0
C      1  0.4549010000000  0.5114750000000  0.4065420000000 1.0
C      1  0.4583740000000  0.4674970000000  0.5584920000000 1.0
C      1  0.4670270000000  0.5305710000000  0.4987860000000 1.0
C      1  0.5023750000000  0.4638600000000  0.4334820000000 1.0
C      1  0.4944410000000  0.5104100000000  0.4974930000000 1.0
C      1  0.5050980000000  0.5684320000000  0.4564170000000 1.0
C      1  0.5616390000000  0.5155010000000  0.5472500000000 1.0
C      1  0.4716670000000  0.5570690000000  0.5151880000000 1.0
C      1  0.4178520000000  0.4713680000000  0.5115610000000 1.0
C      1  0.5160210000000  0.3919280000000  0.4627520000000 1.0
C      1  0.5230150000000  0.4131700000000  0.4760540000000 1.0
C      1  0.5505870000000  0.4312870000000  0.4974920000000 1.0
C      1  0.5648190000000  0.5460210000000  0.4490520000000 1.0
C      1  0.5638900000000  0.5784200000000  0.4912980000000 1.0
C      1  0.4507380000000  0.5288170000000  0.5503830000000 1.0
C      1  0.5677920000000  0.4463670000000  0.5115830000000 1.0
C      1  0.4617870000000  0.4451690000000  0.5430200000000 1.0
C      1  0.5367560000000  0.5061200000000  0.4919840000000 1.0
C      1  0.5613520000000  0.5158820000000  0.4537440000000 1.0
C      1  0.5216690000000  0.4902150000000  0.4336850000000 1.0
C      1  0.5081920000000  0.4475300000000  0.5540810000000 1.0
C      1  0.4133470000000  0.4985930000000  0.4718090000000 1.0
C      1  0.4771630000000  0.4840020000000  0.5763210000000 1.0
C      1  0.5031610000000  0.4792580000000  0.5465160000000 1.0
C      1  0.4343650000000  0.4889090000000  0.5297700000000 1.0
C      1  0.4879820000000  0.4303360000000  0.5456580000000 1.0
C      1  0.5171190000000  0.4989670000000  0.4665190000000 1.0
C      1  0.5689280000000  0.4705400000000  0.5250690000000 1.0
C      1  0.4514250000000  0.5769770000000  0.5022520000000 1.0
C      1  0.4115940000000  0.5480460000000  0.4876770000000 1.0
C      1  0.5392160000000  0.4878160000000  0.5272960000000 1.0
C      1  0.5501450000000  0.4913160000000  0.4455070000000 1.0
C      1  0.5108030000000  0.5026350000000  0.5220590000000 1.0
C      1  0.5556560000000  0.4674010000000  0.4628510000000 1.0
C      1  0.4939100000000  0.4670250000000  0.5166930000000 1.0
C      1  0.4164850000000  0.5204250000000  0.4902880000000 1.0
C      1  0.5760530000000  0.4741200000000  0.4839890000000 1.0
C      1  0.5486130000000  0.5618870000000  0.4322830000000 1.0
C      1  0.4269870000000  0.5701660000000  0.4923210000000 1.0
C      1  0.4762940000000  0.4476990000000  0.4855210000000 1.0
C      1  0.5192330000000  0.4222220000000  0.5073030000000 1.0
C      1  0.5043490000000  0.5538520000000  0.5136870000000 1.0
C      1  0.4411430000000  0.5142480000000  0.5079660000000 1.0
C      1  0.4674910000000  0.4836970000000  0.5228280000000 1.0
C      1  0.5162890000000  0.5615980000000  0.4840060000000 1.0
C      1  0.4652080000000  0.5114640000000  0.5831330000000 1.0
C      1  0.5401890000000  0.5565410000000  0.5308670000000 1.0
C      1  0.4600750000000  0.5411890000000  0.4698590000000 1.0
C      1  0.4710970000000  0.5104840000000  0.5372850000000 1.0
C      1  0.5752220000000  0.5587200000000  0.4748690000000 1.0
C      1  0.4653240000000  0.4933470000000  0.4235660000000 1.0
C      1  0.4650080000000  0.5536320000000  0.5466240000000 1.0
C      1  0.4961070000000  0.5580720000000  0.5465610000000 1.0
C      1  0.5329190000000  0.4722480000000  0.4913400000000 1.0
C      1  0.4446430000000  0.4402380000000  0.4878510000000 1.0
C      1  0.5382530000000  0.4404940000000  0.4679170000000 1.0
C      1  0.5617840000000  0.5240720000000  0.5172000000000 1.0
C      1  0.5158160000000  0.4648560000000  0.4633710000000 1.0
C      1  0.4501740000000  0.4688750000000  0.4508060000000 1.0
C      1  0.5310850000000  0.5334020000000  0.5075610000000 1.0
C      1  0.4774490000000  0.4897620000000  0.4556860000000 1.0
C      1  0.4515040000000  0.5195480000000  0.4504180000000 1.0
C      1  0.5241100000000  0.5732580000000  0.4363270000000 1.0
C      1  0.4523810000000  0.4871710000000  0.4943100000000 1.0
C      1  0.4819160000000  0.5540630000000  0.4526700000000 1.0
END
