TITL C-2778433-5640-1267 -0.000821269547899954 125000 -221.967119041889 0 0 39 (C1) n - 1
REM
REM in /home/nfs/bkarasulu/CARBON/AIRSS/Generating-Clusters/REBO/Only-C1/SD-CG/HFTN-CG
REM
REM
REM
REM
REM
REM ./C.cell (11c1c37f851c82e70ff6c80c92926a4b)
REM
REM compiler GCC version 9.2.1 20190827 (Red Hat 9.2.1-1)
REM options -cpp -mtune=generic -march=x86-64 -g -O0 -fpre-include=/usr/include/finclude/math-vector-fortran.h
REM seed -2116656220 170171860 1652851032 -1194456290 -331433709 -575965231 -1117962692 -37104922 -843743675 -1773555937 -381664915 2123071452 1581948140 -21710628 -2093041986 795128624 -1955991399 -1835351421 583337029 -142707409 -1278393859 1670113931 -2034665360 321553348 1226988465 -355279610 -1966357209 859467535 651848595 -715556004 655835327 -21097562 -2105152211
REM
CELL 1.54180   50.00000   50.00000   50.00000   90.00000   90.00000   90.00000
LATT -1
SFAC C  
C      1  0.4959520000000  0.5183850000000  0.5363800000000 1.0
C      1  0.4545420000000  0.4639090000000  0.4962330000000 1.0
C      1  0.5285410000000  0.4509890000000  0.4938360000000 1.0
C      1  0.5071230000000  0.4378610000000  0.5488010000000 1.0
C      1  0.4662110000000  0.5267310000000  0.5409000000000 1.0
C      1  0.5730600000000  0.4884530000000  0.5351580000000 1.0
C      1  0.5529740000000  0.4834700000000  0.4428860000000 1.0
C      1  0.5077270000000  0.5627670000000  0.4879270000000 1.0
C      1  0.4954270000000  0.4671980000000  0.5487870000000 1.0
C      1  0.4540530000000  0.5006020000000  0.5521110000000 1.0
C      1  0.5628450000000  0.4687940000000  0.4639680000000 1.0
C      1  0.4532170000000  0.5436480000000  0.5225740000000 1.0
C      1  0.5715540000000  0.5423360000000  0.5167300000000 1.0
C      1  0.4294730000000  0.4889980000000  0.5397130000000 1.0
C      1  0.5744530000000  0.5151090000000  0.5187180000000 1.0
C      1  0.4345750000000  0.4624810000000  0.5194450000000 1.0
C      1  0.4872430000000  0.5205790000000  0.4348640000000 1.0
C      1  0.5256190000000  0.5032330000000  0.5000050000000 1.0
C      1  0.5295760000000  0.5138250000000  0.4709780000000 1.0
C      1  0.4580930000000  0.5243490000000  0.4755290000000 1.0
C      1  0.4310640000000  0.4930940000000  0.5061820000000 1.0
C      1  0.4839650000000  0.4921520000000  0.5495280000000 1.0
C      1  0.4767340000000  0.5345770000000  0.4570080000000 1.0
C      1  0.4058160000000  0.4907290000000  0.5540560000000 1.0
C      1  0.5107100000000  0.5084550000000  0.4277870000000 1.0
C      1  0.5538910000000  0.4661990000000  0.4896900000000 1.0
C      1  0.5535070000000  0.4911620000000  0.5073650000000 1.0
C      1  0.4813970000000  0.4750530000000  0.4811300000000 1.0
C      1  0.5325790000000  0.5031300000000  0.4448980000000 1.0
C      1  0.5229710000000  0.5518750000000  0.5090110000000 1.0
C      1  0.4917740000000  0.5565510000000  0.4669130000000 1.0
C      1  0.5060390000000  0.4795090000000  0.4988940000000 1.0
C      1  0.4493800000000  0.5422570000000  0.4956490000000 1.0
C      1  0.5155200000000  0.5254480000000  0.5180620000000 1.0
C      1  0.5115320000000  0.4566930000000  0.5211270000000 1.0
C      1  0.5500930000000  0.5588480000000  0.5133450000000 1.0
C      1  0.4545580000000  0.4958640000000  0.4830930000000 1.0
C      1  0.5135790000000  0.4411020000000  0.4691080000000 1.0
C      1  0.4926320000000  0.4535860000000  0.4616140000000 1.0
END
