TITL C-2778433-5640-725 -0.00368538629317755 125000 -691.677565022238 0 0 120 (C1) n - 1
REM
REM in /home/nfs/bkarasulu/CARBON/AIRSS/Generating-Clusters/REBO/Only-C1/SD-CG/HFTN-CG
REM
REM
REM
REM
REM
REM ./C.cell (11c1c37f851c82e70ff6c80c92926a4b)
REM
REM compiler GCC version 9.2.1 20190827 (Red Hat 9.2.1-1)
REM options -cpp -mtune=generic -march=x86-64 -g -O0 -fpre-include=/usr/include/finclude/math-vector-fortran.h
REM seed -1041015797 -1583016015 1860903976 1378362393 1999712964 -808428828 498392296 1566658941 804438471 -871129782 221725821 1922234072 1550814110 -890501640 94359779 226250551 -854954402 1485474804 1163885678 -1082445842 -622691002 -2118683960 -704608231 -470157266 1437748824 -1974225609 -60340007 443730673 -2055940338 705180373 -77199889 174541083 1720333333
REM
CELL 1.54180   50.00000   50.00000   50.00000   90.00000   90.00000   90.00000
LATT -1
SFAC C  
C      1  0.5070950000000  0.4814380000000  0.5116660000000 1.0
C      1  0.4711470000000  0.5773320000000  0.4800350000000 1.0
C      1  0.4947230000000  0.4787310000000  0.4577490000000 1.0
C      1  0.5410320000000  0.4600490000000  0.5322920000000 1.0
C      1  0.5331160000000  0.4675740000000  0.4139550000000 1.0
C      1  0.4735450000000  0.4908250000000  0.4365720000000 1.0
C      1  0.4330480000000  0.4805200000000  0.5029650000000 1.0
C      1  0.5886520000000  0.4736300000000  0.5054780000000 1.0
C      1  0.5466670000000  0.5339160000000  0.5362950000000 1.0
C      1  0.5327170000000  0.4957940000000  0.4329850000000 1.0
C      1  0.4710760000000  0.4704330000000  0.4097200000000 1.0
C      1  0.4492060000000  0.4306880000000  0.5105990000000 1.0
C      1  0.4421140000000  0.5189840000000  0.4344100000000 1.0
C      1  0.4637700000000  0.5448540000000  0.4854510000000 1.0
C      1  0.4525370000000  0.5034690000000  0.4947880000000 1.0
C      1  0.4963400000000  0.4214490000000  0.5474590000000 1.0
C      1  0.5282490000000  0.5674640000000  0.5247660000000 1.0
C      1  0.5502420000000  0.4839330000000  0.5094670000000 1.0
C      1  0.4168050000000  0.4885880000000  0.5269170000000 1.0
C      1  0.4014360000000  0.5160760000000  0.5169730000000 1.0
C      1  0.5469660000000  0.5357720000000  0.5759320000000 1.0
C      1  0.4948870000000  0.4312500000000  0.5174600000000 1.0
C      1  0.5146360000000  0.5318590000000  0.5445100000000 1.0
C      1  0.4828550000000  0.6061850000000  0.5680460000000 1.0
C      1  0.5129900000000  0.6042010000000  0.4858700000000 1.0
C      1  0.4708410000000  0.5474680000000  0.5621800000000 1.0
C      1  0.5789080000000  0.5413220000000  0.5332640000000 1.0
C      1  0.5041000000000  0.5082380000000  0.4080310000000 1.0
C      1  0.4916940000000  0.4910450000000  0.3942060000000 1.0
C      1  0.5827770000000  0.5419150000000  0.5044430000000 1.0
C      1  0.5285220000000  0.4816510000000  0.5551260000000 1.0
C      1  0.5242520000000  0.5185440000000  0.5831920000000 1.0
C      1  0.5339810000000  0.4117560000000  0.5028340000000 1.0
C      1  0.4704220000000  0.4917470000000  0.6033170000000 1.0
C      1  0.5808180000000  0.4907430000000  0.4846390000000 1.0
C      1  0.4223740000000  0.5251470000000  0.4593140000000 1.0
C      1  0.4635910000000  0.4676220000000  0.4810790000000 1.0
C      1  0.4566380000000  0.4623070000000  0.5657490000000 1.0
C      1  0.4025390000000  0.5269290000000  0.4870830000000 1.0
C      1  0.4459900000000  0.5630250000000  0.4642970000000 1.0
C      1  0.4762480000000  0.5005830000000  0.5500120000000 1.0
C      1  0.4975520000000  0.4481250000000  0.4524430000000 1.0
C      1  0.4224150000000  0.4284910000000  0.4718850000000 1.0
C      1  0.5275550000000  0.5498630000000  0.4953520000000 1.0
C      1  0.4850310000000  0.5241310000000  0.4700340000000 1.0
C      1  0.5355530000000  0.5687110000000  0.4364070000000 1.0
C      1  0.5343960000000  0.4328360000000  0.5494100000000 1.0
C      1  0.4766650000000  0.4749120000000  0.5337740000000 1.0
C      1  0.4565650000000  0.5014220000000  0.4101440000000 1.0
C      1  0.5665910000000  0.4999710000000  0.4366050000000 1.0
C      1  0.5565930000000  0.4390530000000  0.4691070000000 1.0
C      1  0.4834630000000  0.4449280000000  0.4211210000000 1.0
C      1  0.4331060000000  0.5415830000000  0.5504260000000 1.0
C      1  0.5742310000000  0.5533320000000  0.4733370000000 1.0
C      1  0.5133820000000  0.4387580000000  0.5708760000000 1.0
C      1  0.5174340000000  0.4446650000000  0.4184130000000 1.0
C      1  0.4009000000000  0.4785320000000  0.4649430000000 1.0
C      1  0.4822500000000  0.4922170000000  0.4939420000000 1.0
C      1  0.5130290000000  0.5537480000000  0.4414130000000 1.0
C      1  0.4245120000000  0.5521980000000  0.4862400000000 1.0
C      1  0.5559340000000  0.5780310000000  0.4581780000000 1.0
C      1  0.4559520000000  0.4610210000000  0.5132660000000 1.0
C      1  0.5386810000000  0.5983230000000  0.4794640000000 1.0
C      1  0.4355300000000  0.4829230000000  0.5551450000000 1.0
C      1  0.5608510000000  0.4791050000000  0.4107710000000 1.0
C      1  0.5339430000000  0.5195240000000  0.5019770000000 1.0
C      1  0.4477760000000  0.5136470000000  0.5636500000000 1.0
C      1  0.5226340000000  0.4924170000000  0.5931310000000 1.0
C      1  0.4253880000000  0.4218650000000  0.4984020000000 1.0
C      1  0.4897500000000  0.5417240000000  0.5153230000000 1.0
C      1  0.4986370000000  0.5686610000000  0.5151230000000 1.0
C      1  0.4930640000000  0.5240930000000  0.5692990000000 1.0
C      1  0.5391260000000  0.5607630000000  0.5563240000000 1.0
C      1  0.5747690000000  0.4539520000000  0.4547650000000 1.0
C      1  0.4709550000000  0.4440520000000  0.5462040000000 1.0
C      1  0.4836080000000  0.4156320000000  0.4747680000000 1.0
C      1  0.5738070000000  0.4559820000000  0.5374080000000 1.0
C      1  0.5744920000000  0.5278540000000  0.5638940000000 1.0
C      1  0.4228730000000  0.4679090000000  0.4766930000000 1.0
C      1  0.5170990000000  0.4496870000000  0.5109840000000 1.0
C      1  0.5218300000000  0.5032960000000  0.5297040000000 1.0
C      1  0.4164980000000  0.5116880000000  0.5517590000000 1.0
C      1  0.5874560000000  0.4862300000000  0.5370440000000 1.0
C      1  0.4758560000000  0.4715560000000  0.5845060000000 1.0
C      1  0.4690810000000  0.4323040000000  0.4495650000000 1.0
C      1  0.4919330000000  0.5871180000000  0.4948600000000 1.0
C      1  0.5143980000000  0.4144710000000  0.4747780000000 1.0
C      1  0.5798820000000  0.4419940000000  0.5105020000000 1.0
C      1  0.5379100000000  0.5121380000000  0.4614470000000 1.0
C      1  0.5165820000000  0.5354300000000  0.4663940000000 1.0
C      1  0.5594110000000  0.4265870000000  0.4964220000000 1.0
C      1  0.5615880000000  0.5060160000000  0.5274110000000 1.0
C      1  0.5774930000000  0.4995030000000  0.5634570000000 1.0
C      1  0.4517810000000  0.5305800000000  0.5108430000000 1.0
C      1  0.5654020000000  0.5180680000000  0.4897650000000 1.0
C      1  0.5553780000000  0.4861300000000  0.5722090000000 1.0
C      1  0.5676200000000  0.5261700000000  0.4569140000000 1.0
C      1  0.4555330000000  0.5582850000000  0.4363120000000 1.0
C      1  0.5503970000000  0.5694120000000  0.4901000000000 1.0
C      1  0.5060730000000  0.4683440000000  0.5770370000000 1.0
C      1  0.3962980000000  0.5050130000000  0.4631680000000 1.0
C      1  0.5061200000000  0.5638530000000  0.5538960000000 1.0
C      1  0.4457960000000  0.4485220000000  0.4610400000000 1.0
C      1  0.4745230000000  0.4209660000000  0.5011430000000 1.0
C      1  0.4534460000000  0.5127400000000  0.4643670000000 1.0
C      1  0.5790960000000  0.4814110000000  0.4583400000000 1.0
C      1  0.4711860000000  0.5302700000000  0.5362560000000 1.0
C      1  0.5236640000000  0.4276510000000  0.4447670000000 1.0
C      1  0.5411200000000  0.4869110000000  0.4818150000000 1.0
C      1  0.5271510000000  0.4439930000000  0.4805680000000 1.0
C      1  0.5014320000000  0.5189230000000  0.4991040000000 1.0
C      1  0.4636100000000  0.5344770000000  0.4138420000000 1.0
C      1  0.4794150000000  0.5171420000000  0.5989480000000 1.0
C      1  0.5139730000000  0.4729300000000  0.4791690000000 1.0
C      1  0.4229450000000  0.5407770000000  0.5184070000000 1.0
C      1  0.4468390000000  0.5692590000000  0.5599940000000 1.0
C      1  0.4878080000000  0.5530820000000  0.4289660000000 1.0
C      1  0.5257050000000  0.4106730000000  0.5307830000000 1.0
C      1  0.5027520000000  0.5067010000000  0.4409950000000 1.0
C      1  0.4793800000000  0.5796880000000  0.5616310000000 1.0
END
