TITL C-2778425-5191-1037 -0.00201782784068157 125000 -1067.33804542894 0 0 181 (C1) n - 1
REM
REM in /home/nfs/bkarasulu/CARBON/AIRSS/Generating-Clusters/REBO/Only-C1/SD-CG/HFTN-CG
REM
REM
REM
REM
REM
REM ./C.cell (11c1c37f851c82e70ff6c80c92926a4b)
REM
REM compiler GCC version 9.2.1 20190827 (Red Hat 9.2.1-1)
REM options -cpp -mtune=generic -march=x86-64 -g -O0 -fpre-include=/usr/include/finclude/math-vector-fortran.h
REM seed -1470772303 1646894572 1006150905 624892322 364865627 -748963960 -1831684098 1947334014 -436553673 81884606 -197739735 -1992819359 -1568136688 -1101820502 -1981908568 -1374627216 1290587552 304316035 -1195312203 -396322559 -1250233004 -528892058 1215155366 -1595328685 1867001139 -1146629315 1401941407 1089376274 -1509510099 -681789566 294823855 -328493283 1317378682
REM
CELL 1.54180   50.00000   50.00000   50.00000   90.00000   90.00000   90.00000
LATT -1
SFAC C  
C      1  0.5813760000000  0.5268320000000  0.5653140000000 1.0
C      1  0.5404060000000  0.5182850000000  0.4652940000000 1.0
C      1  0.5541860000000  0.5448460000000  0.4488710000000 1.0
C      1  0.5386630000000  0.4433430000000  0.3978690000000 1.0
C      1  0.4304420000000  0.5289000000000  0.4693750000000 1.0
C      1  0.5712380000000  0.5819020000000  0.4757480000000 1.0
C      1  0.5801000000000  0.4601600000000  0.5275700000000 1.0
C      1  0.5493340000000  0.4634100000000  0.4127110000000 1.0
C      1  0.4608420000000  0.4993100000000  0.6036760000000 1.0
C      1  0.4533400000000  0.4975310000000  0.4186490000000 1.0
C      1  0.3876550000000  0.5220180000000  0.5128140000000 1.0
C      1  0.5070110000000  0.5529550000000  0.4584360000000 1.0
C      1  0.5216090000000  0.4239030000000  0.5829120000000 1.0
C      1  0.4069550000000  0.4515960000000  0.4685980000000 1.0
C      1  0.4705910000000  0.4982110000000  0.4886870000000 1.0
C      1  0.5314100000000  0.4935010000000  0.5300540000000 1.0
C      1  0.4882180000000  0.4636790000000  0.5871620000000 1.0
C      1  0.5235280000000  0.4212020000000  0.4654930000000 1.0
C      1  0.4893230000000  0.5065260000000  0.4044090000000 1.0
C      1  0.4541900000000  0.5666910000000  0.5227490000000 1.0
C      1  0.5353480000000  0.5221600000000  0.5184870000000 1.0
C      1  0.3927830000000  0.5050380000000  0.5413620000000 1.0
C      1  0.4876660000000  0.5933250000000  0.4873600000000 1.0
C      1  0.5613300000000  0.5051160000000  0.5066670000000 1.0
C      1  0.5093650000000  0.4933530000000  0.4524180000000 1.0
C      1  0.5136380000000  0.4527250000000  0.4627490000000 1.0
C      1  0.4680990000000  0.4688890000000  0.4991870000000 1.0
C      1  0.4701190000000  0.4731450000000  0.5310590000000 1.0
C      1  0.4472830000000  0.4458950000000  0.5131350000000 1.0
C      1  0.4446410000000  0.4589390000000  0.5427750000000 1.0
C      1  0.5105390000000  0.4235890000000  0.5557090000000 1.0
C      1  0.4363230000000  0.5532970000000  0.5003450000000 1.0
C      1  0.5704290000000  0.4566460000000  0.4887030000000 1.0
C      1  0.4021950000000  0.4586100000000  0.4952880000000 1.0
C      1  0.4382180000000  0.4153630000000  0.4890780000000 1.0
C      1  0.4728110000000  0.4268780000000  0.4539760000000 1.0
C      1  0.6180620000000  0.5142050000000  0.4870210000000 1.0
C      1  0.6115340000000  0.4714200000000  0.4452630000000 1.0
C      1  0.4837740000000  0.4505580000000  0.4034770000000 1.0
C      1  0.4883950000000  0.4891930000000  0.6016580000000 1.0
C      1  0.5349180000000  0.4731820000000  0.5967800000000 1.0
C      1  0.4463990000000  0.5305010000000  0.4195150000000 1.0
C      1  0.4492170000000  0.5011600000000  0.4643590000000 1.0
C      1  0.4364580000000  0.4307450000000  0.4381890000000 1.0
C      1  0.5254370000000  0.4573070000000  0.5141130000000 1.0
C      1  0.4197990000000  0.5459110000000  0.5429490000000 1.0
C      1  0.4169550000000  0.4418880000000  0.5147610000000 1.0
C      1  0.5317170000000  0.5986600000000  0.4537250000000 1.0
C      1  0.5129470000000  0.6079060000000  0.5287210000000 1.0
C      1  0.4878310000000  0.5603400000000  0.4073220000000 1.0
C      1  0.4839620000000  0.5994910000000  0.5306850000000 1.0
C      1  0.5670250000000  0.4380970000000  0.5709410000000 1.0
C      1  0.5241060000000  0.5659110000000  0.4752300000000 1.0
C      1  0.4558470000000  0.5283490000000  0.4922660000000 1.0
C      1  0.5652960000000  0.5059680000000  0.4179100000000 1.0
C      1  0.5106070000000  0.4940820000000  0.5486860000000 1.0
C      1  0.4468710000000  0.4814180000000  0.5836360000000 1.0
C      1  0.5915230000000  0.4520170000000  0.4418240000000 1.0
C      1  0.5871550000000  0.4989740000000  0.5246670000000 1.0
C      1  0.5636390000000  0.5674380000000  0.5649090000000 1.0
C      1  0.5770650000000  0.5340580000000  0.4677340000000 1.0
C      1  0.5000570000000  0.4996270000000  0.4834270000000 1.0
C      1  0.4822020000000  0.5675470000000  0.5067650000000 1.0
C      1  0.5952940000000  0.4748680000000  0.5016060000000 1.0
C      1  0.4590150000000  0.5345150000000  0.5731190000000 1.0
C      1  0.4160560000000  0.4437730000000  0.5662100000000 1.0
C      1  0.5786540000000  0.4809390000000  0.4657470000000 1.0
C      1  0.4780760000000  0.4874340000000  0.3868660000000 1.0
C      1  0.5335810000000  0.5364870000000  0.5479290000000 1.0
C      1  0.4006750000000  0.4909010000000  0.4658820000000 1.0
C      1  0.4276170000000  0.5383730000000  0.5859840000000 1.0
C      1  0.4556870000000  0.4678550000000  0.4020580000000 1.0
C      1  0.5154560000000  0.4720820000000  0.4872180000000 1.0
C      1  0.4584440000000  0.4129290000000  0.5439550000000 1.0
C      1  0.4937650000000  0.4693810000000  0.5480380000000 1.0
C      1  0.4722530000000  0.4532370000000  0.4708170000000 1.0
C      1  0.5299650000000  0.4349720000000  0.5379300000000 1.0
C      1  0.5446190000000  0.4687260000000  0.5584960000000 1.0
C      1  0.4346610000000  0.5687970000000  0.4743310000000 1.0
C      1  0.5123610000000  0.4333540000000  0.3981980000000 1.0
C      1  0.4911330000000  0.4130700000000  0.5119780000000 1.0
C      1  0.5158760000000  0.5962030000000  0.4814860000000 1.0
C      1  0.4356930000000  0.5715330000000  0.5509700000000 1.0
C      1  0.5156300000000  0.5909340000000  0.5789960000000 1.0
C      1  0.4729260000000  0.5932130000000  0.4598190000000 1.0
C      1  0.5592500000000  0.5748800000000  0.5243670000000 1.0
C      1  0.4290370000000  0.4985460000000  0.4390280000000 1.0
C      1  0.4095090000000  0.4643410000000  0.5833870000000 1.0
C      1  0.6145740000000  0.5125440000000  0.5145150000000 1.0
C      1  0.4101660000000  0.4714220000000  0.4417200000000 1.0
C      1  0.5092610000000  0.4024560000000  0.4474410000000 1.0
C      1  0.4454470000000  0.5226370000000  0.6087590000000 1.0
C      1  0.4747250000000  0.5345990000000  0.4448110000000 1.0
C      1  0.5115020000000  0.5720020000000  0.4106190000000 1.0
C      1  0.4841590000000  0.4915480000000  0.4333340000000 1.0
C      1  0.4771410000000  0.5323330000000  0.4050210000000 1.0
C      1  0.4573940000000  0.5623230000000  0.4221760000000 1.0
C      1  0.5571310000000  0.4276570000000  0.5438860000000 1.0
C      1  0.5018750000000  0.5240790000000  0.4518820000000 1.0
C      1  0.5562380000000  0.5941960000000  0.5037510000000 1.0
C      1  0.4590940000000  0.4056090000000  0.4667980000000 1.0
C      1  0.5812180000000  0.5004740000000  0.5544440000000 1.0
C      1  0.5815110000000  0.5511710000000  0.5505320000000 1.0
C      1  0.5091220000000  0.4504370000000  0.4341870000000 1.0
C      1  0.4662460000000  0.3804820000000  0.5049630000000 1.0
C      1  0.5515740000000  0.5775010000000  0.4479920000000 1.0
C      1  0.3987150000000  0.4756950000000  0.5250490000000 1.0
C      1  0.5168450000000  0.4079880000000  0.5024300000000 1.0
C      1  0.5521350000000  0.5015730000000  0.5950940000000 1.0
C      1  0.5157030000000  0.4614290000000  0.5708740000000 1.0
C      1  0.5044270000000  0.4201450000000  0.4253240000000 1.0
C      1  0.4821690000000  0.5768230000000  0.5492890000000 1.0
C      1  0.4872250000000  0.4145880000000  0.5411650000000 1.0
C      1  0.5509610000000  0.4677110000000  0.5287030000000 1.0
C      1  0.5632010000000  0.4849440000000  0.5709720000000 1.0
C      1  0.5124870000000  0.5186910000000  0.5678880000000 1.0
C      1  0.4363990000000  0.5215220000000  0.5265340000000 1.0
C      1  0.4620290000000  0.4573580000000  0.5791290000000 1.0
C      1  0.4974620000000  0.3801670000000  0.4606410000000 1.0
C      1  0.4965120000000  0.5471650000000  0.5583310000000 1.0
C      1  0.5481090000000  0.4808450000000  0.4910610000000 1.0
C      1  0.4243590000000  0.4812940000000  0.5471830000000 1.0
C      1  0.5886990000000  0.4505880000000  0.5523230000000 1.0
C      1  0.4487940000000  0.4018390000000  0.5184240000000 1.0
C      1  0.5384870000000  0.5495630000000  0.5792090000000 1.0
C      1  0.5749240000000  0.4208630000000  0.5229250000000 1.0
C      1  0.5303530000000  0.6064020000000  0.5049860000000 1.0
C      1  0.4842280000000  0.5515270000000  0.5887130000000 1.0
C      1  0.4445750000000  0.5054120000000  0.5619090000000 1.0
C      1  0.4614910000000  0.5733470000000  0.5927730000000 1.0
C      1  0.5302000000000  0.5192120000000  0.3920260000000 1.0
C      1  0.4366280000000  0.5498160000000  0.4461160000000 1.0
C      1  0.4705440000000  0.4291470000000  0.4969050000000 1.0
C      1  0.6107580000000  0.4865670000000  0.4744050000000 1.0
C      1  0.5365220000000  0.4918910000000  0.4064080000000 1.0
C      1  0.5698170000000  0.5081510000000  0.4502100000000 1.0
C      1  0.4664370000000  0.4321460000000  0.4247200000000 1.0
C      1  0.4489330000000  0.5934420000000  0.4783050000000 1.0
C      1  0.4067930000000  0.5257710000000  0.5651530000000 1.0
C      1  0.5242120000000  0.5940810000000  0.5522580000000 1.0
C      1  0.5819410000000  0.5538800000000  0.5192420000000 1.0
C      1  0.4744470000000  0.3839460000000  0.4771480000000 1.0
C      1  0.5144940000000  0.5650920000000  0.5890120000000 1.0
C      1  0.4085630000000  0.5472450000000  0.5137660000000 1.0
C      1  0.5945390000000  0.5620830000000  0.4899690000000 1.0
C      1  0.5154050000000  0.5013670000000  0.5950570000000 1.0
C      1  0.4043600000000  0.4936390000000  0.5714170000000 1.0
C      1  0.5312210000000  0.4360850000000  0.4942820000000 1.0
C      1  0.4613220000000  0.4740880000000  0.4498600000000 1.0
C      1  0.5102180000000  0.4708940000000  0.4114540000000 1.0
C      1  0.5395350000000  0.4844120000000  0.4582360000000 1.0
C      1  0.5197380000000  0.5249370000000  0.4903860000000 1.0
C      1  0.4382020000000  0.5680170000000  0.5795900000000 1.0
C      1  0.5932720000000  0.4970940000000  0.4071980000000 1.0
C      1  0.5611870000000  0.5366440000000  0.4196320000000 1.0
C      1  0.4594580000000  0.5408590000000  0.5424150000000 1.0
C      1  0.5336750000000  0.5680150000000  0.5386020000000 1.0
C      1  0.4631620000000  0.5022820000000  0.5341130000000 1.0
C      1  0.5447450000000  0.4416000000000  0.5893530000000 1.0
C      1  0.4237810000000  0.4288320000000  0.4638950000000 1.0
C      1  0.5053210000000  0.5539990000000  0.5263050000000 1.0
C      1  0.6073580000000  0.5377590000000  0.4753840000000 1.0
C      1  0.5493420000000  0.5592140000000  0.4857010000000 1.0
C      1  0.5607250000000  0.4653720000000  0.4406480000000 1.0
C      1  0.5616640000000  0.5285600000000  0.5871640000000 1.0
C      1  0.6143940000000  0.4878000000000  0.4221310000000 1.0
C      1  0.4466300000000  0.4344160000000  0.5635140000000 1.0
C      1  0.5329090000000  0.5438050000000  0.3926760000000 1.0
C      1  0.5432680000000  0.5656270000000  0.4169190000000 1.0
C      1  0.4399070000000  0.4615300000000  0.4295970000000 1.0
C      1  0.5698220000000  0.4269240000000  0.4966210000000 1.0
C      1  0.5665230000000  0.5344660000000  0.4970450000000 1.0
C      1  0.4629490000000  0.6025180000000  0.5079450000000 1.0
C      1  0.4028620000000  0.5336080000000  0.4835670000000 1.0
C      1  0.4170770000000  0.5076810000000  0.5099730000000 1.0
C      1  0.4171180000000  0.4946440000000  0.4869250000000 1.0
C      1  0.5467320000000  0.4074230000000  0.4852880000000 1.0
C      1  0.4044540000000  0.4458980000000  0.5412650000000 1.0
C      1  0.4796430000000  0.5685190000000  0.4455290000000 1.0
C      1  0.4844440000000  0.5266950000000  0.5265270000000 1.0
C      1  0.4888530000000  0.5362900000000  0.4947450000000 1.0
END
