TITL C-2778427-5640-21 -0.000487311412741758 125000 -591.65721331229 0 0 101 (C1) n - 1
REM
REM in /home/nfs/bkarasulu/CARBON/AIRSS/Generating-Clusters/REBO/Only-C1/SD-CG/HFTN-CG
REM
REM
REM
REM
REM
REM ./C.cell (11c1c37f851c82e70ff6c80c92926a4b)
REM
REM compiler GCC version 9.2.1 20190827 (Red Hat 9.2.1-1)
REM options -cpp -mtune=generic -march=x86-64 -g -O0 -fpre-include=/usr/include/finclude/math-vector-fortran.h
REM seed -165778313 1064534413 1987517540 -1598849683 1608670554 -1046514667 1398279970 -1910385126 833231444 1432748825 1082501785 1120422205 579453395 198333973 715664548 -1959621734 -975132280 473716868 -1498230548 1306417600 -699915171 -1611731932 -738484155 -588334512 208725619 -1148515115 955790899 478425023 1641298109 -1096049124 2067602369 826496269 392677575
REM
CELL 1.54180   50.00000   50.00000   50.00000   90.00000   90.00000   90.00000
LATT -1
SFAC C  
C      1  0.4785230000000  0.4985470000000  0.4282210000000 1.0
C      1  0.5562400000000  0.5413180000000  0.4788070000000 1.0
C      1  0.5435030000000  0.4868900000000  0.5282320000000 1.0
C      1  0.4930970000000  0.5769080000000  0.4304980000000 1.0
C      1  0.4233280000000  0.5383940000000  0.5574300000000 1.0
C      1  0.4836400000000  0.5275360000000  0.4224580000000 1.0
C      1  0.5731160000000  0.4738520000000  0.5372780000000 1.0
C      1  0.5043810000000  0.4558750000000  0.4441560000000 1.0
C      1  0.4381090000000  0.5319980000000  0.4959980000000 1.0
C      1  0.4659360000000  0.4623500000000  0.5578400000000 1.0
C      1  0.4968740000000  0.5622040000000  0.5188980000000 1.0
C      1  0.5138310000000  0.4493170000000  0.5588570000000 1.0
C      1  0.5064140000000  0.4814440000000  0.4273520000000 1.0
C      1  0.5644880000000  0.4482430000000  0.4945010000000 1.0
C      1  0.5695550000000  0.5015870000000  0.4946270000000 1.0
C      1  0.5218160000000  0.5832050000000  0.5222710000000 1.0
C      1  0.4480100000000  0.5618030000000  0.5081370000000 1.0
C      1  0.5715600000000  0.4426290000000  0.5409820000000 1.0
C      1  0.5092500000000  0.5301800000000  0.4088390000000 1.0
C      1  0.4823570000000  0.5079180000000  0.5088550000000 1.0
C      1  0.4820560000000  0.4130950000000  0.5022090000000 1.0
C      1  0.4577840000000  0.4320000000000  0.4573570000000 1.0
C      1  0.4041820000000  0.4707810000000  0.5000580000000 1.0
C      1  0.5469960000000  0.4790650000000  0.4633650000000 1.0
C      1  0.5208910000000  0.5140280000000  0.5684350000000 1.0
C      1  0.5384930000000  0.4126050000000  0.5191020000000 1.0
C      1  0.5179650000000  0.4614150000000  0.5112450000000 1.0
C      1  0.4512830000000  0.4979350000000  0.5187300000000 1.0
C      1  0.4555380000000  0.4855880000000  0.4409220000000 1.0
C      1  0.4180630000000  0.5099300000000  0.4972720000000 1.0
C      1  0.5295890000000  0.5947580000000  0.4699870000000 1.0
C      1  0.4238190000000  0.4641450000000  0.4738190000000 1.0
C      1  0.5665720000000  0.4963290000000  0.5592770000000 1.0
C      1  0.5260520000000  0.4910850000000  0.5487160000000 1.0
C      1  0.4853360000000  0.4285250000000  0.4497480000000 1.0
C      1  0.5337470000000  0.4846280000000  0.5000830000000 1.0
C      1  0.4709500000000  0.4760410000000  0.5300530000000 1.0
C      1  0.4510810000000  0.4194790000000  0.4886980000000 1.0
C      1  0.5473570000000  0.4480640000000  0.4384780000000 1.0
C      1  0.5196050000000  0.4750630000000  0.5773210000000 1.0
C      1  0.4394250000000  0.5054560000000  0.4547240000000 1.0
C      1  0.5398170000000  0.4786820000000  0.4313730000000 1.0
C      1  0.4770770000000  0.5160840000000  0.5651350000000 1.0
C      1  0.5290800000000  0.5503240000000  0.4510380000000 1.0
C      1  0.4945580000000  0.5342680000000  0.5472100000000 1.0
C      1  0.5550860000000  0.5085150000000  0.4382010000000 1.0
C      1  0.4877300000000  0.5849220000000  0.4865900000000 1.0
C      1  0.4893950000000  0.4908710000000  0.4828190000000 1.0
C      1  0.4553440000000  0.5373210000000  0.5530460000000 1.0
C      1  0.5223990000000  0.5626540000000  0.5496450000000 1.0
C      1  0.4797840000000  0.4214450000000  0.5345560000000 1.0
C      1  0.4871600000000  0.4400170000000  0.5556940000000 1.0
C      1  0.4226860000000  0.4839240000000  0.5461380000000 1.0
C      1  0.5612870000000  0.5203460000000  0.5160170000000 1.0
C      1  0.5291380000000  0.4482890000000  0.5344860000000 1.0
C      1  0.5160980000000  0.5078170000000  0.4436450000000 1.0
C      1  0.5360270000000  0.5375230000000  0.5567100000000 1.0
C      1  0.4466640000000  0.4581800000000  0.4513370000000 1.0
C      1  0.4363180000000  0.4698630000000  0.5112830000000 1.0
C      1  0.5506000000000  0.4870880000000  0.5799630000000 1.0
C      1  0.4752160000000  0.5544610000000  0.4337240000000 1.0
C      1  0.5480460000000  0.5668500000000  0.5196350000000 1.0
C      1  0.4706860000000  0.5366080000000  0.5031400000000 1.0
C      1  0.5265710000000  0.5034760000000  0.4754280000000 1.0
C      1  0.4928190000000  0.5640820000000  0.5582730000000 1.0
C      1  0.4510870000000  0.4282620000000  0.5218550000000 1.0
C      1  0.5168740000000  0.5793450000000  0.4457540000000 1.0
C      1  0.5735950000000  0.4749280000000  0.4650850000000 1.0
C      1  0.4554730000000  0.5275250000000  0.4674790000000 1.0
C      1  0.4350400000000  0.4897720000000  0.5758440000000 1.0
C      1  0.4961260000000  0.4968520000000  0.5844950000000 1.0
C      1  0.5649650000000  0.5143890000000  0.4666270000000 1.0
C      1  0.5597140000000  0.5210700000000  0.5453040000000 1.0
C      1  0.4825350000000  0.4433540000000  0.4866270000000 1.0
C      1  0.4354920000000  0.5146070000000  0.5391780000000 1.0
C      1  0.4676020000000  0.5610230000000  0.5351800000000 1.0
C      1  0.4512490000000  0.4529030000000  0.4905330000000 1.0
C      1  0.5732350000000  0.4746490000000  0.5047610000000 1.0
C      1  0.4605860000000  0.5738730000000  0.4800810000000 1.0
C      1  0.5604100000000  0.4301790000000  0.5173510000000 1.0
C      1  0.5377810000000  0.5388630000000  0.5066920000000 1.0
C      1  0.5516030000000  0.5713420000000  0.4634630000000 1.0
C      1  0.4644860000000  0.4872690000000  0.5765340000000 1.0
C      1  0.5723070000000  0.5755730000000  0.5103410000000 1.0
C      1  0.4597050000000  0.5555340000000  0.4576110000000 1.0
C      1  0.5073160000000  0.5296700000000  0.5174200000000 1.0
C      1  0.4916500000000  0.4685960000000  0.5159140000000 1.0
C      1  0.5131530000000  0.5957860000000  0.4933220000000 1.0
C      1  0.4852640000000  0.5175050000000  0.4701660000000 1.0
C      1  0.5347390000000  0.5311210000000  0.4279440000000 1.0
C      1  0.5130300000000  0.4060220000000  0.5234090000000 1.0
C      1  0.4386870000000  0.4545730000000  0.5394930000000 1.0
C      1  0.4203030000000  0.4951900000000  0.4728450000000 1.0
C      1  0.5025590000000  0.4170660000000  0.4759910000000 1.0
C      1  0.5541420000000  0.4403430000000  0.4698140000000 1.0
C      1  0.4065280000000  0.4947360000000  0.5202950000000 1.0
C      1  0.5242940000000  0.4313200000000  0.4570370000000 1.0
C      1  0.4932930000000  0.5523050000000  0.4876770000000 1.0
C      1  0.4945160000000  0.4663650000000  0.4724650000000 1.0
C      1  0.5134880000000  0.5348900000000  0.4720880000000 1.0
C      1  0.5767780000000  0.5673720000000  0.4844010000000 1.0
END
