TITL C-2778426-5645-1356 -0.00275607528663115 125000 -250.86814700113 0 0 44 (C1) n - 1
REM
REM in /home/nfs/bkarasulu/CARBON/AIRSS/Generating-Clusters/REBO/Only-C1/SD-CG/HFTN-CG
REM
REM
REM
REM
REM
REM ./C.cell (11c1c37f851c82e70ff6c80c92926a4b)
REM
REM compiler GCC version 9.2.1 20190827 (Red Hat 9.2.1-1)
REM options -cpp -mtune=generic -march=x86-64 -g -O0 -fpre-include=/usr/include/finclude/math-vector-fortran.h
REM seed -1534343294 -821268416 -899511543 -1471944685 1407769751 -574065487 -303894932 1193336496 927110055 -1726482517 270454316 1248631848 108389569 1563162835 1715414288 679543596 2006453057 340113160 -38223209 -414862706 -1959992700 972014336 -1807409445 -167586307 1799267569 1330991991 899838075 1367734281 536612495 708881780 -1891618578 788371402 -2137500815
REM
CELL 1.54180   50.00000   50.00000   50.00000   90.00000   90.00000   90.00000
LATT -1
SFAC C  
C      1  0.4866560000000  0.4380520000000  0.4508130000000 1.0
C      1  0.4776440000000  0.5556050000000  0.5488930000000 1.0
C      1  0.5318860000000  0.5007220000000  0.5418980000000 1.0
C      1  0.5782690000000  0.5256850000000  0.5069290000000 1.0
C      1  0.5212470000000  0.5045690000000  0.4321140000000 1.0
C      1  0.5348260000000  0.4806400000000  0.4515110000000 1.0
C      1  0.4848030000000  0.5355120000000  0.4587070000000 1.0
C      1  0.4579300000000  0.5095140000000  0.5561850000000 1.0
C      1  0.4704360000000  0.4876180000000  0.4510420000000 1.0
C      1  0.5561310000000  0.4765210000000  0.4972870000000 1.0
C      1  0.4819090000000  0.4809210000000  0.5174390000000 1.0
C      1  0.4959570000000  0.5563570000000  0.4739720000000 1.0
C      1  0.5428280000000  0.5191420000000  0.4516160000000 1.0
C      1  0.5317090000000  0.5618680000000  0.5088120000000 1.0
C      1  0.4763430000000  0.5098080000000  0.4736280000000 1.0
C      1  0.5133080000000  0.4540820000000  0.4538870000000 1.0
C      1  0.4591850000000  0.5361100000000  0.5584440000000 1.0
C      1  0.5054390000000  0.5516690000000  0.5559230000000 1.0
C      1  0.4862600000000  0.5048920000000  0.4993580000000 1.0
C      1  0.5097990000000  0.5286170000000  0.5723310000000 1.0
C      1  0.4558480000000  0.4800560000000  0.5394500000000 1.0
C      1  0.4757230000000  0.5638810000000  0.5217700000000 1.0
C      1  0.5417650000000  0.5441930000000  0.4618890000000 1.0
C      1  0.4638820000000  0.4319640000000  0.5079850000000 1.0
C      1  0.4548640000000  0.4636000000000  0.4601960000000 1.0
C      1  0.5326370000000  0.4337620000000  0.4428710000000 1.0
C      1  0.4934760000000  0.5516020000000  0.5034450000000 1.0
C      1  0.5539220000000  0.4964460000000  0.4713520000000 1.0
C      1  0.5311100000000  0.5149920000000  0.5173470000000 1.0
C      1  0.4389360000000  0.4565050000000  0.5438880000000 1.0
C      1  0.4166900000000  0.4576770000000  0.5601900000000 1.0
C      1  0.5239390000000  0.5592330000000  0.5350550000000 1.0
C      1  0.5563700000000  0.5096370000000  0.5014720000000 1.0
C      1  0.4472640000000  0.4332330000000  0.5303520000000 1.0
C      1  0.4984680000000  0.4794210000000  0.4362390000000 1.0
C      1  0.5258060000000  0.5580530000000  0.4808040000000 1.0
C      1  0.5106450000000  0.5030680000000  0.5598960000000 1.0
C      1  0.4892830000000  0.5125950000000  0.4361560000000 1.0
C      1  0.4863370000000  0.4557200000000  0.5013380000000 1.0
C      1  0.5046720000000  0.5247820000000  0.5093590000000 1.0
C      1  0.5131800000000  0.4536740000000  0.4872910000000 1.0
C      1  0.4856540000000  0.4915230000000  0.5496980000000 1.0
C      1  0.5372230000000  0.4575350000000  0.4993890000000 1.0
C      1  0.4597440000000  0.4489450000000  0.4817790000000 1.0
END
