TITL C-2778425-5191-827 -0.0023490589090227 125000 -1097.64312394076 0 0 188 (C1) n - 1
REM
REM in /home/nfs/bkarasulu/CARBON/AIRSS/Generating-Clusters/REBO/Only-C1/SD-CG/HFTN-CG
REM
REM
REM
REM
REM
REM ./C.cell (11c1c37f851c82e70ff6c80c92926a4b)
REM
REM compiler GCC version 9.2.1 20190827 (Red Hat 9.2.1-1)
REM options -cpp -mtune=generic -march=x86-64 -g -O0 -fpre-include=/usr/include/finclude/math-vector-fortran.h
REM seed 753346359 600710888 266324929 1016822799 -259211905 495907058 -638414092 965133447 -1332676173 998241583 -950271068 -414791444 -440993259 -1273881615 -1126531231 -1576046381 -418870835 1077322593 -2028232374 -74736224 2017267698 -1523970661 -1490319848 1639421806 1226737992 1669795939 1423786502 124703642 -2032620086 1812486795 1674124518 -946080877 -1646511975
REM
CELL 1.54180   50.00000   50.00000   50.00000   90.00000   90.00000   90.00000
LATT -1
SFAC C  
C      1  0.4820250000000  0.4413070000000  0.5899370000000 1.0
C      1  0.5811670000000  0.4689680000000  0.4676740000000 1.0
C      1  0.4762470000000  0.4078490000000  0.4297500000000 1.0
C      1  0.4970580000000  0.4799990000000  0.4766400000000 1.0
C      1  0.4451520000000  0.5144390000000  0.4800410000000 1.0
C      1  0.4957100000000  0.4238050000000  0.4866360000000 1.0
C      1  0.4332620000000  0.5442740000000  0.4390010000000 1.0
C      1  0.5240440000000  0.4894460000000  0.3735420000000 1.0
C      1  0.4153480000000  0.4353630000000  0.4837110000000 1.0
C      1  0.4669690000000  0.5767830000000  0.5688140000000 1.0
C      1  0.5002120000000  0.4503150000000  0.6159770000000 1.0
C      1  0.5660440000000  0.4501380000000  0.4234280000000 1.0
C      1  0.4799100000000  0.5550330000000  0.6139840000000 1.0
C      1  0.6037860000000  0.5330860000000  0.5543470000000 1.0
C      1  0.3962010000000  0.5130090000000  0.4989580000000 1.0
C      1  0.5905590000000  0.5236040000000  0.4530550000000 1.0
C      1  0.4640910000000  0.4938500000000  0.6092690000000 1.0
C      1  0.4256640000000  0.5127530000000  0.5427860000000 1.0
C      1  0.5303950000000  0.5093900000000  0.4999640000000 1.0
C      1  0.5053740000000  0.5593580000000  0.4939350000000 1.0
C      1  0.4862960000000  0.5154220000000  0.5660560000000 1.0
C      1  0.4609620000000  0.5909020000000  0.5395470000000 1.0
C      1  0.5749010000000  0.4677600000000  0.5104550000000 1.0
C      1  0.4690410000000  0.5715580000000  0.4238830000000 1.0
C      1  0.3992350000000  0.4644720000000  0.4758570000000 1.0
C      1  0.4154300000000  0.4461130000000  0.5153030000000 1.0
C      1  0.5122340000000  0.5172850000000  0.5861200000000 1.0
C      1  0.4638860000000  0.4564680000000  0.5455820000000 1.0
C      1  0.4944950000000  0.5321200000000  0.3943910000000 1.0
C      1  0.5126720000000  0.5735900000000  0.4578580000000 1.0
C      1  0.4607140000000  0.5041690000000  0.5257600000000 1.0
C      1  0.5216130000000  0.5383420000000  0.4412120000000 1.0
C      1  0.4649470000000  0.5548000000000  0.5229800000000 1.0
C      1  0.6081170000000  0.4735060000000  0.5059780000000 1.0
C      1  0.5565870000000  0.4427840000000  0.4988750000000 1.0
C      1  0.5626310000000  0.4262990000000  0.4475370000000 1.0
C      1  0.5448890000000  0.5864070000000  0.4383980000000 1.0
C      1  0.5047490000000  0.5063620000000  0.5176840000000 1.0
C      1  0.4359020000000  0.5904820000000  0.4813610000000 1.0
C      1  0.5864920000000  0.4984500000000  0.4838790000000 1.0
C      1  0.5074250000000  0.4022170000000  0.5329240000000 1.0
C      1  0.4030540000000  0.5432400000000  0.5551150000000 1.0
C      1  0.4602540000000  0.4009440000000  0.5157220000000 1.0
C      1  0.5093310000000  0.6041320000000  0.5607850000000 1.0
C      1  0.5041520000000  0.5170200000000  0.4216120000000 1.0
C      1  0.5601130000000  0.4369800000000  0.5583740000000 1.0
C      1  0.5493580000000  0.5705860000000  0.5995950000000 1.0
C      1  0.5871150000000  0.4891230000000  0.5829170000000 1.0
C      1  0.6105990000000  0.4697680000000  0.4506700000000 1.0
C      1  0.4364850000000  0.4383690000000  0.5683680000000 1.0
C      1  0.5070750000000  0.4765990000000  0.6199360000000 1.0
C      1  0.4599500000000  0.4699950000000  0.4982200000000 1.0
C      1  0.4832330000000  0.5768190000000  0.5095860000000 1.0
C      1  0.5343400000000  0.4203090000000  0.5725320000000 1.0
C      1  0.4549390000000  0.5421980000000  0.4149230000000 1.0
C      1  0.3994740000000  0.4682840000000  0.5239220000000 1.0
C      1  0.5535700000000  0.4907970000000  0.5616500000000 1.0
C      1  0.5521640000000  0.4052950000000  0.5107620000000 1.0
C      1  0.4557940000000  0.4940260000000  0.4096350000000 1.0
C      1  0.4760320000000  0.4105620000000  0.5432930000000 1.0
C      1  0.4879020000000  0.4825920000000  0.5060770000000 1.0
C      1  0.4643650000000  0.4578850000000  0.4703470000000 1.0
C      1  0.4069640000000  0.5448420000000  0.4583960000000 1.0
C      1  0.5571290000000  0.5172090000000  0.5182360000000 1.0
C      1  0.5605940000000  0.5795600000000  0.4605720000000 1.0
C      1  0.4594320000000  0.5532780000000  0.5922000000000 1.0
C      1  0.5829600000000  0.5412330000000  0.4813920000000 1.0
C      1  0.5212020000000  0.4683230000000  0.5675780000000 1.0
C      1  0.4288500000000  0.4786590000000  0.4957160000000 1.0
C      1  0.4661130000000  0.5152220000000  0.4986920000000 1.0
C      1  0.5975280000000  0.5549300000000  0.5286060000000 1.0
C      1  0.4445810000000  0.4635040000000  0.4036610000000 1.0
C      1  0.4482760000000  0.5989740000000  0.5118810000000 1.0
C      1  0.4492490000000  0.4468260000000  0.4443390000000 1.0
C      1  0.4926060000000  0.5906730000000  0.5843670000000 1.0
C      1  0.3896660000000  0.4818980000000  0.5000430000000 1.0
C      1  0.5512300000000  0.4717630000000  0.4557080000000 1.0
C      1  0.4347670000000  0.5087210000000  0.6005610000000 1.0
C      1  0.5327150000000  0.5534280000000  0.4767980000000 1.0
C      1  0.5783390000000  0.5553650000000  0.4523710000000 1.0
C      1  0.5167940000000  0.4933190000000  0.4381200000000 1.0
C      1  0.4190500000000  0.5256540000000  0.5794230000000 1.0
C      1  0.5355740000000  0.4425740000000  0.4578170000000 1.0
C      1  0.4430120000000  0.4230180000000  0.4991490000000 1.0
C      1  0.5102350000000  0.4803460000000  0.5390840000000 1.0
C      1  0.5301690000000  0.5015080000000  0.3500570000000 1.0
C      1  0.5596210000000  0.4094160000000  0.4774880000000 1.0
C      1  0.5308070000000  0.3942590000000  0.4863870000000 1.0
C      1  0.5129820000000  0.4403940000000  0.5797630000000 1.0
C      1  0.4344160000000  0.4875550000000  0.5234860000000 1.0
C      1  0.5067460000000  0.3874690000000  0.5052280000000 1.0
C      1  0.5405080000000  0.5010960000000  0.4169920000000 1.0
C      1  0.5847460000000  0.5064240000000  0.5119920000000 1.0
C      1  0.5083540000000  0.5417380000000  0.6091140000000 1.0
C      1  0.6165710000000  0.4834410000000  0.4778790000000 1.0
C      1  0.5885770000000  0.5008450000000  0.4390620000000 1.0
C      1  0.4798970000000  0.5468650000000  0.5587620000000 1.0
C      1  0.5447340000000  0.4563690000000  0.4041760000000 1.0
C      1  0.5500720000000  0.5529240000000  0.5732370000000 1.0
C      1  0.5413360000000  0.6009690000000  0.5540120000000 1.0
C      1  0.4459860000000  0.6054160000000  0.4545530000000 1.0
C      1  0.5478040000000  0.5116160000000  0.5460720000000 1.0
C      1  0.5388850000000  0.5663680000000  0.5139680000000 1.0
C      1  0.4307570000000  0.4676540000000  0.5718530000000 1.0
C      1  0.5467640000000  0.4805610000000  0.5065510000000 1.0
C      1  0.4783870000000  0.4877130000000  0.5473610000000 1.0
C      1  0.4592250000000  0.4177700000000  0.4497200000000 1.0
C      1  0.5035450000000  0.4086640000000  0.4387380000000 1.0
C      1  0.5305010000000  0.5328600000000  0.5609980000000 1.0
C      1  0.5653300000000  0.4971960000000  0.5992770000000 1.0
C      1  0.4938060000000  0.5962450000000  0.5318230000000 1.0
C      1  0.4930430000000  0.5353110000000  0.5229450000000 1.0
C      1  0.5246730000000  0.4597060000000  0.5156420000000 1.0
C      1  0.4916290000000  0.5306280000000  0.4887810000000 1.0
C      1  0.5143240000000  0.4362680000000  0.4358960000000 1.0
C      1  0.4970140000000  0.4835320000000  0.3825790000000 1.0
C      1  0.4825840000000  0.5690050000000  0.4705110000000 1.0
C      1  0.4672580000000  0.4456420000000  0.3979000000000 1.0
C      1  0.4587240000000  0.5229620000000  0.5826710000000 1.0
C      1  0.4798970000000  0.3875680000000  0.4959120000000 1.0
C      1  0.4211990000000  0.4636410000000  0.4220120000000 1.0
C      1  0.5348230000000  0.4130390000000  0.5390780000000 1.0
C      1  0.4013750000000  0.5258570000000  0.5268890000000 1.0
C      1  0.6070800000000  0.5251090000000  0.5233390000000 1.0
C      1  0.4800780000000  0.5046500000000  0.3921990000000 1.0
C      1  0.4939870000000  0.4572800000000  0.3943520000000 1.0
C      1  0.5250980000000  0.4376880000000  0.4896070000000 1.0
C      1  0.4563360000000  0.5219290000000  0.4518650000000 1.0
C      1  0.5547760000000  0.5407940000000  0.4980700000000 1.0
C      1  0.5171530000000  0.5515360000000  0.5359060000000 1.0
C      1  0.5041950000000  0.5584600000000  0.3987080000000 1.0
C      1  0.4339790000000  0.5156060000000  0.4197310000000 1.0
C      1  0.5992210000000  0.4878750000000  0.5355300000000 1.0
C      1  0.5160710000000  0.3939060000000  0.4578800000000 1.0
C      1  0.4601160000000  0.5940390000000  0.4344100000000 1.0
C      1  0.5049240000000  0.5699160000000  0.5596140000000 1.0
C      1  0.4864570000000  0.4549740000000  0.5235170000000 1.0
C      1  0.5862540000000  0.4710700000000  0.4282690000000 1.0
C      1  0.5004320000000  0.4671680000000  0.4390140000000 1.0
C      1  0.4655180000000  0.4309870000000  0.5646950000000 1.0
C      1  0.5757020000000  0.4394360000000  0.4743650000000 1.0
C      1  0.4373460000000  0.4777580000000  0.4663310000000 1.0
C      1  0.5192070000000  0.6035240000000  0.4636740000000 1.0
C      1  0.5197970000000  0.5669040000000  0.4261010000000 1.0
C      1  0.5885040000000  0.4559440000000  0.5380560000000 1.0
C      1  0.4174240000000  0.5109790000000  0.4758840000000 1.0
C      1  0.6002260000000  0.5040580000000  0.5617630000000 1.0
C      1  0.4379650000000  0.5655940000000  0.5407510000000 1.0
C      1  0.5563390000000  0.5845360000000  0.5709720000000 1.0
C      1  0.5563500000000  0.5218000000000  0.4242200000000 1.0
C      1  0.4678700000000  0.4737800000000  0.4341640000000 1.0
C      1  0.4948650000000  0.5274270000000  0.4588980000000 1.0
C      1  0.4593520000000  0.5498550000000  0.4681280000000 1.0
C      1  0.4108800000000  0.5576010000000  0.5243070000000 1.0
C      1  0.4580020000000  0.4651310000000  0.5925820000000 1.0
C      1  0.4147920000000  0.4814520000000  0.5497640000000 1.0
C      1  0.4232060000000  0.4853670000000  0.4434920000000 1.0
C      1  0.4802350000000  0.4976880000000  0.4549900000000 1.0
C      1  0.5294390000000  0.4755620000000  0.4793030000000 1.0
C      1  0.4928540000000  0.4986350000000  0.6086080000000 1.0
C      1  0.4980640000000  0.5799320000000  0.6118120000000 1.0
C      1  0.4164210000000  0.4470630000000  0.4517300000000 1.0
C      1  0.4547800000000  0.5296710000000  0.5435870000000 1.0
C      1  0.4548800000000  0.4912370000000  0.5709230000000 1.0
C      1  0.4471640000000  0.4499080000000  0.5192650000000 1.0
C      1  0.5739180000000  0.4645220000000  0.5656630000000 1.0
C      1  0.5269650000000  0.5913410000000  0.5281700000000 1.0
C      1  0.4938520000000  0.4490890000000  0.4674460000000 1.0
C      1  0.5264460000000  0.5049920000000  0.4662860000000 1.0
C      1  0.5339720000000  0.4914440000000  0.5874210000000 1.0
C      1  0.4313320000000  0.5611400000000  0.4756770000000 1.0
C      1  0.4911700000000  0.4262780000000  0.5168780000000 1.0
C      1  0.5603410000000  0.5793170000000  0.4904620000000 1.0
C      1  0.4352700000000  0.5527380000000  0.5701870000000 1.0
C      1  0.4834270000000  0.5424800000000  0.4311510000000 1.0
C      1  0.5314250000000  0.4467900000000  0.5431290000000 1.0
C      1  0.5519830000000  0.5337700000000  0.4555890000000 1.0
C      1  0.5433470000000  0.4837620000000  0.3946700000000 1.0
C      1  0.5854600000000  0.5652110000000  0.5048760000000 1.0
C      1  0.4089510000000  0.5138460000000  0.4435070000000 1.0
C      1  0.4685110000000  0.4177130000000  0.4040790000000 1.0
C      1  0.5264030000000  0.5669030000000  0.6154230000000 1.0
C      1  0.4689790000000  0.5942480000000  0.4853020000000 1.0
C      1  0.4659610000000  0.4122250000000  0.4780240000000 1.0
C      1  0.4066230000000  0.5454210000000  0.4926980000000 1.0
C      1  0.5179610000000  0.4463120000000  0.4070820000000 1.0
C      1  0.5598800000000  0.5027800000000  0.4676610000000 1.0
C      1  0.5688110000000  0.4302330000000  0.5270390000000 1.0
END
