TITL C-2778424-3986-863 -0.00185094026531087 125000 -1016.86347232329 0 0 175 (C1) n - 1
REM
REM in /home/nfs/bkarasulu/CARBON/AIRSS/Generating-Clusters/REBO/Only-C1/SD-CG/HFTN-CG
REM
REM
REM
REM
REM
REM ./C.cell (11c1c37f851c82e70ff6c80c92926a4b)
REM
REM compiler GCC version 9.2.1 20190827 (Red Hat 9.2.1-1)
REM options -cpp -mtune=generic -march=x86-64 -g -O0 -fpre-include=/usr/include/finclude/math-vector-fortran.h
REM seed -758089668 483968986 1913690490 768729174 -532437506 -2142804573 511318921 1359575508 -855210941 -45570944 -996770549 -1931215968 -476080611 753592550 1174778272 681659463 1086769922 -1069737918 2102019297 -1963347615 -1952669241 150557956 -1960060205 1273543641 -2055476709 -753070380 1097231469 2024593557 -1635320048 -1591968551 321215630 -1742910993 532483111
REM
CELL 1.54180   50.00000   50.00000   50.00000   90.00000   90.00000   90.00000
LATT -1
SFAC C  
C      1  0.4682360000000  0.5167640000000  0.4541640000000 1.0
C      1  0.5570340000000  0.5620250000000  0.4864190000000 1.0
C      1  0.4954600000000  0.4338500000000  0.5777410000000 1.0
C      1  0.4025880000000  0.4941610000000  0.4900120000000 1.0
C      1  0.3869260000000  0.5227970000000  0.4521720000000 1.0
C      1  0.4936460000000  0.5331810000000  0.5342810000000 1.0
C      1  0.5000670000000  0.5687940000000  0.4943080000000 1.0
C      1  0.6265970000000  0.5422480000000  0.5332720000000 1.0
C      1  0.5656250000000  0.4986880000000  0.4972990000000 1.0
C      1  0.5437810000000  0.5712560000000  0.5790620000000 1.0
C      1  0.4969150000000  0.4651480000000  0.4796940000000 1.0
C      1  0.4499300000000  0.5202450000000  0.5546440000000 1.0
C      1  0.5246760000000  0.4516370000000  0.4935860000000 1.0
C      1  0.4966720000000  0.4862500000000  0.5059040000000 1.0
C      1  0.4919500000000  0.5401780000000  0.5953740000000 1.0
C      1  0.5347840000000  0.4220270000000  0.4902160000000 1.0
C      1  0.5948940000000  0.5063550000000  0.5560650000000 1.0
C      1  0.4965990000000  0.4723440000000  0.5879520000000 1.0
C      1  0.3827370000000  0.5031570000000  0.4714260000000 1.0
C      1  0.4842300000000  0.4280120000000  0.5115240000000 1.0
C      1  0.4602450000000  0.5905370000000  0.5165630000000 1.0
C      1  0.5261390000000  0.5081100000000  0.4641160000000 1.0
C      1  0.4600710000000  0.4313330000000  0.5680460000000 1.0
C      1  0.5253010000000  0.4931420000000  0.5493790000000 1.0
C      1  0.4295110000000  0.5544220000000  0.5316020000000 1.0
C      1  0.5286910000000  0.4464950000000  0.5401380000000 1.0
C      1  0.5314730000000  0.5203370000000  0.5288920000000 1.0
C      1  0.5481070000000  0.4404810000000  0.5839410000000 1.0
C      1  0.5226010000000  0.5449440000000  0.4492630000000 1.0
C      1  0.5327190000000  0.4148790000000  0.5360330000000 1.0
C      1  0.5669880000000  0.5729820000000  0.5630180000000 1.0
C      1  0.4849080000000  0.3949450000000  0.4651330000000 1.0
C      1  0.4786200000000  0.6071460000000  0.4688600000000 1.0
C      1  0.5281040000000  0.5497960000000  0.5457900000000 1.0
C      1  0.4693320000000  0.4521680000000  0.4839380000000 1.0
C      1  0.5088810000000  0.5272220000000  0.4863440000000 1.0
C      1  0.5529000000000  0.4846910000000  0.5647910000000 1.0
C      1  0.5613180000000  0.3804960000000  0.4993480000000 1.0
C      1  0.5129490000000  0.4038410000000  0.4762840000000 1.0
C      1  0.5779820000000  0.5251960000000  0.5728210000000 1.0
C      1  0.4266120000000  0.5620770000000  0.4861150000000 1.0
C      1  0.5181860000000  0.4809200000000  0.6033440000000 1.0
C      1  0.5709020000000  0.5781100000000  0.5048200000000 1.0
C      1  0.4853960000000  0.4202490000000  0.5505980000000 1.0
C      1  0.5058950000000  0.4334660000000  0.4231220000000 1.0
C      1  0.5837760000000  0.4650370000000  0.4575150000000 1.0
C      1  0.5131550000000  0.5498730000000  0.6116550000000 1.0
C      1  0.4070590000000  0.5334800000000  0.4350200000000 1.0
C      1  0.5351640000000  0.4247290000000  0.4130120000000 1.0
C      1  0.4041350000000  0.5352240000000  0.5323080000000 1.0
C      1  0.4999550000000  0.4759370000000  0.5599000000000 1.0
C      1  0.5038960000000  0.4550320000000  0.5184430000000 1.0
C      1  0.5878800000000  0.5549320000000  0.5684990000000 1.0
C      1  0.4997870000000  0.5216040000000  0.4480090000000 1.0
C      1  0.4851240000000  0.5146710000000  0.5073520000000 1.0
C      1  0.4834300000000  0.6091930000000  0.5559620000000 1.0
C      1  0.5821040000000  0.4331230000000  0.4565390000000 1.0
C      1  0.5361290000000  0.4976800000000  0.5882560000000 1.0
C      1  0.5465160000000  0.5145930000000  0.4112850000000 1.0
C      1  0.4349950000000  0.5196750000000  0.4599200000000 1.0
C      1  0.4071690000000  0.4624840000000  0.4541720000000 1.0
C      1  0.4117090000000  0.4384930000000  0.4691270000000 1.0
C      1  0.4408170000000  0.5449190000000  0.5843610000000 1.0
C      1  0.4661480000000  0.5377460000000  0.4124740000000 1.0
C      1  0.4434460000000  0.4807310000000  0.4631650000000 1.0
C      1  0.4616730000000  0.4030260000000  0.5132790000000 1.0
C      1  0.4636660000000  0.4033930000000  0.4818690000000 1.0
C      1  0.4168680000000  0.4527390000000  0.5555740000000 1.0
C      1  0.4551740000000  0.4276360000000  0.4273490000000 1.0
C      1  0.4703440000000  0.5643390000000  0.4988340000000 1.0
C      1  0.6009980000000  0.5370410000000  0.5426450000000 1.0
C      1  0.4536760000000  0.5167580000000  0.5039980000000 1.0
C      1  0.5851150000000  0.5365970000000  0.4738730000000 1.0
C      1  0.5245440000000  0.4906900000000  0.5175140000000 1.0
C      1  0.5469530000000  0.4736530000000  0.5051390000000 1.0
C      1  0.5372760000000  0.5393510000000  0.5007370000000 1.0
C      1  0.5757160000000  0.5289300000000  0.4990820000000 1.0
C      1  0.5235490000000  0.4404340000000  0.5714980000000 1.0
C      1  0.5658990000000  0.4136150000000  0.5386970000000 1.0
C      1  0.4465140000000  0.5609620000000  0.4139100000000 1.0
C      1  0.4159180000000  0.4340990000000  0.5015360000000 1.0
C      1  0.4563080000000  0.4293120000000  0.4723590000000 1.0
C      1  0.4226900000000  0.4800490000000  0.4108880000000 1.0
C      1  0.5352510000000  0.4782730000000  0.4543020000000 1.0
C      1  0.5759100000000  0.5438890000000  0.5241180000000 1.0
C      1  0.5060570000000  0.6003300000000  0.4834700000000 1.0
C      1  0.4424560000000  0.4735000000000  0.5469140000000 1.0
C      1  0.5350570000000  0.5654320000000  0.4167180000000 1.0
C      1  0.4523340000000  0.4920320000000  0.5667660000000 1.0
C      1  0.4348250000000  0.4287970000000  0.5513620000000 1.0
C      1  0.5090670000000  0.6013000000000  0.5155930000000 1.0
C      1  0.4644860000000  0.5663780000000  0.5719450000000 1.0
C      1  0.4692710000000  0.5117830000000  0.4011320000000 1.0
C      1  0.4201020000000  0.5301830000000  0.5617220000000 1.0
C      1  0.5394600000000  0.5498470000000  0.5973750000000 1.0
C      1  0.4896640000000  0.5859700000000  0.5699130000000 1.0
C      1  0.4771590000000  0.4470070000000  0.4098360000000 1.0
C      1  0.4340670000000  0.4155030000000  0.5240000000000 1.0
C      1  0.5583330000000  0.5075310000000  0.4683310000000 1.0
C      1  0.5546860000000  0.5757930000000  0.4622750000000 1.0
C      1  0.5627530000000  0.4453390000000  0.4852090000000 1.0
C      1  0.5292070000000  0.5975050000000  0.4625130000000 1.0
C      1  0.5163270000000  0.5660140000000  0.4661350000000 1.0
C      1  0.5854470000000  0.4801560000000  0.5141920000000 1.0
C      1  0.4533930000000  0.5943070000000  0.4648650000000 1.0
C      1  0.4986840000000  0.5005600000000  0.4021210000000 1.0
C      1  0.4341660000000  0.4545450000000  0.5199780000000 1.0
C      1  0.4336100000000  0.4272090000000  0.4538510000000 1.0
C      1  0.6033220000000  0.4942770000000  0.4384760000000 1.0
C      1  0.5898130000000  0.5974760000000  0.5000140000000 1.0
C      1  0.5792470000000  0.4832190000000  0.5443950000000 1.0
C      1  0.5639780000000  0.4936080000000  0.4176970000000 1.0
C      1  0.5176630000000  0.5766170000000  0.5621850000000 1.0
C      1  0.4525240000000  0.5732820000000  0.5412260000000 1.0
C      1  0.4396450000000  0.5879290000000  0.4896340000000 1.0
C      1  0.5553730000000  0.4613770000000  0.5326010000000 1.0
C      1  0.6163520000000  0.4709000000000  0.5035950000000 1.0
C      1  0.4663480000000  0.4793450000000  0.4112460000000 1.0
C      1  0.5268670000000  0.5243000000000  0.5842010000000 1.0
C      1  0.5285360000000  0.5870290000000  0.5318460000000 1.0
C      1  0.4060160000000  0.4670410000000  0.5055180000000 1.0
C      1  0.5866150000000  0.5113510000000  0.4507660000000 1.0
C      1  0.5736360000000  0.5410410000000  0.4440140000000 1.0
C      1  0.5942610000000  0.4744890000000  0.4813350000000 1.0
C      1  0.5130490000000  0.5472860000000  0.4071100000000 1.0
C      1  0.5593170000000  0.5726020000000  0.5329720000000 1.0
C      1  0.4826860000000  0.4539670000000  0.5440460000000 1.0
C      1  0.5542980000000  0.5354910000000  0.5576880000000 1.0
C      1  0.4234520000000  0.5107780000000  0.4211450000000 1.0
C      1  0.5641320000000  0.4785250000000  0.4415040000000 1.0
C      1  0.4836950000000  0.6071400000000  0.5275380000000 1.0
C      1  0.4157900000000  0.4951720000000  0.4505620000000 1.0
C      1  0.5050160000000  0.4037550000000  0.5352130000000 1.0
C      1  0.5553960000000  0.4247990000000  0.4380700000000 1.0
C      1  0.5914480000000  0.4350120000000  0.4895530000000 1.0
C      1  0.4476080000000  0.5122910000000  0.5936730000000 1.0
C      1  0.4507460000000  0.5451900000000  0.5129620000000 1.0
C      1  0.4981110000000  0.4723910000000  0.4191350000000 1.0
C      1  0.5203480000000  0.5192140000000  0.4001190000000 1.0
C      1  0.4450170000000  0.5784990000000  0.4431640000000 1.0
C      1  0.4954970000000  0.3977400000000  0.5049070000000 1.0
C      1  0.5993420000000  0.4368050000000  0.5157380000000 1.0
C      1  0.5800720000000  0.4414220000000  0.5420210000000 1.0
C      1  0.4851310000000  0.4432970000000  0.4484360000000 1.0
C      1  0.5218710000000  0.4752440000000  0.6296070000000 1.0
C      1  0.5235060000000  0.4240400000000  0.4510260000000 1.0
C      1  0.5516470000000  0.4040520000000  0.5101600000000 1.0
C      1  0.5415480000000  0.4185420000000  0.3882840000000 1.0
C      1  0.4085920000000  0.5434700000000  0.4995860000000 1.0
C      1  0.4427940000000  0.4808470000000  0.4914380000000 1.0
C      1  0.4420910000000  0.5747020000000  0.3900890000000 1.0
C      1  0.4907500000000  0.5438530000000  0.4252260000000 1.0
C      1  0.4804250000000  0.4102000000000  0.4410190000000 1.0
C      1  0.4200810000000  0.5158160000000  0.4964290000000 1.0
C      1  0.4516700000000  0.4959500000000  0.4333070000000 1.0
C      1  0.5453030000000  0.4483540000000  0.4596550000000 1.0
C      1  0.4408080000000  0.4933670000000  0.5213110000000 1.0
C      1  0.4640310000000  0.4545520000000  0.5155610000000 1.0
C      1  0.5064070000000  0.4688290000000  0.4490060000000 1.0
C      1  0.4214000000000  0.5572780000000  0.4354200000000 1.0
C      1  0.4270630000000  0.4622430000000  0.4310580000000 1.0
C      1  0.4582230000000  0.4800040000000  0.5962260000000 1.0
C      1  0.5670870000000  0.4555620000000  0.5701430000000 1.0
C      1  0.4569100000000  0.4577380000000  0.4434930000000 1.0
C      1  0.4038990000000  0.4742270000000  0.5370270000000 1.0
C      1  0.5128790000000  0.5532850000000  0.5164620000000 1.0
C      1  0.5482260000000  0.5393400000000  0.4292470000000 1.0
C      1  0.4791370000000  0.5397200000000  0.4769020000000 1.0
C      1  0.4661530000000  0.5369080000000  0.6040890000000 1.0
C      1  0.4146100000000  0.5040290000000  0.5402710000000 1.0
C      1  0.5422310000000  0.5860470000000  0.4338980000000 1.0
C      1  0.4712410000000  0.4516050000000  0.5931350000000 1.0
C      1  0.5010120000000  0.5302080000000  0.5673440000000 1.0
C      1  0.4679550000000  0.5430380000000  0.5488900000000 1.0
C      1  0.4458780000000  0.5442290000000  0.4725810000000 1.0
END
