TITL C-2778430-5657-451 -0.00118821103594445 125000 -538.665022241841 0 0 93 (C1) n - 1
REM
REM in /home/nfs/bkarasulu/CARBON/AIRSS/Generating-Clusters/REBO/Only-C1/SD-CG/HFTN-CG
REM
REM
REM
REM
REM
REM ./C.cell (11c1c37f851c82e70ff6c80c92926a4b)
REM
REM compiler GCC version 9.2.1 20190827 (Red Hat 9.2.1-1)
REM options -cpp -mtune=generic -march=x86-64 -g -O0 -fpre-include=/usr/include/finclude/math-vector-fortran.h
REM seed 1799970718 79862841 -352081350 1468225780 789663387 208924651 1113050287 508937611 -1190840932 245523107 -155752568 -1737085370 625006500 -2069089527 992772020 -1533113073 19880699 1827902180 2007025634 951453955 1645811896 -1195027424 -1286566249 -694841559 -1821058430 307530431 -1433130041 -749447697 2064514858 -41872472 -766353595 -1828726570 -1367881601
REM
CELL 1.54180   50.00000   50.00000   50.00000   90.00000   90.00000   90.00000
LATT -1
SFAC C  
C      1  0.4369210000000  0.4270840000000  0.4700970000000 1.0
C      1  0.4875730000000  0.4895480000000  0.4535240000000 1.0
C      1  0.4854850000000  0.5813970000000  0.4529870000000 1.0
C      1  0.4989410000000  0.5819210000000  0.5249930000000 1.0
C      1  0.4538180000000  0.4516290000000  0.5483510000000 1.0
C      1  0.5299730000000  0.5221050000000  0.5571450000000 1.0
C      1  0.4806110000000  0.4963340000000  0.5391290000000 1.0
C      1  0.4714760000000  0.4744620000000  0.5208570000000 1.0
C      1  0.4948550000000  0.4928760000000  0.5963570000000 1.0
C      1  0.4284420000000  0.5173700000000  0.4737420000000 1.0
C      1  0.4407190000000  0.5527260000000  0.4913440000000 1.0
C      1  0.5124940000000  0.5321450000000  0.4028660000000 1.0
C      1  0.4379480000000  0.5196250000000  0.5410550000000 1.0
C      1  0.3987070000000  0.4254650000000  0.5277120000000 1.0
C      1  0.4781590000000  0.4614130000000  0.5580520000000 1.0
C      1  0.4294980000000  0.4660920000000  0.4431590000000 1.0
C      1  0.5318780000000  0.5143240000000  0.4760750000000 1.0
C      1  0.5146070000000  0.5810520000000  0.4946900000000 1.0
C      1  0.5455100000000  0.5170100000000  0.5281470000000 1.0
C      1  0.5265720000000  0.4582420000000  0.4221670000000 1.0
C      1  0.4681780000000  0.5532830000000  0.4542550000000 1.0
C      1  0.5650510000000  0.5541140000000  0.5068450000000 1.0
C      1  0.4382510000000  0.4381200000000  0.4430000000000 1.0
C      1  0.5872490000000  0.5407150000000  0.5194320000000 1.0
C      1  0.5387660000000  0.4729800000000  0.5821120000000 1.0
C      1  0.4757100000000  0.5684590000000  0.5459300000000 1.0
C      1  0.4188510000000  0.4901890000000  0.4842390000000 1.0
C      1  0.5680590000000  0.5087000000000  0.5050930000000 1.0
C      1  0.5371800000000  0.4761090000000  0.4451450000000 1.0
C      1  0.4319030000000  0.4636680000000  0.5289950000000 1.0
C      1  0.4905990000000  0.5526170000000  0.4800140000000 1.0
C      1  0.5105630000000  0.5847890000000  0.4642260000000 1.0
C      1  0.5663980000000  0.4532030000000  0.4789650000000 1.0
C      1  0.4616790000000  0.4248320000000  0.4843430000000 1.0
C      1  0.4494420000000  0.4863940000000  0.4326810000000 1.0
C      1  0.4395160000000  0.5358430000000  0.5175060000000 1.0
C      1  0.5640270000000  0.4242940000000  0.6010110000000 1.0
C      1  0.5843710000000  0.5191990000000  0.4763190000000 1.0
C      1  0.4360430000000  0.5439110000000  0.4587600000000 1.0
C      1  0.4441550000000  0.4832010000000  0.5061200000000 1.0
C      1  0.5516940000000  0.5240670000000  0.4423900000000 1.0
C      1  0.5384220000000  0.5721340000000  0.5183330000000 1.0
C      1  0.5457630000000  0.4442070000000  0.4952550000000 1.0
C      1  0.5248050000000  0.5069310000000  0.4433150000000 1.0
C      1  0.4742910000000  0.4010110000000  0.4882570000000 1.0
C      1  0.4518850000000  0.5192270000000  0.4414890000000 1.0
C      1  0.4144210000000  0.4434270000000  0.5135840000000 1.0
C      1  0.5267590000000  0.4469780000000  0.5648390000000 1.0
C      1  0.4835160000000  0.5444630000000  0.5581700000000 1.0
C      1  0.5726150000000  0.5087180000000  0.4536250000000 1.0
C      1  0.4900610000000  0.5037760000000  0.5010920000000 1.0
C      1  0.5076200000000  0.5042290000000  0.5273560000000 1.0
C      1  0.4829820000000  0.5225780000000  0.4548680000000 1.0
C      1  0.4252970000000  0.4950840000000  0.5392270000000 1.0
C      1  0.4794100000000  0.4710380000000  0.4279410000000 1.0
C      1  0.5487200000000  0.4415180000000  0.5872290000000 1.0
C      1  0.5379780000000  0.4948300000000  0.5031780000000 1.0
C      1  0.4854660000000  0.4786030000000  0.4838320000000 1.0
C      1  0.4724460000000  0.4497490000000  0.4939100000000 1.0
C      1  0.5331150000000  0.5762730000000  0.4486150000000 1.0
C      1  0.5025880000000  0.5228030000000  0.4798740000000 1.0
C      1  0.5277180000000  0.4815890000000  0.5330630000000 1.0
C      1  0.4986530000000  0.4551720000000  0.5132030000000 1.0
C      1  0.5273630000000  0.5507620000000  0.4953790000000 1.0
C      1  0.5494720000000  0.4242850000000  0.5134240000000 1.0
C      1  0.5911070000000  0.4722510000000  0.4796830000000 1.0
C      1  0.4656110000000  0.5193670000000  0.5566710000000 1.0
C      1  0.5020470000000  0.4561590000000  0.4167960000000 1.0
C      1  0.5964410000000  0.4906350000000  0.5006380000000 1.0
C      1  0.5126630000000  0.5440280000000  0.5587030000000 1.0
C      1  0.5214720000000  0.4579330000000  0.4934060000000 1.0
C      1  0.5511840000000  0.5407440000000  0.4786320000000 1.0
C      1  0.5175890000000  0.5333030000000  0.5205250000000 1.0
C      1  0.4139300000000  0.4677520000000  0.4683230000000 1.0
C      1  0.5495700000000  0.5534020000000  0.4496070000000 1.0
C      1  0.4746520000000  0.5062420000000  0.4196980000000 1.0
C      1  0.5445060000000  0.4913890000000  0.5587450000000 1.0
C      1  0.4637230000000  0.5687380000000  0.4908340000000 1.0
C      1  0.4523030000000  0.5096160000000  0.4905500000000 1.0
C      1  0.3838580000000  0.4084920000000  0.5410620000000 1.0
C      1  0.4768070000000  0.4910820000000  0.5720880000000 1.0
C      1  0.4164160000000  0.4428430000000  0.4844690000000 1.0
C      1  0.6043590000000  0.5238030000000  0.5013090000000 1.0
C      1  0.4920670000000  0.5520600000000  0.5134320000000 1.0
C      1  0.5664610000000  0.4777350000000  0.4559720000000 1.0
C      1  0.5705240000000  0.5100240000000  0.5585020000000 1.0
C      1  0.5039080000000  0.5152460000000  0.4216950000000 1.0
C      1  0.5830760000000  0.5297520000000  0.5452530000000 1.0
C      1  0.5181270000000  0.4854370000000  0.6010380000000 1.0
C      1  0.5222570000000  0.5682130000000  0.5458010000000 1.0
C      1  0.4703730000000  0.5304340000000  0.5061740000000 1.0
C      1  0.5150560000000  0.4754460000000  0.4674550000000 1.0
C      1  0.5066760000000  0.4569810000000  0.5440540000000 1.0
END
