TITL C-2778424-3986-114 0.0028486456186269 125000 -543.296371893357 0 0 94 (C1) n - 1
REM
REM in /home/nfs/bkarasulu/CARBON/AIRSS/Generating-Clusters/REBO/Only-C1/SD-CG/HFTN-CG
REM
REM
REM
REM
REM
REM ./C.cell (11c1c37f851c82e70ff6c80c92926a4b)
REM
REM compiler GCC version 9.2.1 20190827 (Red Hat 9.2.1-1)
REM options -cpp -mtune=generic -march=x86-64 -g -O0 -fpre-include=/usr/include/finclude/math-vector-fortran.h
REM seed -1823885755 -125232142 1581337804 51636157 384201932 -1775035517 -1882366426 -46731767 1116293409 -1762286420 -1134334536 -1089673680 -835562836 -1894224320 1799717190 440396157 2035162923 480963481 46523479 1176581912 -823104185 621982136 1514105824 -345666987 827423746 170667671 1818141619 -1400889958 551166106 -1451772421 -657757624 -220260623 659531386
REM
CELL 1.54180   50.00000   50.00000   50.00000   90.00000   90.00000   90.00000
LATT -1
SFAC C  
C      1  0.5273850000000  0.4301750000000  0.4595090000000 1.0
C      1  0.4994830000000  0.4092800000000  0.5151570000000 1.0
C      1  0.5523810000000  0.5515710000000  0.5269090000000 1.0
C      1  0.5316340000000  0.4188650000000  0.5083810000000 1.0
C      1  0.5367150000000  0.4462520000000  0.5183480000000 1.0
C      1  0.4432080000000  0.5306630000000  0.5101200000000 1.0
C      1  0.5637250000000  0.5182180000000  0.5646320000000 1.0
C      1  0.4616270000000  0.5192620000000  0.5654770000000 1.0
C      1  0.5741760000000  0.5194680000000  0.4867690000000 1.0
C      1  0.4898070000000  0.4688520000000  0.5763000000000 1.0
C      1  0.4801210000000  0.5223440000000  0.5368900000000 1.0
C      1  0.4839890000000  0.4874980000000  0.5560420000000 1.0
C      1  0.4954130000000  0.4525140000000  0.5403980000000 1.0
C      1  0.4769580000000  0.5054810000000  0.4625610000000 1.0
C      1  0.4449420000000  0.4615000000000  0.4615650000000 1.0
C      1  0.4634790000000  0.4852790000000  0.5314990000000 1.0
C      1  0.4675240000000  0.4456710000000  0.5281310000000 1.0
C      1  0.4946170000000  0.5304810000000  0.4625700000000 1.0
C      1  0.5339320000000  0.4566000000000  0.5501250000000 1.0
C      1  0.5550280000000  0.4736150000000  0.4547620000000 1.0
C      1  0.5777260000000  0.5096860000000  0.5861590000000 1.0
C      1  0.5552320000000  0.4772500000000  0.5347860000000 1.0
C      1  0.4224820000000  0.4584820000000  0.5128910000000 1.0
C      1  0.5090000000000  0.4156170000000  0.4831250000000 1.0
C      1  0.4488170000000  0.5469300000000  0.5574990000000 1.0
C      1  0.4859520000000  0.4839110000000  0.4411990000000 1.0
C      1  0.4557800000000  0.4176870000000  0.4917940000000 1.0
C      1  0.4928650000000  0.5209170000000  0.3792270000000 1.0
C      1  0.5003460000000  0.5985490000000  0.4701490000000 1.0
C      1  0.5476460000000  0.4132150000000  0.4796740000000 1.0
C      1  0.5382440000000  0.4912020000000  0.4885820000000 1.0
C      1  0.4657670000000  0.5636800000000  0.4570810000000 1.0
C      1  0.5231880000000  0.4706350000000  0.4182030000000 1.0
C      1  0.5153290000000  0.4445140000000  0.4309260000000 1.0
C      1  0.5470130000000  0.4852030000000  0.4294290000000 1.0
C      1  0.5139510000000  0.4774530000000  0.5315890000000 1.0
C      1  0.5481980000000  0.5639050000000  0.4709530000000 1.0
C      1  0.5182240000000  0.4676270000000  0.5007650000000 1.0
C      1  0.5005060000000  0.5763340000000  0.5155030000000 1.0
C      1  0.4265870000000  0.4837740000000  0.4997930000000 1.0
C      1  0.5024460000000  0.5584720000000  0.5514900000000 1.0
C      1  0.5579890000000  0.4684580000000  0.5044140000000 1.0
C      1  0.5697200000000  0.4000870000000  0.4747080000000 1.0
C      1  0.5463830000000  0.5139010000000  0.4317020000000 1.0
C      1  0.5069550000000  0.5247280000000  0.5866070000000 1.0
C      1  0.4249190000000  0.5009620000000  0.5949990000000 1.0
C      1  0.4565700000000  0.5598360000000  0.5375960000000 1.0
C      1  0.4807410000000  0.5513860000000  0.5191110000000 1.0
C      1  0.5547000000000  0.5070010000000  0.5360280000000 1.0
C      1  0.4916980000000  0.4456680000000  0.4510110000000 1.0
C      1  0.5708760000000  0.5258350000000  0.5142590000000 1.0
C      1  0.4786760000000  0.4706610000000  0.5077380000000 1.0
C      1  0.4345580000000  0.4864530000000  0.4726150000000 1.0
C      1  0.5086490000000  0.5064860000000  0.5457350000000 1.0
C      1  0.4591270000000  0.5372720000000  0.4462720000000 1.0
C      1  0.4921510000000  0.5763580000000  0.4463150000000 1.0
C      1  0.4823980000000  0.5201280000000  0.5887380000000 1.0
C      1  0.5107620000000  0.4436590000000  0.5697810000000 1.0
C      1  0.5279190000000  0.5188630000000  0.4807530000000 1.0
C      1  0.5704220000000  0.4879760000000  0.4794630000000 1.0
C      1  0.5270040000000  0.5723540000000  0.5200280000000 1.0
C      1  0.4166280000000  0.5064140000000  0.5419670000000 1.0
C      1  0.4934160000000  0.4504390000000  0.4846340000000 1.0
C      1  0.5314110000000  0.5195540000000  0.5156450000000 1.0
C      1  0.4838180000000  0.5887920000000  0.4941620000000 1.0
C      1  0.4906130000000  0.4943830000000  0.4906220000000 1.0
C      1  0.4393570000000  0.4538300000000  0.5357620000000 1.0
C      1  0.5112730000000  0.4230380000000  0.5424950000000 1.0
C      1  0.5094040000000  0.5515290000000  0.4324780000000 1.0
C      1  0.4666960000000  0.4595580000000  0.4414660000000 1.0
C      1  0.5695870000000  0.5285400000000  0.4395450000000 1.0
C      1  0.5302730000000  0.4616050000000  0.4633900000000 1.0
C      1  0.5417900000000  0.5447250000000  0.4952840000000 1.0
C      1  0.4916450000000  0.5128850000000  0.4050890000000 1.0
C      1  0.4991820000000  0.5178650000000  0.5087230000000 1.0
C      1  0.4615520000000  0.4409600000000  0.4766490000000 1.0
C      1  0.5152380000000  0.5693180000000  0.4790750000000 1.0
C      1  0.5466820000000  0.5409600000000  0.5553120000000 1.0
C      1  0.5175790000000  0.5358810000000  0.5591590000000 1.0
C      1  0.5233440000000  0.5247760000000  0.4477790000000 1.0
C      1  0.5690620000000  0.5387040000000  0.4663330000000 1.0
C      1  0.5082000000000  0.4812360000000  0.4645570000000 1.0
C      1  0.4462140000000  0.5108550000000  0.4607310000000 1.0
C      1  0.4846220000000  0.5313260000000  0.4272430000000 1.0
C      1  0.4973060000000  0.5460610000000  0.4896670000000 1.0
C      1  0.4461250000000  0.5546170000000  0.4993780000000 1.0
C      1  0.4098330000000  0.5037930000000  0.6162410000000 1.0
C      1  0.4364400000000  0.5034730000000  0.5217420000000 1.0
C      1  0.4408220000000  0.4979770000000  0.5726080000000 1.0
C      1  0.4615160000000  0.5719760000000  0.4840900000000 1.0
C      1  0.4999080000000  0.4882220000000  0.4153070000000 1.0
C      1  0.5266650000000  0.5751880000000  0.4476180000000 1.0
C      1  0.4405820000000  0.4770910000000  0.5547480000000 1.0
C      1  0.4695580000000  0.4177220000000  0.5156660000000 1.0
END
