TITL C-2778427-5640-1390 0.00101812670895367 125000 -1157.04035914191 0 0 200 (C1) n - 1
REM
REM in /home/nfs/bkarasulu/CARBON/AIRSS/Generating-Clusters/REBO/Only-C1/SD-CG/HFTN-CG
REM
REM
REM
REM
REM
REM ./C.cell (11c1c37f851c82e70ff6c80c92926a4b)
REM
REM compiler GCC version 9.2.1 20190827 (Red Hat 9.2.1-1)
REM options -cpp -mtune=generic -march=x86-64 -g -O0 -fpre-include=/usr/include/finclude/math-vector-fortran.h
REM seed 1935022006 -2053653045 -772215006 169735896 -1815127163 1913316852 -18953900 1057946405 -1372576743 1749992398 1161287193 -748095587 1162044832 -1831388007 1153546095 1027572522 1962783568 -1703503353 -1594472561 -876026990 43216806 899418679 -899925356 -688669686 237146798 -397273196 -1403405527 -1353022154 512856689 1841764452 760984035 -1236473980 -1000360521
REM
CELL 1.54180   50.00000   50.00000   50.00000   90.00000   90.00000   90.00000
LATT -1
SFAC C  
C      1  0.6187100000000  0.5049140000000  0.4913010000000 1.0
C      1  0.4687340000000  0.4407110000000  0.4338660000000 1.0
C      1  0.5790290000000  0.4422280000000  0.5420320000000 1.0
C      1  0.5191370000000  0.5335480000000  0.5585510000000 1.0
C      1  0.5211150000000  0.4175850000000  0.5168240000000 1.0
C      1  0.5680970000000  0.4788860000000  0.5842730000000 1.0
C      1  0.5579360000000  0.5500770000000  0.4812030000000 1.0
C      1  0.6140360000000  0.4721630000000  0.4626820000000 1.0
C      1  0.5917640000000  0.5511400000000  0.5586930000000 1.0
C      1  0.4013130000000  0.5186790000000  0.5132590000000 1.0
C      1  0.5172330000000  0.5725630000000  0.5012530000000 1.0
C      1  0.3953920000000  0.4447570000000  0.4620580000000 1.0
C      1  0.5314760000000  0.4756210000000  0.4057860000000 1.0
C      1  0.4748220000000  0.5081300000000  0.5787230000000 1.0
C      1  0.5013490000000  0.4342600000000  0.4769720000000 1.0
C      1  0.5553850000000  0.4391710000000  0.4536240000000 1.0
C      1  0.4314870000000  0.4306630000000  0.4535230000000 1.0
C      1  0.4694840000000  0.4758610000000  0.5060250000000 1.0
C      1  0.4033250000000  0.4642050000000  0.4406300000000 1.0
C      1  0.4602390000000  0.4410890000000  0.4791170000000 1.0
C      1  0.5077140000000  0.4510960000000  0.4082540000000 1.0
C      1  0.5274430000000  0.5555960000000  0.4773860000000 1.0
C      1  0.4414030000000  0.4061430000000  0.5521160000000 1.0
C      1  0.4437070000000  0.5330410000000  0.5806410000000 1.0
C      1  0.5083890000000  0.6252430000000  0.5086520000000 1.0
C      1  0.5037310000000  0.5988400000000  0.4875160000000 1.0
C      1  0.5240410000000  0.5727250000000  0.4504850000000 1.0
C      1  0.4436930000000  0.4667090000000  0.3993000000000 1.0
C      1  0.4102390000000  0.5427610000000  0.5252550000000 1.0
C      1  0.5504260000000  0.5179390000000  0.5138140000000 1.0
C      1  0.5192200000000  0.5737110000000  0.5907220000000 1.0
C      1  0.4795570000000  0.4922570000000  0.4784300000000 1.0
C      1  0.4481570000000  0.4853400000000  0.3741070000000 1.0
C      1  0.4829230000000  0.4080480000000  0.5815620000000 1.0
C      1  0.4656040000000  0.6033170000000  0.4716130000000 1.0
C      1  0.5136590000000  0.5177800000000  0.6081640000000 1.0
C      1  0.5242380000000  0.4096020000000  0.4842320000000 1.0
C      1  0.4042300000000  0.4365520000000  0.5130570000000 1.0
C      1  0.4406210000000  0.4549510000000  0.5292380000000 1.0
C      1  0.4226030000000  0.4006250000000  0.4783060000000 1.0
C      1  0.4742340000000  0.4111430000000  0.5426830000000 1.0
C      1  0.5745460000000  0.5273590000000  0.4636000000000 1.0
C      1  0.5168080000000  0.4938220000000  0.5617860000000 1.0
C      1  0.4996850000000  0.5551190000000  0.5250540000000 1.0
C      1  0.5199600000000  0.5272530000000  0.5250970000000 1.0
C      1  0.4023850000000  0.4634250000000  0.5340120000000 1.0
C      1  0.5265780000000  0.5995230000000  0.5201620000000 1.0
C      1  0.5927400000000  0.5783990000000  0.5558190000000 1.0
C      1  0.5651200000000  0.5444900000000  0.5097350000000 1.0
C      1  0.6040080000000  0.4497340000000  0.4754110000000 1.0
C      1  0.5116310000000  0.4329460000000  0.4314020000000 1.0
C      1  0.5012850000000  0.3882520000000  0.4990960000000 1.0
C      1  0.5574080000000  0.4153020000000  0.4908910000000 1.0
C      1  0.6122600000000  0.4984790000000  0.4527980000000 1.0
C      1  0.4334570000000  0.5907430000000  0.5287600000000 1.0
C      1  0.5094680000000  0.4458640000000  0.5642070000000 1.0
C      1  0.4712390000000  0.5484310000000  0.5429280000000 1.0
C      1  0.5394230000000  0.5403590000000  0.4133410000000 1.0
C      1  0.5525890000000  0.5693460000000  0.5228010000000 1.0
C      1  0.4620230000000  0.4716360000000  0.5886710000000 1.0
C      1  0.6079440000000  0.5329750000000  0.5398300000000 1.0
C      1  0.4863080000000  0.4153370000000  0.4452620000000 1.0
C      1  0.5678480000000  0.5824230000000  0.4761750000000 1.0
C      1  0.4505020000000  0.5052960000000  0.4343980000000 1.0
C      1  0.5194550000000  0.4786820000000  0.4471620000000 1.0
C      1  0.5383650000000  0.4892300000000  0.6211490000000 1.0
C      1  0.5178080000000  0.5718830000000  0.5475050000000 1.0
C      1  0.4398330000000  0.5171080000000  0.4045670000000 1.0
C      1  0.5786340000000  0.5645960000000  0.4506470000000 1.0
C      1  0.4872580000000  0.5376760000000  0.6050610000000 1.0
C      1  0.5718100000000  0.4724300000000  0.5281070000000 1.0
C      1  0.5526030000000  0.4977380000000  0.5984460000000 1.0
C      1  0.5920760000000  0.5161520000000  0.4365810000000 1.0
C      1  0.4148870000000  0.5048140000000  0.4165030000000 1.0
C      1  0.4924110000000  0.5703380000000  0.4392430000000 1.0
C      1  0.5193310000000  0.5553100000000  0.4017700000000 1.0
C      1  0.4214030000000  0.4290070000000  0.5404890000000 1.0
C      1  0.4501930000000  0.4080620000000  0.5207110000000 1.0
C      1  0.4928250000000  0.5968270000000  0.4565950000000 1.0
C      1  0.4860880000000  0.6039100000000  0.5230030000000 1.0
C      1  0.4575350000000  0.5167400000000  0.4754750000000 1.0
C      1  0.5870420000000  0.5434470000000  0.4278750000000 1.0
C      1  0.4430720000000  0.5909430000000  0.4613490000000 1.0
C      1  0.4463200000000  0.5730190000000  0.4090150000000 1.0
C      1  0.4489060000000  0.5354440000000  0.5006440000000 1.0
C      1  0.5193800000000  0.4607500000000  0.4827060000000 1.0
C      1  0.5021060000000  0.5370060000000  0.4733250000000 1.0
C      1  0.4946100000000  0.5304920000000  0.4410670000000 1.0
C      1  0.5511930000000  0.4572770000000  0.5736110000000 1.0
C      1  0.4892760000000  0.4520570000000  0.5159060000000 1.0
C      1  0.4186080000000  0.4547540000000  0.5626160000000 1.0
C      1  0.5945680000000  0.4788760000000  0.4229930000000 1.0
C      1  0.5276880000000  0.3937730000000  0.4561340000000 1.0
C      1  0.5753040000000  0.5910730000000  0.5331670000000 1.0
C      1  0.4571080000000  0.5081760000000  0.3697230000000 1.0
C      1  0.4676460000000  0.6132290000000  0.4968880000000 1.0
C      1  0.4471820000000  0.5685920000000  0.5090100000000 1.0
C      1  0.5314860000000  0.5141870000000  0.5815730000000 1.0
C      1  0.3944110000000  0.4950850000000  0.5355910000000 1.0
C      1  0.5423460000000  0.4967510000000  0.4379500000000 1.0
C      1  0.5377390000000  0.5092810000000  0.4090900000000 1.0
C      1  0.4680670000000  0.5769380000000  0.5611850000000 1.0
C      1  0.4414990000000  0.5133950000000  0.5245950000000 1.0
C      1  0.4142190000000  0.5182560000000  0.4450240000000 1.0
C      1  0.4143790000000  0.5009260000000  0.5590550000000 1.0
C      1  0.5708900000000  0.4793240000000  0.4388940000000 1.0
C      1  0.4304850000000  0.4816440000000  0.5797480000000 1.0
C      1  0.4418320000000  0.5916230000000  0.5527420000000 1.0
C      1  0.5853690000000  0.4718760000000  0.5581210000000 1.0
C      1  0.5323550000000  0.6177200000000  0.4852940000000 1.0
C      1  0.5330630000000  0.4611430000000  0.5456710000000 1.0
C      1  0.5882040000000  0.4946030000000  0.4862420000000 1.0
C      1  0.4687420000000  0.5601480000000  0.3978230000000 1.0
C      1  0.5484220000000  0.5502710000000  0.4425710000000 1.0
C      1  0.5432620000000  0.5528270000000  0.5484860000000 1.0
C      1  0.5107020000000  0.5069950000000  0.3931070000000 1.0
C      1  0.5446340000000  0.4277220000000  0.5269810000000 1.0
C      1  0.5509390000000  0.5939690000000  0.4990570000000 1.0
C      1  0.4344050000000  0.5778730000000  0.4333720000000 1.0
C      1  0.4974030000000  0.4866360000000  0.5391230000000 1.0
C      1  0.5034490000000  0.4769930000000  0.3862940000000 1.0
C      1  0.6062210000000  0.5076670000000  0.5190900000000 1.0
C      1  0.5220180000000  0.4582870000000  0.5147090000000 1.0
C      1  0.5513950000000  0.4616620000000  0.4211510000000 1.0
C      1  0.4740950000000  0.5083090000000  0.5152180000000 1.0
C      1  0.4730930000000  0.5183380000000  0.5482310000000 1.0
C      1  0.5451170000000  0.6010120000000  0.5455430000000 1.0
C      1  0.4156830000000  0.5129020000000  0.4845560000000 1.0
C      1  0.4532520000000  0.3863080000000  0.4757810000000 1.0
C      1  0.4986460000000  0.5188900000000  0.5014320000000 1.0
C      1  0.4379880000000  0.5516610000000  0.5352690000000 1.0
C      1  0.4153460000000  0.4756930000000  0.4159490000000 1.0
C      1  0.4837260000000  0.4610810000000  0.4648090000000 1.0
C      1  0.4815240000000  0.4228760000000  0.5005070000000 1.0
C      1  0.5015340000000  0.3981780000000  0.5320570000000 1.0
C      1  0.4056750000000  0.4218010000000  0.4827150000000 1.0
C      1  0.4779230000000  0.5760400000000  0.5070770000000 1.0
C      1  0.4437220000000  0.4337760000000  0.5076840000000 1.0
C      1  0.4898410000000  0.5215400000000  0.4083510000000 1.0
C      1  0.4751840000000  0.4944450000000  0.6103700000000 1.0
C      1  0.5976260000000  0.5014080000000  0.5497230000000 1.0
C      1  0.4774150000000  0.4657150000000  0.4039960000000 1.0
C      1  0.4839230000000  0.4403320000000  0.5454580000000 1.0
C      1  0.5707540000000  0.4458140000000  0.4822630000000 1.0
C      1  0.4385860000000  0.4814630000000  0.4479270000000 1.0
C      1  0.5665400000000  0.5380230000000  0.5604860000000 1.0
C      1  0.5222790000000  0.4027720000000  0.4333030000000 1.0
C      1  0.5437650000000  0.5203940000000  0.4587440000000 1.0
C      1  0.5001760000000  0.5500200000000  0.5757600000000 1.0
C      1  0.4475190000000  0.4456290000000  0.5780720000000 1.0
C      1  0.6078980000000  0.5270820000000  0.4711210000000 1.0
C      1  0.4743300000000  0.5516640000000  0.4853660000000 1.0
C      1  0.5215520000000  0.5970700000000  0.5689860000000 1.0
C      1  0.4707390000000  0.5508500000000  0.4532520000000 1.0
C      1  0.4693690000000  0.4851830000000  0.5469550000000 1.0
C      1  0.4685730000000  0.3914560000000  0.5030340000000 1.0
C      1  0.4482890000000  0.4580910000000  0.4299600000000 1.0
C      1  0.5087470000000  0.4116390000000  0.5625930000000 1.0
C      1  0.4934220000000  0.4796680000000  0.5782880000000 1.0
C      1  0.4321330000000  0.4579910000000  0.4693260000000 1.0
C      1  0.5375050000000  0.4198180000000  0.5757610000000 1.0
C      1  0.5080830000000  0.4576590000000  0.5964700000000 1.0
C      1  0.4451390000000  0.5319170000000  0.4502110000000 1.0
C      1  0.5471180000000  0.4914220000000  0.5527590000000 1.0
C      1  0.4459460000000  0.5065800000000  0.5972080000000 1.0
C      1  0.5352490000000  0.4426200000000  0.5943870000000 1.0
C      1  0.4894870000000  0.4748730000000  0.4346140000000 1.0
C      1  0.5104550000000  0.4902550000000  0.4761200000000 1.0
C      1  0.5661200000000  0.4051740000000  0.5354800000000 1.0
C      1  0.5869410000000  0.5774860000000  0.5041180000000 1.0
C      1  0.5055100000000  0.4856140000000  0.6159060000000 1.0
C      1  0.5741480000000  0.4982580000000  0.5149340000000 1.0
C      1  0.5287200000000  0.4486160000000  0.4519330000000 1.0
C      1  0.4094150000000  0.4898520000000  0.4611700000000 1.0
C      1  0.4111970000000  0.5422470000000  0.4679880000000 1.0
C      1  0.4655480000000  0.5306760000000  0.3912920000000 1.0
C      1  0.5748420000000  0.4769170000000  0.4689810000000 1.0
C      1  0.5815740000000  0.4231450000000  0.5135450000000 1.0
C      1  0.4421140000000  0.4913750000000  0.4915580000000 1.0
C      1  0.5972900000000  0.5565250000000  0.4785500000000 1.0
C      1  0.5553830000000  0.4532240000000  0.5117150000000 1.0
C      1  0.4322810000000  0.5258950000000  0.5539200000000 1.0
C      1  0.4565400000000  0.4163040000000  0.5781690000000 1.0
C      1  0.4865570000000  0.3908430000000  0.4682920000000 1.0
C      1  0.5976120000000  0.5459340000000  0.5114550000000 1.0
C      1  0.4056260000000  0.4607270000000  0.4905090000000 1.0
C      1  0.4796180000000  0.5030020000000  0.4325090000000 1.0
C      1  0.5255770000000  0.6061690000000  0.4553280000000 1.0
C      1  0.4939490000000  0.5654720000000  0.4095120000000 1.0
C      1  0.5619700000000  0.4205150000000  0.5621250000000 1.0
C      1  0.5174140000000  0.5517400000000  0.6115390000000 1.0
C      1  0.3955100000000  0.4863910000000  0.5026010000000 1.0
C      1  0.4288280000000  0.4820570000000  0.5203470000000 1.0
C      1  0.5298590000000  0.5127530000000  0.4881080000000 1.0
C      1  0.4925010000000  0.5936340000000  0.5513370000000 1.0
C      1  0.5674620000000  0.5099350000000  0.5566410000000 1.0
C      1  0.4553490000000  0.4133870000000  0.4592700000000 1.0
C      1  0.4600410000000  0.4581930000000  0.5510990000000 1.0
C      1  0.4209030000000  0.5669600000000  0.4610550000000 1.0
C      1  0.4670670000000  0.5513250000000  0.5825710000000 1.0
END
