TITL C-2778424-3986-1222 0.00391291275725785 125000 -829.489045283159 0 0 143 (C1) n - 1
REM
REM in /home/nfs/bkarasulu/CARBON/AIRSS/Generating-Clusters/REBO/Only-C1/SD-CG/HFTN-CG
REM
REM
REM
REM
REM
REM ./C.cell (11c1c37f851c82e70ff6c80c92926a4b)
REM
REM compiler GCC version 9.2.1 20190827 (Red Hat 9.2.1-1)
REM options -cpp -mtune=generic -march=x86-64 -g -O0 -fpre-include=/usr/include/finclude/math-vector-fortran.h
REM seed -250672794 840602835 -756775882 1100249330 86796511 -950296011 -880217229 330267840 497062691 -1285902234 -1869503791 -1091888012 -428761996 46836401 -503916870 -32414054 -1954986519 -1480106092 -1879799940 1310772889 998575853 -1779405082 1710778232 -655760006 -1957156683 -150078045 -1249096262 -1390960160 -672041432 1700557823 -4129643 1422332540 657100588
REM
CELL 1.54180   50.00000   50.00000   50.00000   90.00000   90.00000   90.00000
LATT -1
SFAC C  
C      1  0.5286470000000  0.5051360000000  0.5881850000000 1.0
C      1  0.5064940000000  0.3985870000000  0.5330380000000 1.0
C      1  0.4098280000000  0.4177220000000  0.5084720000000 1.0
C      1  0.4454980000000  0.4774160000000  0.5845020000000 1.0
C      1  0.4200340000000  0.4454960000000  0.5180650000000 1.0
C      1  0.5671030000000  0.4613710000000  0.4345000000000 1.0
C      1  0.4689090000000  0.5202550000000  0.5203670000000 1.0
C      1  0.5776850000000  0.4886890000000  0.4344060000000 1.0
C      1  0.5777370000000  0.4745590000000  0.5185050000000 1.0
C      1  0.5472650000000  0.5516950000000  0.4709020000000 1.0
C      1  0.5039730000000  0.5197570000000  0.3991400000000 1.0
C      1  0.4745620000000  0.4319180000000  0.5045640000000 1.0
C      1  0.4296910000000  0.5617120000000  0.5153490000000 1.0
C      1  0.4137990000000  0.4777290000000  0.4639390000000 1.0
C      1  0.5361360000000  0.5201570000000  0.5126770000000 1.0
C      1  0.5337330000000  0.4469050000000  0.5254200000000 1.0
C      1  0.5170300000000  0.5329610000000  0.5359760000000 1.0
C      1  0.4520710000000  0.5814630000000  0.5241930000000 1.0
C      1  0.5456090000000  0.4261710000000  0.4740360000000 1.0
C      1  0.4585980000000  0.4821110000000  0.5191600000000 1.0
C      1  0.4315960000000  0.5237120000000  0.4780730000000 1.0
C      1  0.4146650000000  0.5055200000000  0.4573110000000 1.0
C      1  0.5374040000000  0.5575310000000  0.4985600000000 1.0
C      1  0.4894540000000  0.5376150000000  0.5904840000000 1.0
C      1  0.6037680000000  0.4890280000000  0.5558730000000 1.0
C      1  0.6002650000000  0.4914130000000  0.5288030000000 1.0
C      1  0.4756650000000  0.3988470000000  0.5418140000000 1.0
C      1  0.5843360000000  0.5667690000000  0.4837400000000 1.0
C      1  0.4099400000000  0.5354270000000  0.5591480000000 1.0
C      1  0.4493410000000  0.5285990000000  0.5583330000000 1.0
C      1  0.5069850000000  0.5572270000000  0.5058530000000 1.0
C      1  0.4288830000000  0.4660230000000  0.5605840000000 1.0
C      1  0.4892040000000  0.6017310000000  0.4938520000000 1.0
C      1  0.5326380000000  0.5517020000000  0.5818320000000 1.0
C      1  0.5519700000000  0.4726420000000  0.5383100000000 1.0
C      1  0.5801950000000  0.4928120000000  0.5713280000000 1.0
C      1  0.4879000000000  0.5810460000000  0.4694490000000 1.0
C      1  0.4889170000000  0.5429560000000  0.5259390000000 1.0
C      1  0.5544650000000  0.4931130000000  0.5040470000000 1.0
C      1  0.4908880000000  0.4936190000000  0.4718910000000 1.0
C      1  0.4710280000000  0.4628400000000  0.5892100000000 1.0
C      1  0.4484450000000  0.4878820000000  0.4463080000000 1.0
C      1  0.4502320000000  0.5285980000000  0.4238240000000 1.0
C      1  0.5486350000000  0.4335870000000  0.4431230000000 1.0
C      1  0.5254280000000  0.4751840000000  0.4062280000000 1.0
C      1  0.5353540000000  0.4617860000000  0.4337050000000 1.0
C      1  0.4751230000000  0.4056890000000  0.4640340000000 1.0
C      1  0.5769340000000  0.4240080000000  0.5221210000000 1.0
C      1  0.5788670000000  0.4471420000000  0.5052230000000 1.0
C      1  0.4773980000000  0.4377580000000  0.5771910000000 1.0
C      1  0.4979070000000  0.4155000000000  0.5614360000000 1.0
C      1  0.4767930000000  0.4577330000000  0.4627830000000 1.0
C      1  0.5094440000000  0.5041830000000  0.5475880000000 1.0
C      1  0.5939340000000  0.5188880000000  0.5160710000000 1.0
C      1  0.4302710000000  0.5024120000000  0.5686690000000 1.0
C      1  0.4265680000000  0.5089130000000  0.4295960000000 1.0
C      1  0.5715700000000  0.5318410000000  0.4693310000000 1.0
C      1  0.4048570000000  0.5191540000000  0.5062140000000 1.0
C      1  0.4762940000000  0.4640600000000  0.4962120000000 1.0
C      1  0.4387210000000  0.4441610000000  0.5423370000000 1.0
C      1  0.4272960000000  0.4953460000000  0.5159940000000 1.0
C      1  0.5008920000000  0.4803270000000  0.4279010000000 1.0
C      1  0.4930120000000  0.5137670000000  0.4443890000000 1.0
C      1  0.4996590000000  0.5115200000000  0.5796090000000 1.0
C      1  0.5027390000000  0.4515400000000  0.4039620000000 1.0
C      1  0.4946920000000  0.5654100000000  0.4258760000000 1.0
C      1  0.4949830000000  0.4545490000000  0.5301740000000 1.0
C      1  0.4636960000000  0.5003860000000  0.5476860000000 1.0
C      1  0.5335210000000  0.5055360000000  0.4081580000000 1.0
C      1  0.5686260000000  0.4443690000000  0.5778400000000 1.0
C      1  0.5844290000000  0.5502850000000  0.5094310000000 1.0
C      1  0.5221720000000  0.5587170000000  0.5541090000000 1.0
C      1  0.5153680000000  0.4283120000000  0.4479530000000 1.0
C      1  0.4855710000000  0.5874770000000  0.5250770000000 1.0
C      1  0.4610190000000  0.4305720000000  0.4467600000000 1.0
C      1  0.5225920000000  0.6047890000000  0.4889460000000 1.0
C      1  0.5459930000000  0.5572280000000  0.4153410000000 1.0
C      1  0.4500460000000  0.4855380000000  0.4788300000000 1.0
C      1  0.5427780000000  0.5028940000000  0.5408910000000 1.0
C      1  0.4177750000000  0.5298000000000  0.5338020000000 1.0
C      1  0.3972290000000  0.4703030000000  0.5213600000000 1.0
C      1  0.5020840000000  0.4075340000000  0.4688850000000 1.0
C      1  0.5084710000000  0.4664260000000  0.5744240000000 1.0
C      1  0.5675460000000  0.5404970000000  0.4259360000000 1.0
C      1  0.5274350000000  0.4037130000000  0.5150550000000 1.0
C      1  0.5316150000000  0.5060750000000  0.4603960000000 1.0
C      1  0.5597080000000  0.5791230000000  0.4969310000000 1.0
C      1  0.5492660000000  0.4194120000000  0.5275910000000 1.0
C      1  0.4211120000000  0.5703750000000  0.4678940000000 1.0
C      1  0.4654400000000  0.4848300000000  0.4102900000000 1.0
C      1  0.5636250000000  0.5117890000000  0.4210910000000 1.0
C      1  0.5325560000000  0.4781600000000  0.5829550000000 1.0
C      1  0.5165300000000  0.4766770000000  0.4578760000000 1.0
C      1  0.5465150000000  0.5264740000000  0.5828790000000 1.0
C      1  0.5809630000000  0.5581000000000  0.4509270000000 1.0
C      1  0.4758320000000  0.5784050000000  0.4435560000000 1.0
C      1  0.4926400000000  0.4853270000000  0.5257730000000 1.0
C      1  0.4119150000000  0.4883530000000  0.5443380000000 1.0
C      1  0.5066920000000  0.4798130000000  0.4972590000000 1.0
C      1  0.5256810000000  0.4085900000000  0.4861770000000 1.0
C      1  0.4344310000000  0.4313900000000  0.4726140000000 1.0
C      1  0.4409610000000  0.5939710000000  0.4771620000000 1.0
C      1  0.5253010000000  0.5217070000000  0.4855960000000 1.0
C      1  0.4607260000000  0.5543850000000  0.5391800000000 1.0
C      1  0.4911080000000  0.4345790000000  0.4285630000000 1.0
C      1  0.5873370000000  0.4963260000000  0.4605510000000 1.0
C      1  0.4815700000000  0.4872270000000  0.5703380000000 1.0
C      1  0.4933770000000  0.5714720000000  0.5535920000000 1.0
C      1  0.4716660000000  0.5514060000000  0.5704840000000 1.0
C      1  0.5676360000000  0.5262400000000  0.5365240000000 1.0
C      1  0.4576650000000  0.5994180000000  0.4990650000000 1.0
C      1  0.5409490000000  0.5733090000000  0.5350610000000 1.0
C      1  0.4694880000000  0.5085900000000  0.4913490000000 1.0
C      1  0.4422690000000  0.5313860000000  0.5095660000000 1.0
C      1  0.5538310000000  0.5781470000000  0.4574240000000 1.0
C      1  0.5341440000000  0.4699510000000  0.5005740000000 1.0
C      1  0.4744040000000  0.4637000000000  0.4293130000000 1.0
C      1  0.4564370000000  0.4189780000000  0.5270500000000 1.0
C      1  0.5685410000000  0.5183660000000  0.5672690000000 1.0
C      1  0.4126330000000  0.5481770000000  0.4892080000000 1.0
C      1  0.5099910000000  0.4449860000000  0.5555450000000 1.0
C      1  0.4469670000000  0.5803110000000  0.4481160000000 1.0
C      1  0.4714220000000  0.4410570000000  0.5459540000000 1.0
C      1  0.4188300000000  0.4111090000000  0.4852080000000 1.0
C      1  0.4361400000000  0.4588960000000  0.4910620000000 1.0
C      1  0.5075830000000  0.4404190000000  0.5038840000000 1.0
C      1  0.5591060000000  0.4695120000000  0.5699010000000 1.0
C      1  0.4535890000000  0.5201540000000  0.4565960000000 1.0
C      1  0.5195530000000  0.5512920000000  0.4245850000000 1.0
C      1  0.5635860000000  0.5575640000000  0.5301160000000 1.0
C      1  0.5104840000000  0.5528960000000  0.6000400000000 1.0
C      1  0.5217580000000  0.5220270000000  0.4347580000000 1.0
C      1  0.5546440000000  0.4476550000000  0.4896170000000 1.0
C      1  0.5957090000000  0.5162990000000  0.4849130000000 1.0
C      1  0.4806240000000  0.5317800000000  0.4690690000000 1.0
C      1  0.4769870000000  0.5136770000000  0.4162180000000 1.0
C      1  0.4931930000000  0.5556920000000  0.4797820000000 1.0
C      1  0.5592510000000  0.5030750000000  0.4757520000000 1.0
C      1  0.4056460000000  0.4719520000000  0.4921620000000 1.0
C      1  0.4378180000000  0.4568920000000  0.4512310000000 1.0
C      1  0.5075370000000  0.4477760000000  0.4735010000000 1.0
C      1  0.5400680000000  0.5998580000000  0.4689280000000 1.0
C      1  0.5186400000000  0.5875940000000  0.5164340000000 1.0
END
