TITL C-2778430-5657-1038 -0.00110487902032672 125000 -721.97619948441 0 0 127 (C1) n - 1
REM
REM in /home/nfs/bkarasulu/CARBON/AIRSS/Generating-Clusters/REBO/Only-C1/SD-CG/HFTN-CG
REM
REM
REM
REM
REM
REM ./C.cell (11c1c37f851c82e70ff6c80c92926a4b)
REM
REM compiler GCC version 9.2.1 20190827 (Red Hat 9.2.1-1)
REM options -cpp -mtune=generic -march=x86-64 -g -O0 -fpre-include=/usr/include/finclude/math-vector-fortran.h
REM seed -1609125149 -1838746747 1288718594 -1994023237 -722855582 265521534 -1762416751 367751854 -1409354104 -1803760483 1118833075 -133972346 -2096173074 1928884763 138408344 900915307 -402278340 1338753962 -903956669 -456530820 -566967749 -1838299607 131537366 868061637 -1604700025 1891360149 -2030515656 1549699955 325298207 1784800018 1142982172 -887321746 -752867624
REM
CELL 1.54180   50.00000   50.00000   50.00000   90.00000   90.00000   90.00000
LATT -1
SFAC C  
C      1  0.4664270000000  0.4817660000000  0.5972990000000 1.0
C      1  0.4661970000000  0.4396740000000  0.4442760000000 1.0
C      1  0.4568860000000  0.5260190000000  0.5297310000000 1.0
C      1  0.5792000000000  0.4999370000000  0.4872410000000 1.0
C      1  0.4375180000000  0.5149970000000  0.4830180000000 1.0
C      1  0.5711140000000  0.5442740000000  0.4598940000000 1.0
C      1  0.4486670000000  0.5049610000000  0.5890960000000 1.0
C      1  0.4669090000000  0.4876920000000  0.4217310000000 1.0
C      1  0.4230120000000  0.4512790000000  0.5202890000000 1.0
C      1  0.4599270000000  0.5744520000000  0.4454420000000 1.0
C      1  0.5609550000000  0.4278120000000  0.5478370000000 1.0
C      1  0.4905710000000  0.5055590000000  0.4628740000000 1.0
C      1  0.5599180000000  0.5395020000000  0.4914330000000 1.0
C      1  0.4129410000000  0.5088660000000  0.4484260000000 1.0
C      1  0.4393540000000  0.4484770000000  0.5571490000000 1.0
C      1  0.5230700000000  0.4912170000000  0.5047240000000 1.0
C      1  0.5501120000000  0.5680180000000  0.4468700000000 1.0
C      1  0.5252150000000  0.4950710000000  0.5524770000000 1.0
C      1  0.4789790000000  0.5013880000000  0.5272700000000 1.0
C      1  0.4891920000000  0.5767030000000  0.4629640000000 1.0
C      1  0.5845780000000  0.4575680000000  0.5137870000000 1.0
C      1  0.4779890000000  0.4184850000000  0.5464080000000 1.0
C      1  0.4855070000000  0.4499140000000  0.4904750000000 1.0
C      1  0.5017590000000  0.4517800000000  0.5365940000000 1.0
C      1  0.4756350000000  0.5901710000000  0.5137160000000 1.0
C      1  0.5296120000000  0.4383050000000  0.4467900000000 1.0
C      1  0.4955510000000  0.5751430000000  0.4936320000000 1.0
C      1  0.3988760000000  0.5086870000000  0.4772090000000 1.0
C      1  0.5377340000000  0.5016310000000  0.4648100000000 1.0
C      1  0.5122510000000  0.4733010000000  0.4538430000000 1.0
C      1  0.4538140000000  0.4713980000000  0.5354580000000 1.0
C      1  0.4965910000000  0.4896180000000  0.4887460000000 1.0
C      1  0.5784500000000  0.4741790000000  0.4695430000000 1.0
C      1  0.4864350000000  0.4101180000000  0.4937680000000 1.0
C      1  0.4950940000000  0.5770880000000  0.5387250000000 1.0
C      1  0.4984650000000  0.4349090000000  0.4356370000000 1.0
C      1  0.4623410000000  0.5179750000000  0.4654800000000 1.0
C      1  0.4916610000000  0.4641800000000  0.5868610000000 1.0
C      1  0.4786200000000  0.5404340000000  0.4370900000000 1.0
C      1  0.5193930000000  0.5030700000000  0.5911470000000 1.0
C      1  0.5068720000000  0.4732500000000  0.5594590000000 1.0
C      1  0.4086440000000  0.5019430000000  0.5389060000000 1.0
C      1  0.5488100000000  0.5103610000000  0.4933510000000 1.0
C      1  0.5561030000000  0.4986810000000  0.5775350000000 1.0
C      1  0.5114130000000  0.5149950000000  0.4109140000000 1.0
C      1  0.5839870000000  0.4901420000000  0.5194890000000 1.0
C      1  0.4938430000000  0.5049260000000  0.5798800000000 1.0
C      1  0.4237390000000  0.4849940000000  0.4779600000000 1.0
C      1  0.5151700000000  0.5222390000000  0.4752660000000 1.0
C      1  0.5398240000000  0.5277330000000  0.5848560000000 1.0
C      1  0.4935880000000  0.4047150000000  0.5267350000000 1.0
C      1  0.5083010000000  0.5687710000000  0.4151830000000 1.0
C      1  0.5492480000000  0.4294370000000  0.4695350000000 1.0
C      1  0.4945200000000  0.5587790000000  0.5662520000000 1.0
C      1  0.4392820000000  0.5546150000000  0.4553380000000 1.0
C      1  0.5377090000000  0.4382130000000  0.5006690000000 1.0
C      1  0.4426060000000  0.5674230000000  0.5470930000000 1.0
C      1  0.5652340000000  0.4373860000000  0.5206510000000 1.0
C      1  0.4756970000000  0.4976560000000  0.5605510000000 1.0
C      1  0.4361600000000  0.4366160000000  0.4923310000000 1.0
C      1  0.4575000000000  0.4723350000000  0.5678740000000 1.0
C      1  0.4954660000000  0.4363540000000  0.5668290000000 1.0
C      1  0.4455490000000  0.5467860000000  0.4874690000000 1.0
C      1  0.5173550000000  0.4138950000000  0.5079580000000 1.0
C      1  0.5414100000000  0.5625050000000  0.4793430000000 1.0
C      1  0.5930330000000  0.4542950000000  0.4873850000000 1.0
C      1  0.5275190000000  0.4648750000000  0.5192160000000 1.0
C      1  0.5153440000000  0.5039090000000  0.4399960000000 1.0
C      1  0.4384430000000  0.4693400000000  0.4982370000000 1.0
C      1  0.5610710000000  0.4864740000000  0.4148450000000 1.0
C      1  0.4301660000000  0.4636030000000  0.3959180000000 1.0
C      1  0.4147630000000  0.5104020000000  0.5072270000000 1.0
C      1  0.4555570000000  0.4132780000000  0.5017240000000 1.0
C      1  0.4821380000000  0.4703250000000  0.4440800000000 1.0
C      1  0.4745810000000  0.5370880000000  0.5666820000000 1.0
C      1  0.4394300000000  0.4746080000000  0.4178560000000 1.0
C      1  0.5792890000000  0.5488910000000  0.5484620000000 1.0
C      1  0.5468360000000  0.4476350000000  0.5622600000000 1.0
C      1  0.5590190000000  0.5514410000000  0.5714620000000 1.0
C      1  0.5760100000000  0.5465970000000  0.5143830000000 1.0
C      1  0.5252530000000  0.5384360000000  0.5325090000000 1.0
C      1  0.4512160000000  0.4319580000000  0.5298740000000 1.0
C      1  0.5419730000000  0.5173900000000  0.5458000000000 1.0
C      1  0.4974490000000  0.4844720000000  0.4101730000000 1.0
C      1  0.4923320000000  0.5478670000000  0.5119160000000 1.0
C      1  0.5255680000000  0.5775930000000  0.5000640000000 1.0
C      1  0.5251360000000  0.5416340000000  0.4276020000000 1.0
C      1  0.5199770000000  0.5544370000000  0.5775590000000 1.0
C      1  0.4482450000000  0.5830250000000  0.5110030000000 1.0
C      1  0.5902950000000  0.5215260000000  0.5314670000000 1.0
C      1  0.5389880000000  0.5741660000000  0.5647520000000 1.0
C      1  0.4920550000000  0.5402280000000  0.4057460000000 1.0
C      1  0.4675490000000  0.4685460000000  0.4714420000000 1.0
C      1  0.5676630000000  0.4031260000000  0.5566720000000 1.0
C      1  0.4868560000000  0.4254340000000  0.4663200000000 1.0
C      1  0.4743060000000  0.5675490000000  0.4165770000000 1.0
C      1  0.5710180000000  0.4663660000000  0.4388620000000 1.0
C      1  0.4266810000000  0.5308160000000  0.5429170000000 1.0
C      1  0.5649040000000  0.5133330000000  0.4150980000000 1.0
C      1  0.5422270000000  0.4591160000000  0.4229940000000 1.0
C      1  0.5109100000000  0.4596540000000  0.4165180000000 1.0
C      1  0.4949230000000  0.5280930000000  0.5406920000000 1.0
C      1  0.4677770000000  0.4856190000000  0.5010510000000 1.0
C      1  0.4771870000000  0.4521370000000  0.5197790000000 1.0
C      1  0.5458560000000  0.4718000000000  0.4607010000000 1.0
C      1  0.5171250000000  0.5766400000000  0.4447980000000 1.0
C      1  0.5161750000000  0.4503360000000  0.4766910000000 1.0
C      1  0.4088840000000  0.4699910000000  0.5376600000000 1.0
C      1  0.5899120000000  0.5225740000000  0.4713100000000 1.0
C      1  0.4681590000000  0.5561930000000  0.5327300000000 1.0
C      1  0.4596150000000  0.5148250000000  0.4321730000000 1.0
C      1  0.5235500000000  0.4463560000000  0.5833890000000 1.0
C      1  0.5285110000000  0.5719860000000  0.5322450000000 1.0
C      1  0.4313630000000  0.5539800000000  0.5175820000000 1.0
C      1  0.4754190000000  0.5476710000000  0.4703570000000 1.0
C      1  0.5353620000000  0.4766470000000  0.5874350000000 1.0
C      1  0.4485200000000  0.5257570000000  0.5687970000000 1.0
C      1  0.5703620000000  0.5020170000000  0.5483350000000 1.0
C      1  0.4395040000000  0.4968350000000  0.5268720000000 1.0
C      1  0.4402590000000  0.4521650000000  0.4623210000000 1.0
C      1  0.5195640000000  0.5467880000000  0.4606920000000 1.0
C      1  0.5440060000000  0.4702570000000  0.5457140000000 1.0
C      1  0.5625890000000  0.5722610000000  0.5300210000000 1.0
C      1  0.5133450000000  0.5240550000000  0.5055060000000 1.0
C      1  0.4245420000000  0.4768760000000  0.4450300000000 1.0
C      1  0.5569860000000  0.5392270000000  0.4295370000000 1.0
C      1  0.4321540000000  0.5291130000000  0.4417980000000 1.0
END
