TITL C-2778433-5640-698 0.00825532314622899 125000 -113.65494000935 0 0 20 (C1) n - 1
REM
REM in /home/nfs/bkarasulu/CARBON/AIRSS/Generating-Clusters/REBO/Only-C1/SD-CG/HFTN-CG
REM
REM
REM
REM
REM
REM ./C.cell (11c1c37f851c82e70ff6c80c92926a4b)
REM
REM compiler GCC version 9.2.1 20190827 (Red Hat 9.2.1-1)
REM options -cpp -mtune=generic -march=x86-64 -g -O0 -fpre-include=/usr/include/finclude/math-vector-fortran.h
REM seed -1242328030 -1899178808 989822157 764009904 691301618 1138150719 -1529205122 -469363547 206243752 -1937039613 -1694856492 -2122844283 -258839843 -1255595595 -2143344993 1036859766 -2076528535 -17824321 -1097239107 876068692 -1989970694 2065452045 1588806547 1360427717 1739476517 -916298920 -510299519 325339129 -360946203 1822735185 -437002198 1255184205 -1796190950
REM
CELL 1.54180   50.00000   50.00000   50.00000   90.00000   90.00000   90.00000
LATT -1
SFAC C  
C      1  0.4347920000000  0.4746370000000  0.5274320000000 1.0
C      1  0.5703740000000  0.5198630000000  0.5121420000000 1.0
C      1  0.5543790000000  0.5215630000000  0.4909190000000 1.0
C      1  0.5375790000000  0.5233490000000  0.4686280000000 1.0
C      1  0.4745900000000  0.4949720000000  0.4966950000000 1.0
C      1  0.5114950000000  0.5134140000000  0.4704300000000 1.0
C      1  0.4011190000000  0.4698370000000  0.4863620000000 1.0
C      1  0.6341020000000  0.5130880000000  0.5967000000000 1.0
C      1  0.4453670000000  0.4950370000000  0.4381750000000 1.0
C      1  0.4854830000000  0.5035070000000  0.4722270000000 1.0
C      1  0.4688420000000  0.5015620000000  0.4496170000000 1.0
C      1  0.5863700000000  0.5181620000000  0.5333660000000 1.0
C      1  0.4127770000000  0.4696420000000  0.5106200000000 1.0
C      1  0.5465060000000  0.5346190000000  0.4454610000000 1.0
C      1  0.4576810000000  0.4853440000000  0.5150970000000 1.0
C      1  0.4034080000000  0.4755380000000  0.4600940000000 1.0
C      1  0.6183610000000  0.5147610000000  0.5758140000000 1.0
C      1  0.4204510000000  0.4852470000000  0.4415180000000 1.0
C      1  0.6023650000000  0.5164620000000  0.5545900000000 1.0
C      1  0.4339580000000  0.4693950000000  0.5541160000000 1.0
END
