TITL C-2778428-5639-778 -0.00234099251035426 125000 -541.348439120018 0 0 95 (C1) n - 1
REM
REM in /home/nfs/bkarasulu/CARBON/AIRSS/Generating-Clusters/REBO/Only-C1/SD-CG/HFTN-CG
REM
REM
REM
REM
REM
REM ./C.cell (11c1c37f851c82e70ff6c80c92926a4b)
REM
REM compiler GCC version 9.2.1 20190827 (Red Hat 9.2.1-1)
REM options -cpp -mtune=generic -march=x86-64 -g -O0 -fpre-include=/usr/include/finclude/math-vector-fortran.h
REM seed 1657024454 -1159794591 1572393383 638811899 -1015392082 -1228718444 -498549783 1899077042 -1477889434 -127960616 587524616 -690660907 1678653664 1240869300 1558353122 -1482070195 -514235288 -968819897 -4687140 1832675554 -1392863590 1444311130 -1107718918 -977854243 1243070866 560124207 1585994869 775423010 -1117002679 30305863 1536629149 177954244 -43175996
REM
CELL 1.54180   50.00000   50.00000   50.00000   90.00000   90.00000   90.00000
LATT -1
SFAC C  
C      1  0.5323900000000  0.4716310000000  0.5117540000000 1.0
C      1  0.4382650000000  0.5401040000000  0.4454370000000 1.0
C      1  0.4245620000000  0.5122970000000  0.5406990000000 1.0
C      1  0.5462480000000  0.5093050000000  0.4783550000000 1.0
C      1  0.4608930000000  0.5117360000000  0.4740120000000 1.0
C      1  0.4412930000000  0.5540010000000  0.5166880000000 1.0
C      1  0.5356060000000  0.4829210000000  0.4218110000000 1.0
C      1  0.5023640000000  0.5089970000000  0.3903910000000 1.0
C      1  0.4765210000000  0.4592070000000  0.4797100000000 1.0
C      1  0.5415800000000  0.5393510000000  0.5505960000000 1.0
C      1  0.5644320000000  0.4434520000000  0.4926850000000 1.0
C      1  0.4233780000000  0.5242890000000  0.4786970000000 1.0
C      1  0.6348090000000  0.4765530000000  0.5230820000000 1.0
C      1  0.5511790000000  0.4429660000000  0.5455500000000 1.0
C      1  0.5101490000000  0.4191330000000  0.5140210000000 1.0
C      1  0.5119750000000  0.5247020000000  0.5036470000000 1.0
C      1  0.4958650000000  0.5780710000000  0.5051750000000 1.0
C      1  0.4907130000000  0.5454770000000  0.4992670000000 1.0
C      1  0.4805750000000  0.4589070000000  0.4399910000000 1.0
C      1  0.4983280000000  0.5653020000000  0.4731530000000 1.0
C      1  0.4587990000000  0.4981090000000  0.5263170000000 1.0
C      1  0.4442700000000  0.5036940000000  0.4182900000000 1.0
C      1  0.5420790000000  0.4818190000000  0.4608840000000 1.0
C      1  0.5094040000000  0.4758770000000  0.5829880000000 1.0
C      1  0.5034950000000  0.4435160000000  0.4402310000000 1.0
C      1  0.5059250000000  0.4988810000000  0.4893620000000 1.0
C      1  0.4422270000000  0.5679100000000  0.4915460000000 1.0
C      1  0.5080770000000  0.4169330000000  0.5470760000000 1.0
C      1  0.4531150000000  0.4970100000000  0.5811780000000 1.0
C      1  0.6132670000000  0.4765650000000  0.5091820000000 1.0
C      1  0.5476820000000  0.5096150000000  0.4271510000000 1.0
C      1  0.4431760000000  0.4862060000000  0.5520350000000 1.0
C      1  0.5879860000000  0.4943060000000  0.4964710000000 1.0
C      1  0.4897110000000  0.4971130000000  0.5650520000000 1.0
C      1  0.5939790000000  0.5467470000000  0.4842010000000 1.0
C      1  0.5333730000000  0.4557780000000  0.5685520000000 1.0
C      1  0.4337230000000  0.4798950000000  0.4486290000000 1.0
C      1  0.5023730000000  0.4672940000000  0.4812040000000 1.0
C      1  0.4202820000000  0.4413480000000  0.4815560000000 1.0
C      1  0.5502600000000  0.4435350000000  0.4687990000000 1.0
C      1  0.4996350000000  0.4684460000000  0.5511990000000 1.0
C      1  0.5351640000000  0.5196120000000  0.5744440000000 1.0
C      1  0.4713480000000  0.5341520000000  0.4506750000000 1.0
C      1  0.4456140000000  0.4363140000000  0.4677560000000 1.0
C      1  0.5306270000000  0.5695690000000  0.5394610000000 1.0
C      1  0.5676530000000  0.5345600000000  0.4705490000000 1.0
C      1  0.4884360000000  0.4874270000000  0.4381730000000 1.0
C      1  0.4389020000000  0.5383100000000  0.5428640000000 1.0
C      1  0.4268320000000  0.5538410000000  0.4717380000000 1.0
C      1  0.5025770000000  0.5251900000000  0.4423650000000 1.0
C      1  0.5326250000000  0.4561120000000  0.4425720000000 1.0
C      1  0.5049680000000  0.4381450000000  0.5714250000000 1.0
C      1  0.5348780000000  0.4897040000000  0.5659340000000 1.0
C      1  0.5039030000000  0.4462820000000  0.5327750000000 1.0
C      1  0.4808960000000  0.5165650000000  0.5397140000000 1.0
C      1  0.4264880000000  0.5066360000000  0.4545750000000 1.0
C      1  0.5023960000000  0.5340130000000  0.5564630000000 1.0
C      1  0.5182710000000  0.5507510000000  0.4529970000000 1.0
C      1  0.4616900000000  0.5445250000000  0.5606950000000 1.0
C      1  0.4721930000000  0.5224530000000  0.5797810000000 1.0
C      1  0.4521730000000  0.4570010000000  0.4482100000000 1.0
C      1  0.4152290000000  0.4870870000000  0.5235400000000 1.0
C      1  0.4856640000000  0.5607350000000  0.5501420000000 1.0
C      1  0.5586790000000  0.5294660000000  0.5227430000000 1.0
C      1  0.4609310000000  0.4653920000000  0.5037260000000 1.0
C      1  0.5512170000000  0.4474950000000  0.5183740000000 1.0
C      1  0.4683660000000  0.5767750000000  0.4849960000000 1.0
C      1  0.5136340000000  0.4977780000000  0.4583630000000 1.0
C      1  0.5796330000000  0.5219210000000  0.4998150000000 1.0
C      1  0.5205030000000  0.5217540000000  0.5317880000000 1.0
C      1  0.5421560000000  0.5287910000000  0.4511220000000 1.0
C      1  0.4649760000000  0.5034900000000  0.4412900000000 1.0
C      1  0.5914220000000  0.4592460000000  0.4917250000000 1.0
C      1  0.5042630000000  0.5267080000000  0.5876670000000 1.0
C      1  0.5492900000000  0.5603850000000  0.5177690000000 1.0
C      1  0.5187710000000  0.4453600000000  0.4952840000000 1.0
C      1  0.4301170000000  0.5252530000000  0.4194660000000 1.0
C      1  0.4380050000000  0.4649380000000  0.5186840000000 1.0
C      1  0.5702740000000  0.4778690000000  0.4732340000000 1.0
C      1  0.4568410000000  0.4604800000000  0.5659480000000 1.0
C      1  0.4934240000000  0.4235580000000  0.4861840000000 1.0
C      1  0.5308950000000  0.4928610000000  0.5363210000000 1.0
C      1  0.5034590000000  0.5766330000000  0.5345520000000 1.0
C      1  0.4963250000000  0.5153480000000  0.3664240000000 1.0
C      1  0.5095170000000  0.5014750000000  0.4187810000000 1.0
C      1  0.5309010000000  0.5278480000000  0.6056580000000 1.0
C      1  0.4119080000000  0.4598770000000  0.5024800000000 1.0
C      1  0.5485990000000  0.5717340000000  0.4924100000000 1.0
C      1  0.4684120000000  0.4203590000000  0.4764650000000 1.0
C      1  0.4756330000000  0.4951030000000  0.4968520000000 1.0
C      1  0.4683270000000  0.5351850000000  0.5160610000000 1.0
C      1  0.5373290000000  0.5722760000000  0.4680310000000 1.0
C      1  0.5452750000000  0.5028300000000  0.5069330000000 1.0
C      1  0.4428940000000  0.5167180000000  0.5025200000000 1.0
C      1  0.4755390000000  0.4471130000000  0.5748610000000 1.0
END
