TITL C-2778437-8639-977 -0.000323204591871368 125000 -227.262848642549 0 0 39 (C1) n - 1
REM
REM in /home/nfs/bkarasulu/CARBON/AIRSS/Generating-Clusters/REBO/Only-C1/SD-CG/HFTN-CG
REM
REM
REM
REM
REM
REM ./C.cell (11c1c37f851c82e70ff6c80c92926a4b)
REM
REM compiler GCC version 9.2.1 20190827 (Red Hat 9.2.1-1)
REM options -cpp -mtune=generic -march=x86-64 -g -O0 -fpre-include=/usr/include/finclude/math-vector-fortran.h
REM seed -1323717723 -450410121 1901000000 186674235 1574602916 -2129648133 -771742271 -1421254293 -227220535 1315412464 -663649078 -1759722419 -1540909414 -953179380 23408242 463297729 853675985 1101433822 -601335816 27147638 1653527033 1890636909 488544204 -1163839836 1811377102 428793019 -974953221 1049202767 1067895578 -287523432 -622651988 -513065258 -575956056
REM
CELL 1.54180   50.00000   50.00000   50.00000   90.00000   90.00000   90.00000
LATT -1
SFAC C  
C      1  0.4955450000000  0.4681020000000  0.5690490000000 1.0
C      1  0.5268000000000  0.4593910000000  0.4550740000000 1.0
C      1  0.5217870000000  0.5428930000000  0.4784430000000 1.0
C      1  0.4841400000000  0.4772960000000  0.4812050000000 1.0
C      1  0.5467970000000  0.4688200000000  0.5556960000000 1.0
C      1  0.4591700000000  0.5309330000000  0.5194480000000 1.0
C      1  0.4849320000000  0.5132210000000  0.5578500000000 1.0
C      1  0.5225340000000  0.4646060000000  0.5685850000000 1.0
C      1  0.5626350000000  0.5188640000000  0.4701410000000 1.0
C      1  0.4798880000000  0.5156280000000  0.4508450000000 1.0
C      1  0.4785840000000  0.5252320000000  0.3960530000000 1.0
C      1  0.5332100000000  0.4751860000000  0.4778790000000 1.0
C      1  0.4791820000000  0.5208270000000  0.4211830000000 1.0
C      1  0.4327320000000  0.5099690000000  0.4981900000000 1.0
C      1  0.5330260000000  0.5032700000000  0.5279980000000 1.0
C      1  0.4624630000000  0.4585620000000  0.5209220000000 1.0
C      1  0.5072550000000  0.5187640000000  0.4672390000000 1.0
C      1  0.4563200000000  0.4803610000000  0.5383090000000 1.0
C      1  0.5092570000000  0.4944060000000  0.4858340000000 1.0
C      1  0.5583210000000  0.4922000000000  0.4723280000000 1.0
C      1  0.4683520000000  0.4884630000000  0.4608750000000 1.0
C      1  0.5605050000000  0.5395260000000  0.5126620000000 1.0
C      1  0.4408570000000  0.4824900000000  0.4594300000000 1.0
C      1  0.4429820000000  0.5026430000000  0.5262560000000 1.0
C      1  0.5597920000000  0.5161590000000  0.5291000000000 1.0
C      1  0.5336260000000  0.4578910000000  0.5034930000000 1.0
C      1  0.4759300000000  0.4860830000000  0.5592020000000 1.0
C      1  0.4717520000000  0.5388950000000  0.4705060000000 1.0
C      1  0.4233400000000  0.4916240000000  0.4786850000000 1.0
C      1  0.5495110000000  0.5388050000000  0.4858860000000 1.0
C      1  0.4826590000000  0.4564490000000  0.5009770000000 1.0
C      1  0.4500710000000  0.5330430000000  0.4876090000000 1.0
C      1  0.5083020000000  0.4453910000000  0.5078130000000 1.0
C      1  0.4857260000000  0.5514370000000  0.5131030000000 1.0
C      1  0.4932820000000  0.5516040000000  0.4852750000000 1.0
C      1  0.5507770000000  0.4645480000000  0.5241380000000 1.0
C      1  0.4899370000000  0.5231090000000  0.5290210000000 1.0
C      1  0.5097690000000  0.5051900000000  0.5149220000000 1.0
C      1  0.5682520000000  0.4881200000000  0.5387760000000 1.0
END
