TITL C-2778427-5640-500 -0.00292026909527384 125000 -1046.95905229014 0 0 181 (C1) n - 1
REM
REM in /home/nfs/bkarasulu/CARBON/AIRSS/Generating-Clusters/REBO/Only-C1/SD-CG/HFTN-CG
REM
REM
REM
REM
REM
REM ./C.cell (11c1c37f851c82e70ff6c80c92926a4b)
REM
REM compiler GCC version 9.2.1 20190827 (Red Hat 9.2.1-1)
REM options -cpp -mtune=generic -march=x86-64 -g -O0 -fpre-include=/usr/include/finclude/math-vector-fortran.h
REM seed -574899183 -917388231 -354364567 -516375791 838666375 -1235704058 -19996240 1642946621 -156094973 470485695 173788325 781019673 1745775250 1356598142 1024311414 -1072098711 1775410275 -2078314435 -1978421253 828843700 994979722 990445012 -627426809 -1529389858 -1468230412 1619402781 87289353 271174669 -86333573 1201893780 -2113322094 -1482920823 453842812
REM
CELL 1.54180   50.00000   50.00000   50.00000   90.00000   90.00000   90.00000
LATT -1
SFAC C  
C      1  0.4981510000000  0.4327570000000  0.5892730000000 1.0
C      1  0.4700910000000  0.5268180000000  0.4352110000000 1.0
C      1  0.4410060000000  0.4571120000000  0.5701920000000 1.0
C      1  0.4696420000000  0.5351150000000  0.6066870000000 1.0
C      1  0.4449760000000  0.5010360000000  0.4522740000000 1.0
C      1  0.5574340000000  0.5336480000000  0.4580280000000 1.0
C      1  0.4327480000000  0.4148940000000  0.4706230000000 1.0
C      1  0.4939520000000  0.5752700000000  0.4443090000000 1.0
C      1  0.4761980000000  0.4167320000000  0.5693280000000 1.0
C      1  0.5492750000000  0.5993230000000  0.4874680000000 1.0
C      1  0.4558180000000  0.5495000000000  0.5047210000000 1.0
C      1  0.5127790000000  0.5282050000000  0.4971930000000 1.0
C      1  0.5224480000000  0.5930820000000  0.4450940000000 1.0
C      1  0.4790580000000  0.3962700000000  0.5117030000000 1.0
C      1  0.5598860000000  0.5641320000000  0.5611680000000 1.0
C      1  0.5117330000000  0.4688020000000  0.5075300000000 1.0
C      1  0.4090080000000  0.4867680000000  0.4271510000000 1.0
C      1  0.3975180000000  0.4885790000000  0.4591370000000 1.0
C      1  0.5332600000000  0.5493070000000  0.4703400000000 1.0
C      1  0.4873570000000  0.5281850000000  0.3841600000000 1.0
C      1  0.5038240000000  0.5809970000000  0.4975060000000 1.0
C      1  0.5701990000000  0.4556120000000  0.4351080000000 1.0
C      1  0.3985160000000  0.5159270000000  0.4671620000000 1.0
C      1  0.3993550000000  0.4702900000000  0.4815780000000 1.0
C      1  0.5841910000000  0.5314610000000  0.5318850000000 1.0
C      1  0.4891560000000  0.4707560000000  0.5301660000000 1.0
C      1  0.5818950000000  0.4946170000000  0.5166420000000 1.0
C      1  0.5941530000000  0.4395640000000  0.5295140000000 1.0
C      1  0.4681840000000  0.5410820000000  0.5550730000000 1.0
C      1  0.5020190000000  0.4166430000000  0.5512100000000 1.0
C      1  0.4747610000000  0.4637780000000  0.4937410000000 1.0
C      1  0.4698220000000  0.4201640000000  0.4267250000000 1.0
C      1  0.5589940000000  0.5434800000000  0.5009570000000 1.0
C      1  0.4155560000000  0.5241900000000  0.5415680000000 1.0
C      1  0.5602770000000  0.5046790000000  0.4485790000000 1.0
C      1  0.5195560000000  0.5060750000000  0.6032690000000 1.0
C      1  0.4442250000000  0.4318890000000  0.5239120000000 1.0
C      1  0.5653600000000  0.4877610000000  0.5675630000000 1.0
C      1  0.5454990000000  0.4658820000000  0.5097800000000 1.0
C      1  0.5197830000000  0.4457140000000  0.5510220000000 1.0
C      1  0.4431960000000  0.4751330000000  0.4998860000000 1.0
C      1  0.5009680000000  0.4676280000000  0.4025670000000 1.0
C      1  0.4473290000000  0.4576140000000  0.6005800000000 1.0
C      1  0.3997310000000  0.5311550000000  0.4929600000000 1.0
C      1  0.4651660000000  0.5065860000000  0.3988010000000 1.0
C      1  0.4654630000000  0.4088540000000  0.5375170000000 1.0
C      1  0.5092100000000  0.5699780000000  0.5949460000000 1.0
C      1  0.5060780000000  0.4491330000000  0.4378200000000 1.0
C      1  0.5438590000000  0.4738340000000  0.4763930000000 1.0
C      1  0.4306620000000  0.5394000000000  0.5684390000000 1.0
C      1  0.4612520000000  0.4808200000000  0.5608680000000 1.0
C      1  0.5035720000000  0.5259180000000  0.4364990000000 1.0
C      1  0.5774760000000  0.5049690000000  0.4192130000000 1.0
C      1  0.5677290000000  0.4344410000000  0.5472790000000 1.0
C      1  0.4947410000000  0.4394750000000  0.5286900000000 1.0
C      1  0.4935090000000  0.5097290000000  0.5875050000000 1.0
C      1  0.4058630000000  0.5112230000000  0.5166430000000 1.0
C      1  0.4124340000000  0.4391990000000  0.4835260000000 1.0
C      1  0.5233400000000  0.4976380000000  0.5007360000000 1.0
C      1  0.5752310000000  0.5720730000000  0.5007200000000 1.0
C      1  0.5186040000000  0.4693170000000  0.5673890000000 1.0
C      1  0.4589510000000  0.5644650000000  0.4224410000000 1.0
C      1  0.5557220000000  0.5444060000000  0.5837670000000 1.0
C      1  0.6126740000000  0.4835620000000  0.5089780000000 1.0
C      1  0.4868880000000  0.5719110000000  0.4126890000000 1.0
C      1  0.4196520000000  0.5325240000000  0.4198980000000 1.0
C      1  0.5188730000000  0.5199740000000  0.4073800000000 1.0
C      1  0.5003540000000  0.4994530000000  0.5359120000000 1.0
C      1  0.5508370000000  0.5269760000000  0.5285120000000 1.0
C      1  0.5666960000000  0.4919840000000  0.4883540000000 1.0
C      1  0.5282460000000  0.4977480000000  0.5538260000000 1.0
C      1  0.4292790000000  0.5258540000000  0.4666230000000 1.0
C      1  0.5430740000000  0.4959960000000  0.5257350000000 1.0
C      1  0.4668760000000  0.5020660000000  0.6037930000000 1.0
C      1  0.4324140000000  0.4657480000000  0.4130140000000 1.0
C      1  0.4461980000000  0.5382380000000  0.4137650000000 1.0
C      1  0.4714590000000  0.4351890000000  0.5081720000000 1.0
C      1  0.5286850000000  0.5918980000000  0.5361060000000 1.0
C      1  0.5452620000000  0.4207110000000  0.5688310000000 1.0
C      1  0.5789030000000  0.5351100000000  0.5962740000000 1.0
C      1  0.4564570000000  0.4036440000000  0.4895130000000 1.0
C      1  0.5118200000000  0.5508300000000  0.5225040000000 1.0
C      1  0.6121850000000  0.4603710000000  0.5312750000000 1.0
C      1  0.4240430000000  0.4500930000000  0.5107720000000 1.0
C      1  0.4710970000000  0.6021360000000  0.4885850000000 1.0
C      1  0.4388920000000  0.4206020000000  0.4374920000000 1.0
C      1  0.5253610000000  0.5320180000000  0.6197620000000 1.0
C      1  0.5046980000000  0.4149670000000  0.4994890000000 1.0
C      1  0.4548190000000  0.5340920000000  0.3829090000000 1.0
C      1  0.5864480000000  0.4324040000000  0.5012940000000 1.0
C      1  0.4905030000000  0.5178670000000  0.5159830000000 1.0
C      1  0.5570350000000  0.4378930000000  0.5152780000000 1.0
C      1  0.5297480000000  0.5413820000000  0.5484700000000 1.0
C      1  0.5225000000000  0.4758210000000  0.6005240000000 1.0
C      1  0.4312420000000  0.4714230000000  0.4463620000000 1.0
C      1  0.4285640000000  0.5035040000000  0.4918640000000 1.0
C      1  0.4551050000000  0.5777340000000  0.5328840000000 1.0
C      1  0.4191660000000  0.5013690000000  0.5652840000000 1.0
C      1  0.5330730000000  0.4162830000000  0.5388220000000 1.0
C      1  0.6061980000000  0.5170950000000  0.5103030000000 1.0
C      1  0.4586970000000  0.4731260000000  0.5289720000000 1.0
C      1  0.4550140000000  0.5552930000000  0.5834040000000 1.0
C      1  0.4327780000000  0.5561400000000  0.4694150000000 1.0
C      1  0.3980310000000  0.4808310000000  0.5085680000000 1.0
C      1  0.4434720000000  0.5115040000000  0.5839040000000 1.0
C      1  0.4750590000000  0.5681460000000  0.4858940000000 1.0
C      1  0.5311550000000  0.5533390000000  0.6028730000000 1.0
C      1  0.5873300000000  0.4932310000000  0.4626870000000 1.0
C      1  0.5138120000000  0.4904750000000  0.4209370000000 1.0
C      1  0.5507460000000  0.4342340000000  0.4447300000000 1.0
C      1  0.4490330000000  0.5896300000000  0.5073520000000 1.0
C      1  0.5363000000000  0.5169330000000  0.4778620000000 1.0
C      1  0.4701540000000  0.4715500000000  0.6071150000000 1.0
C      1  0.4469920000000  0.4402320000000  0.4107110000000 1.0
C      1  0.5645030000000  0.4557130000000  0.5685170000000 1.0
C      1  0.4696770000000  0.4298140000000  0.4740890000000 1.0
C      1  0.5099530000000  0.4061790000000  0.4537140000000 1.0
C      1  0.4284740000000  0.5758970000000  0.4927650000000 1.0
C      1  0.5264980000000  0.4328530000000  0.4263950000000 1.0
C      1  0.4218380000000  0.5482820000000  0.5073630000000 1.0
C      1  0.4912650000000  0.4887170000000  0.5658010000000 1.0
C      1  0.4655330000000  0.5186760000000  0.4929120000000 1.0
C      1  0.4299840000000  0.4455560000000  0.4573990000000 1.0
C      1  0.4658670000000  0.4620000000000  0.4634430000000 1.0
C      1  0.4692750000000  0.5408410000000  0.4663530000000 1.0
C      1  0.5474070000000  0.5029160000000  0.4034620000000 1.0
C      1  0.4012000000000  0.4600970000000  0.5309070000000 1.0
C      1  0.5135520000000  0.4379890000000  0.4002510000000 1.0
C      1  0.5377340000000  0.4104260000000  0.5063970000000 1.0
C      1  0.4802730000000  0.4960010000000  0.4242230000000 1.0
C      1  0.5457320000000  0.3819550000000  0.5069340000000 1.0
C      1  0.4785900000000  0.5458000000000  0.5277530000000 1.0
C      1  0.4876890000000  0.4714350000000  0.4442400000000 1.0
C      1  0.5037140000000  0.4457370000000  0.4873830000000 1.0
C      1  0.4489490000000  0.4319020000000  0.5570010000000 1.0
C      1  0.4408210000000  0.4980240000000  0.4185050000000 1.0
C      1  0.4980960000000  0.5959990000000  0.4688130000000 1.0
C      1  0.5298840000000  0.4466470000000  0.4697930000000 1.0
C      1  0.5445440000000  0.5587470000000  0.4297970000000 1.0
C      1  0.4597000000000  0.5978280000000  0.4584320000000 1.0
C      1  0.5730340000000  0.5627930000000  0.5330000000000 1.0
C      1  0.4298000000000  0.4866290000000  0.5369340000000 1.0
C      1  0.4862720000000  0.4171780000000  0.4513540000000 1.0
C      1  0.4949830000000  0.4586350000000  0.6012080000000 1.0
C      1  0.5482260000000  0.5938710000000  0.4603160000000 1.0
C      1  0.5933260000000  0.4634430000000  0.4541070000000 1.0
C      1  0.4906630000000  0.5388030000000  0.5783440000000 1.0
C      1  0.5518770000000  0.4709450000000  0.5923170000000 1.0
C      1  0.4853350000000  0.3689710000000  0.5141010000000 1.0
C      1  0.5254460000000  0.4237490000000  0.5871060000000 1.0
C      1  0.4457080000000  0.5096670000000  0.5196970000000 1.0
C      1  0.4127710000000  0.4686660000000  0.5598740000000 1.0
C      1  0.5829600000000  0.5813010000000  0.4756350000000 1.0
C      1  0.5323200000000  0.5210660000000  0.5754990000000 1.0
C      1  0.5151660000000  0.5520160000000  0.4460310000000 1.0
C      1  0.4340300000000  0.5530050000000  0.5380730000000 1.0
C      1  0.4818800000000  0.5824320000000  0.5433070000000 1.0
C      1  0.5984990000000  0.4423480000000  0.4790860000000 1.0
C      1  0.6136150000000  0.4703390000000  0.4811920000000 1.0
C      1  0.5206930000000  0.5763340000000  0.4149850000000 1.0
C      1  0.4925040000000  0.5705200000000  0.5667740000000 1.0
C      1  0.4795730000000  0.5671490000000  0.6039530000000 1.0
C      1  0.5322440000000  0.4890300000000  0.4495920000000 1.0
C      1  0.5692400000000  0.5739500000000  0.4475520000000 1.0
C      1  0.5316440000000  0.5740470000000  0.5573460000000 1.0
C      1  0.5601020000000  0.4762110000000  0.4208470000000 1.0
C      1  0.5585000000000  0.5330420000000  0.4157300000000 1.0
C      1  0.5473670000000  0.4194610000000  0.4751700000000 1.0
C      1  0.5810300000000  0.5451980000000  0.4382930000000 1.0
C      1  0.5067120000000  0.5495270000000  0.3985550000000 1.0
C      1  0.5807960000000  0.5229510000000  0.4885620000000 1.0
C      1  0.4551860000000  0.5683730000000  0.4512440000000 1.0
C      1  0.5025950000000  0.5918900000000  0.5253710000000 1.0
C      1  0.5962870000000  0.5255870000000  0.4588850000000 1.0
C      1  0.5014790000000  0.5001740000000  0.4574560000000 1.0
C      1  0.5531700000000  0.5890320000000  0.5186920000000 1.0
C      1  0.4800210000000  0.4408020000000  0.4026530000000 1.0
C      1  0.4703840000000  0.4956650000000  0.4704840000000 1.0
C      1  0.5311000000000  0.5634150000000  0.4973270000000 1.0
C      1  0.4553390000000  0.5130930000000  0.5515860000000 1.0
C      1  0.5757280000000  0.5024460000000  0.5477260000000 1.0
END
