TITL C-2778422-5617-1215 0.00263118314510071 125000 -160.267956808112 0 0 30 (C1) n - 1
REM
REM in /home/nfs/bkarasulu/CARBON/AIRSS/Generating-Clusters/REBO/Only-C1/SD-CG/HFTN-CG
REM
REM
REM
REM
REM
REM ./C.cell (11c1c37f851c82e70ff6c80c92926a4b)
REM
REM compiler GCC version 9.2.1 20190827 (Red Hat 9.2.1-1)
REM options -cpp -mtune=generic -march=x86-64 -g -O0 -fpre-include=/usr/include/finclude/math-vector-fortran.h
REM seed -288575068 143018904 -840335925 -1824180033 -1099811993 1444509762 2049614473 438082356 -34732022 936674871 783944945 -701244097 1281965769 -462942947 -1618016400 -1818396970 8946155 1412209732 -1982716647 -1232693414 1970616879 1292577440 1692333405 1271603220 -2102422528 -1985767823 -2130619609 859493449 -22420130 -665822515 -907276862 215997802 6402719
REM
CELL 1.54180   50.00000   50.00000   50.00000   90.00000   90.00000   90.00000
LATT -1
SFAC C  
C      1  0.4662850000000  0.5332150000000  0.4842630000000 1.0
C      1  0.4010430000000  0.4851060000000  0.4644910000000 1.0
C      1  0.4912770000000  0.4686380000000  0.5660670000000 1.0
C      1  0.4917860000000  0.5351290000000  0.5253000000000 1.0
C      1  0.5094040000000  0.5080090000000  0.4507060000000 1.0
C      1  0.5243210000000  0.4939180000000  0.5154630000000 1.0
C      1  0.5167310000000  0.5466530000000  0.5169540000000 1.0
C      1  0.5375050000000  0.5464030000000  0.5362080000000 1.0
C      1  0.5262480000000  0.5327780000000  0.4549970000000 1.0
C      1  0.5594610000000  0.5004040000000  0.4729960000000 1.0
C      1  0.4827520000000  0.4986050000000  0.4948590000000 1.0
C      1  0.4795600000000  0.4605200000000  0.4881640000000 1.0
C      1  0.4903820000000  0.4737270000000  0.5167670000000 1.0
C      1  0.5264090000000  0.4674720000000  0.5341960000000 1.0
C      1  0.4953320000000  0.5215690000000  0.4770940000000 1.0
C      1  0.5439510000000  0.5254680000000  0.5527730000000 1.0
C      1  0.5509360000000  0.5232220000000  0.4848090000000 1.0
C      1  0.4995990000000  0.4549650000000  0.5414850000000 1.0
C      1  0.4259110000000  0.4918970000000  0.4720390000000 1.0
C      1  0.4954480000000  0.5049900000000  0.5302890000000 1.0
C      1  0.5190430000000  0.4811860000000  0.4536550000000 1.0
C      1  0.5472030000000  0.4803660000000  0.4587030000000 1.0
C      1  0.5224070000000  0.5388780000000  0.4884160000000 1.0
C      1  0.4992270000000  0.4954870000000  0.5625870000000 1.0
C      1  0.4685570000000  0.5434920000000  0.5109540000000 1.0
C      1  0.4471000000000  0.5142500000000  0.4785710000000 1.0
C      1  0.5301670000000  0.4984680000000  0.5488010000000 1.0
C      1  0.4564250000000  0.4818090000000  0.4812270000000 1.0
C      1  0.5030380000000  0.4606960000000  0.4634390000000 1.0
C      1  0.4924930000000  0.4326820000000  0.4737290000000 1.0
END
