TITL C-2778428-5639-918 -0.0002440376518662 125000 -260.086374122576 0 0 46 (C1) n - 1
REM
REM in /home/nfs/bkarasulu/CARBON/AIRSS/Generating-Clusters/REBO/Only-C1/SD-CG/HFTN-CG
REM
REM
REM
REM
REM
REM ./C.cell (11c1c37f851c82e70ff6c80c92926a4b)
REM
REM compiler GCC version 9.2.1 20190827 (Red Hat 9.2.1-1)
REM options -cpp -mtune=generic -march=x86-64 -g -O0 -fpre-include=/usr/include/finclude/math-vector-fortran.h
REM seed 1860752051 -260271869 233791494 1017667273 767958419 2143185271 1375791576 -201571971 -959930327 -1887148020 -1287670133 1023751073 -1621708619 -865169558 444832654 -1723909072 -1021753694 800475389 1621851587 -1541671751 81520190 1572091614 1115934366 -185048849 -1421894974 715453336 716578895 1226452907 325287986 -838875319 2120168316 688701950 -1456676904
REM
CELL 1.54180   50.00000   50.00000   50.00000   90.00000   90.00000   90.00000
LATT -1
SFAC C  
C      1  0.4504590000000  0.4668430000000  0.5224240000000 1.0
C      1  0.4973240000000  0.4674520000000  0.5003200000000 1.0
C      1  0.4570360000000  0.5045560000000  0.4878040000000 1.0
C      1  0.5223840000000  0.5443140000000  0.4861180000000 1.0
C      1  0.4689880000000  0.4989150000000  0.4501000000000 1.0
C      1  0.4370300000000  0.4825320000000  0.5043190000000 1.0
C      1  0.5497150000000  0.4395900000000  0.5160960000000 1.0
C      1  0.4740050000000  0.5232250000000  0.5502260000000 1.0
C      1  0.4781370000000  0.4789180000000  0.5260800000000 1.0
C      1  0.4825140000000  0.4958630000000  0.5512610000000 1.0
C      1  0.4761910000000  0.4281830000000  0.4802920000000 1.0
C      1  0.4734240000000  0.5537320000000  0.4796780000000 1.0
C      1  0.5227490000000  0.4836310000000  0.4492470000000 1.0
C      1  0.4228650000000  0.5010330000000  0.4841160000000 1.0
C      1  0.4474450000000  0.4382820000000  0.5230820000000 1.0
C      1  0.5332910000000  0.4878360000000  0.5794980000000 1.0
C      1  0.5358910000000  0.5576130000000  0.5138910000000 1.0
C      1  0.4985760000000  0.5685700000000  0.5444500000000 1.0
C      1  0.5051800000000  0.5884010000000  0.5004490000000 1.0
C      1  0.4795990000000  0.5471940000000  0.4470830000000 1.0
C      1  0.4599570000000  0.4244510000000  0.5017450000000 1.0
C      1  0.5175270000000  0.5115650000000  0.4485270000000 1.0
C      1  0.5602010000000  0.5367320000000  0.4537180000000 1.0
C      1  0.5407950000000  0.4124940000000  0.4399170000000 1.0
C      1  0.5414550000000  0.4663190000000  0.5322360000000 1.0
C      1  0.5340790000000  0.5314840000000  0.4612500000000 1.0
C      1  0.5016640000000  0.5679370000000  0.4822100000000 1.0
C      1  0.4588610000000  0.5273590000000  0.4657830000000 1.0
C      1  0.4896950000000  0.4552380000000  0.4731170000000 1.0
C      1  0.5472880000000  0.4846170000000  0.6021690000000 1.0
C      1  0.5176230000000  0.5782770000000  0.5246780000000 1.0
C      1  0.5330350000000  0.4906740000000  0.5458320000000 1.0
C      1  0.5151060000000  0.4571520000000  0.4556170000000 1.0
C      1  0.4333130000000  0.4256900000000  0.5425890000000 1.0
C      1  0.5849260000000  0.5416990000000  0.4465900000000 1.0
C      1  0.5080090000000  0.5194640000000  0.5043420000000 1.0
C      1  0.5225940000000  0.4560280000000  0.5093980000000 1.0
C      1  0.5061430000000  0.4916230000000  0.5644840000000 1.0
C      1  0.5282950000000  0.4342240000000  0.4475570000000 1.0
C      1  0.4696920000000  0.4736110000000  0.4579320000000 1.0
C      1  0.4854860000000  0.4983010000000  0.5001890000000 1.0
C      1  0.4813060000000  0.5469890000000  0.5358860000000 1.0
C      1  0.4903860000000  0.5190750000000  0.4427630000000 1.0
C      1  0.4849980000000  0.5421150000000  0.5077230000000 1.0
C      1  0.5449640000000  0.5364510000000  0.5303540000000 1.0
C      1  0.5297960000000  0.5137500000000  0.5268580000000 1.0
END
