TITL C-2778432-5617-238 0.00158137293621254 125000 -284.79052966598 0 0 50 (C1) n - 1
REM
REM in /home/nfs/bkarasulu/CARBON/AIRSS/Generating-Clusters/REBO/Only-C1/SD-CG/HFTN-CG
REM
REM
REM
REM
REM
REM ./C.cell (11c1c37f851c82e70ff6c80c92926a4b)
REM
REM compiler GCC version 9.2.1 20190827 (Red Hat 9.2.1-1)
REM options -cpp -mtune=generic -march=x86-64 -g -O0 -fpre-include=/usr/include/finclude/math-vector-fortran.h
REM seed -1800761780 499115797 -2004485584 -654773455 391606191 -1126875935 -1733079743 -1786080029 -1270261001 -302427323 654340410 -2034295861 -491394222 -849630032 758864044 -1140695286 1218692184 -1217496096 2025637836 -1842171683 1712016490 -610898076 -1662441710 2056460922 671114903 -2144720925 -171627265 1533311388 1138063591 971636364 1532451339 1015958308 639565591
REM
CELL 1.54180   50.00000   50.00000   50.00000   90.00000   90.00000   90.00000
LATT -1
SFAC C  
C      1  0.5112290000000  0.5183710000000  0.4244560000000 1.0
C      1  0.4608070000000  0.4894520000000  0.5488910000000 1.0
C      1  0.5467640000000  0.4667850000000  0.5047740000000 1.0
C      1  0.4675960000000  0.4927550000000  0.4635000000000 1.0
C      1  0.4820380000000  0.5656840000000  0.5187290000000 1.0
C      1  0.5831970000000  0.5008030000000  0.4887410000000 1.0
C      1  0.4811720000000  0.4779100000000  0.5034620000000 1.0
C      1  0.4983970000000  0.4472340000000  0.5495610000000 1.0
C      1  0.4950190000000  0.5284310000000  0.5216450000000 1.0
C      1  0.4375060000000  0.4798870000000  0.4999280000000 1.0
C      1  0.5582690000000  0.5449920000000  0.4779460000000 1.0
C      1  0.4598160000000  0.5502990000000  0.5138520000000 1.0
C      1  0.5279570000000  0.4880580000000  0.4576730000000 1.0
C      1  0.4906710000000  0.4237730000000  0.4978020000000 1.0
C      1  0.4433760000000  0.4812140000000  0.4723980000000 1.0
C      1  0.4543220000000  0.5057920000000  0.5701250000000 1.0
C      1  0.4871370000000  0.5347500000000  0.4616970000000 1.0
C      1  0.4579900000000  0.5237280000000  0.5037630000000 1.0
C      1  0.5089480000000  0.5030250000000  0.5492110000000 1.0
C      1  0.4813850000000  0.4781140000000  0.4438020000000 1.0
C      1  0.5512310000000  0.5607860000000  0.5027610000000 1.0
C      1  0.5079060000000  0.4698160000000  0.5417060000000 1.0
C      1  0.5090970000000  0.5060310000000  0.5000230000000 1.0
C      1  0.5158790000000  0.4659670000000  0.4707520000000 1.0
C      1  0.5263120000000  0.4842820000000  0.5186640000000 1.0
C      1  0.5308110000000  0.5135800000000  0.4451550000000 1.0
C      1  0.4618960000000  0.4380360000000  0.5031370000000 1.0
C      1  0.4460330000000  0.4572370000000  0.5156180000000 1.0
C      1  0.4870070000000  0.5280590000000  0.4340650000000 1.0
C      1  0.4381890000000  0.5057220000000  0.5130700000000 1.0
C      1  0.5060820000000  0.5549180000000  0.5403290000000 1.0
C      1  0.5099130000000  0.5489000000000  0.4708020000000 1.0
C      1  0.5068680000000  0.5553850000000  0.5006920000000 1.0
C      1  0.5186170000000  0.4263220000000  0.4977090000000 1.0
C      1  0.5289440000000  0.5315050000000  0.5013430000000 1.0
C      1  0.4812980000000  0.4506730000000  0.4443380000000 1.0
C      1  0.4733000000000  0.4360080000000  0.4714110000000 1.0
C      1  0.4800550000000  0.5133020000000  0.4835050000000 1.0
C      1  0.5353650000000  0.5583610000000  0.5302160000000 1.0
C      1  0.5478640000000  0.5293520000000  0.5270490000000 1.0
C      1  0.5329620000000  0.4489220000000  0.4872130000000 1.0
C      1  0.5351420000000  0.5375770000000  0.4622050000000 1.0
C      1  0.4824720000000  0.4975310000000  0.5285840000000 1.0
C      1  0.4888460000000  0.4640070000000  0.4812830000000 1.0
C      1  0.5714100000000  0.4785820000000  0.4986840000000 1.0
C      1  0.4216490000000  0.5115210000000  0.5338660000000 1.0
C      1  0.5022740000000  0.5308980000000  0.5614040000000 1.0
C      1  0.5793190000000  0.5261440000000  0.4799380000000 1.0
C      1  0.5405150000000  0.5052250000000  0.5395130000000 1.0
C      1  0.4491480000000  0.4642960000000  0.5430090000000 1.0
END
