TITL C-2778434-4341-942 -0.00352790355826021 125000 -735.827749487723 0 0 124 (C1) n - 1
REM
REM in /home/nfs/bkarasulu/CARBON/AIRSS/Generating-Clusters/REBO/Only-C1/SD-CG/HFTN-CG
REM
REM
REM
REM
REM
REM ./C.cell (11c1c37f851c82e70ff6c80c92926a4b)
REM
REM compiler GCC version 9.2.1 20190827 (Red Hat 9.2.1-1)
REM options -cpp -mtune=generic -march=x86-64 -g -O0 -fpre-include=/usr/include/finclude/math-vector-fortran.h
REM seed 476131377 -2025528083 1470733622 -1813990066 -251429078 -1394233102 -1725110208 -1415974426 1713312736 536960992 1518475493 -1822451406 43402491 1136654381 -1703540127 -295297941 -1166538122 -170079226 842108315 1635677784 917229515 -464316992 2005859004 -1136833090 -81637882 1599773587 -1328852624 1640837380 -1572806149 -1578984194 -322186846 275941104 -575298165
REM
CELL 1.54180   50.00000   50.00000   50.00000   90.00000   90.00000   90.00000
LATT -1
SFAC C  
C      1  0.5185740000000  0.4545960000000  0.4910870000000 1.0
C      1  0.5052870000000  0.4068340000000  0.5340970000000 1.0
C      1  0.5599370000000  0.4317120000000  0.4557080000000 1.0
C      1  0.4525250000000  0.4575360000000  0.5263520000000 1.0
C      1  0.4862160000000  0.4630200000000  0.4100740000000 1.0
C      1  0.5875680000000  0.4399140000000  0.4591210000000 1.0
C      1  0.5594030000000  0.5701590000000  0.5229950000000 1.0
C      1  0.4260810000000  0.4570840000000  0.4587270000000 1.0
C      1  0.4495550000000  0.5521970000000  0.4165620000000 1.0
C      1  0.4474620000000  0.4575180000000  0.5659990000000 1.0
C      1  0.4260810000000  0.5326080000000  0.5554390000000 1.0
C      1  0.4902450000000  0.4963010000000  0.5413800000000 1.0
C      1  0.5194780000000  0.5135460000000  0.4374550000000 1.0
C      1  0.5213840000000  0.5542100000000  0.4638330000000 1.0
C      1  0.4401300000000  0.4820160000000  0.5464870000000 1.0
C      1  0.5314110000000  0.4718320000000  0.3956330000000 1.0
C      1  0.4188160000000  0.4616520000000  0.4857260000000 1.0
C      1  0.4990950000000  0.5073870000000  0.5826230000000 1.0
C      1  0.5693290000000  0.5287280000000  0.4482070000000 1.0
C      1  0.5699860000000  0.4671560000000  0.5487230000000 1.0
C      1  0.5535100000000  0.5497120000000  0.5633980000000 1.0
C      1  0.4929470000000  0.5150600000000  0.4212750000000 1.0
C      1  0.5406370000000  0.4955900000000  0.3936500000000 1.0
C      1  0.5648800000000  0.4672590000000  0.5096050000000 1.0
C      1  0.5869180000000  0.4869170000000  0.5267260000000 1.0
C      1  0.4927040000000  0.3939890000000  0.4989880000000 1.0
C      1  0.5201710000000  0.5639360000000  0.5221680000000 1.0
C      1  0.4778620000000  0.4794220000000  0.4550920000000 1.0
C      1  0.5013470000000  0.5600160000000  0.5716560000000 1.0
C      1  0.4171940000000  0.4931270000000  0.5241620000000 1.0
C      1  0.4967660000000  0.5062490000000  0.5110120000000 1.0
C      1  0.4240230000000  0.5079660000000  0.4712890000000 1.0
C      1  0.5500750000000  0.5414620000000  0.4247130000000 1.0
C      1  0.4980140000000  0.5466770000000  0.4230740000000 1.0
C      1  0.5337400000000  0.6166270000000  0.5351900000000 1.0
C      1  0.5918170000000  0.4678740000000  0.4717870000000 1.0
C      1  0.4715400000000  0.5224430000000  0.5810460000000 1.0
C      1  0.5228790000000  0.4089590000000  0.5067320000000 1.0
C      1  0.4641910000000  0.5110530000000  0.5335400000000 1.0
C      1  0.4569580000000  0.4458780000000  0.4491430000000 1.0
C      1  0.5429010000000  0.5436840000000  0.5107440000000 1.0
C      1  0.4769850000000  0.3987600000000  0.5259660000000 1.0
C      1  0.4711220000000  0.5723570000000  0.4590140000000 1.0
C      1  0.6244770000000  0.5480500000000  0.5400390000000 1.0
C      1  0.4486830000000  0.5119540000000  0.5608040000000 1.0
C      1  0.4407400000000  0.5062670000000  0.4285440000000 1.0
C      1  0.5083810000000  0.5446020000000  0.5453840000000 1.0
C      1  0.4323930000000  0.5605160000000  0.5573250000000 1.0
C      1  0.4870580000000  0.4432700000000  0.4909630000000 1.0
C      1  0.5428280000000  0.4517540000000  0.4731510000000 1.0
C      1  0.4462420000000  0.4770180000000  0.4417660000000 1.0
C      1  0.5980060000000  0.5425180000000  0.5399250000000 1.0
C      1  0.5478180000000  0.4954770000000  0.5147650000000 1.0
C      1  0.4911840000000  0.4702730000000  0.5606100000000 1.0
C      1  0.5564600000000  0.5282240000000  0.5370440000000 1.0
C      1  0.5128320000000  0.5148240000000  0.5532210000000 1.0
C      1  0.4380270000000  0.5817700000000  0.5387100000000 1.0
C      1  0.4767750000000  0.4683550000000  0.6063990000000 1.0
C      1  0.4664810000000  0.5954770000000  0.4810030000000 1.0
C      1  0.4104670000000  0.5223320000000  0.5329690000000 1.0
C      1  0.5234110000000  0.5531690000000  0.4354510000000 1.0
C      1  0.4758270000000  0.5895230000000  0.5067430000000 1.0
C      1  0.4365760000000  0.4478920000000  0.5046070000000 1.0
C      1  0.4817120000000  0.4964220000000  0.4840660000000 1.0
C      1  0.4216300000000  0.5626940000000  0.4483660000000 1.0
C      1  0.4736940000000  0.5610910000000  0.4288090000000 1.0
C      1  0.4756820000000  0.4399400000000  0.5579860000000 1.0
C      1  0.5311550000000  0.4607940000000  0.4248400000000 1.0
C      1  0.5504950000000  0.4429650000000  0.5394260000000 1.0
C      1  0.5723200000000  0.5051340000000  0.4944260000000 1.0
C      1  0.5049520000000  0.4252800000000  0.5554310000000 1.0
C      1  0.4588690000000  0.4491590000000  0.4802100000000 1.0
C      1  0.5295630000000  0.5488020000000  0.5790020000000 1.0
C      1  0.5485770000000  0.4218100000000  0.5128550000000 1.0
C      1  0.5856780000000  0.5168760000000  0.5339670000000 1.0
C      1  0.4542850000000  0.4636340000000  0.5960190000000 1.0
C      1  0.4490740000000  0.5069910000000  0.5044770000000 1.0
C      1  0.5670620000000  0.4415120000000  0.5031230000000 1.0
C      1  0.5064000000000  0.4657510000000  0.4443780000000 1.0
C      1  0.5377350000000  0.5340280000000  0.4829090000000 1.0
C      1  0.5139920000000  0.5151680000000  0.4678720000000 1.0
C      1  0.4708310000000  0.5080480000000  0.4416340000000 1.0
C      1  0.5219510000000  0.4933840000000  0.5000670000000 1.0
C      1  0.4595280000000  0.4143700000000  0.5416420000000 1.0
C      1  0.5375690000000  0.5909000000000  0.5278210000000 1.0
C      1  0.5008700000000  0.4775320000000  0.5891600000000 1.0
C      1  0.4636110000000  0.5933600000000  0.5323440000000 1.0
C      1  0.5081280000000  0.4252600000000  0.4501610000000 1.0
C      1  0.4542400000000  0.4800340000000  0.4888120000000 1.0
C      1  0.5636550000000  0.5220730000000  0.4738840000000 1.0
C      1  0.4333810000000  0.5550020000000  0.5003130000000 1.0
C      1  0.4511970000000  0.5243810000000  0.4640380000000 1.0
C      1  0.4338370000000  0.5295020000000  0.4166430000000 1.0
C      1  0.5255930000000  0.4539660000000  0.5207510000000 1.0
C      1  0.4793060000000  0.4523590000000  0.5195890000000 1.0
C      1  0.4946030000000  0.5663130000000  0.5037940000000 1.0
C      1  0.5763630000000  0.5617760000000  0.5455310000000 1.0
C      1  0.4375890000000  0.4290170000000  0.5540360000000 1.0
C      1  0.4241300000000  0.5775920000000  0.5140080000000 1.0
C      1  0.5958540000000  0.4860090000000  0.4935170000000 1.0
C      1  0.5628790000000  0.4713150000000  0.4603000000000 1.0
C      1  0.4601830000000  0.5380820000000  0.5126250000000 1.0
C      1  0.4451020000000  0.5537650000000  0.4562690000000 1.0
C      1  0.5337360000000  0.4329130000000  0.4392670000000 1.0
C      1  0.5526870000000  0.4813330000000  0.4359470000000 1.0
C      1  0.4893180000000  0.4873250000000  0.4057090000000 1.0
C      1  0.4835600000000  0.5270580000000  0.4742680000000 1.0
C      1  0.5161870000000  0.4813700000000  0.4706870000000 1.0
C      1  0.5394990000000  0.5040930000000  0.5457810000000 1.0
C      1  0.4226380000000  0.5276430000000  0.5053030000000 1.0
C      1  0.5486890000000  0.4820330000000  0.5641640000000 1.0
C      1  0.4044400000000  0.5109010000000  0.4512540000000 1.0
C      1  0.4766440000000  0.5500560000000  0.5829080000000 1.0
C      1  0.5624500000000  0.5558420000000  0.4043030000000 1.0
C      1  0.5269990000000  0.4411860000000  0.5612880000000 1.0
C      1  0.5242140000000  0.5243950000000  0.5933330000000 1.0
C      1  0.5014960000000  0.4588160000000  0.5340970000000 1.0
C      1  0.5466700000000  0.5093730000000  0.4216200000000 1.0
C      1  0.4832930000000  0.4421480000000  0.4361530000000 1.0
C      1  0.4931870000000  0.5566670000000  0.4750350000000 1.0
C      1  0.4152430000000  0.4890530000000  0.4939470000000 1.0
C      1  0.5041830000000  0.4190150000000  0.4798990000000 1.0
C      1  0.4912580000000  0.5368030000000  0.5186050000000 1.0
C      1  0.5279220000000  0.4655990000000  0.5757110000000 1.0
END
