TITL C-2778435-5768-417 0.00570944739502475 125000 -1069.11458256226 0 0 182 (C1) n - 1
REM
REM in /home/nfs/bkarasulu/CARBON/AIRSS/Generating-Clusters/REBO/Only-C1/SD-CG/HFTN-CG
REM
REM
REM
REM
REM
REM ./C.cell (11c1c37f851c82e70ff6c80c92926a4b)
REM
REM compiler GCC version 9.2.1 20190827 (Red Hat 9.2.1-1)
REM options -cpp -mtune=generic -march=x86-64 -g -O0 -fpre-include=/usr/include/finclude/math-vector-fortran.h
REM seed -829509215 -1582165537 -2107264071 -1204576335 734149228 -904889375 128737728 -1666461902 -1212253071 -1372322113 -1456452630 -1555423028 -192196575 2105967536 -2097303471 1953196605 -1593464690 -305589126 -336232450 1124537707 1969793879 -1276600668 -349506281 1170725292 -645660238 -22149763 -1815705812 1571100115 649453658 1810695686 -1679279357 377603683 -230787124
REM
CELL 1.54180   50.00000   50.00000   50.00000   90.00000   90.00000   90.00000
LATT -1
SFAC C  
C      1  0.5321570000000  0.5982510000000  0.4850020000000 1.0
C      1  0.4110010000000  0.5486770000000  0.5414120000000 1.0
C      1  0.4057180000000  0.4411910000000  0.5624680000000 1.0
C      1  0.5730270000000  0.5909130000000  0.4551650000000 1.0
C      1  0.5754500000000  0.4570600000000  0.4593100000000 1.0
C      1  0.4743030000000  0.5376950000000  0.4405740000000 1.0
C      1  0.5248860000000  0.5767120000000  0.4603150000000 1.0
C      1  0.5700080000000  0.4779790000000  0.5436450000000 1.0
C      1  0.4337250000000  0.4479050000000  0.5774600000000 1.0
C      1  0.5055910000000  0.6106740000000  0.4675980000000 1.0
C      1  0.4578140000000  0.5177190000000  0.5650180000000 1.0
C      1  0.4897250000000  0.4109630000000  0.5591150000000 1.0
C      1  0.4479470000000  0.5870860000000  0.5381080000000 1.0
C      1  0.5360640000000  0.4956320000000  0.5320540000000 1.0
C      1  0.4100430000000  0.5338350000000  0.4960810000000 1.0
C      1  0.4934420000000  0.4152810000000  0.4817950000000 1.0
C      1  0.4154620000000  0.4981730000000  0.4507690000000 1.0
C      1  0.4311790000000  0.4911510000000  0.5277860000000 1.0
C      1  0.5869060000000  0.5307380000000  0.4633580000000 1.0
C      1  0.4824560000000  0.4564850000000  0.5940760000000 1.0
C      1  0.4960340000000  0.5733320000000  0.4778860000000 1.0
C      1  0.5553380000000  0.4503280000000  0.5751520000000 1.0
C      1  0.5450630000000  0.4424510000000  0.4381310000000 1.0
C      1  0.5319780000000  0.4038480000000  0.5417860000000 1.0
C      1  0.5451610000000  0.5054140000000  0.4857410000000 1.0
C      1  0.5492980000000  0.4239420000000  0.5266660000000 1.0
C      1  0.5917320000000  0.5512450000000  0.5526370000000 1.0
C      1  0.5221160000000  0.5309390000000  0.5737710000000 1.0
C      1  0.4526070000000  0.4484820000000  0.5253770000000 1.0
C      1  0.3914350000000  0.4415310000000  0.4769700000000 1.0
C      1  0.5495650000000  0.4977710000000  0.5903640000000 1.0
C      1  0.3995700000000  0.4949130000000  0.4796330000000 1.0
C      1  0.4971070000000  0.5482230000000  0.4576150000000 1.0
C      1  0.5375670000000  0.4698770000000  0.5535040000000 1.0
C      1  0.5034030000000  0.5930110000000  0.5486910000000 1.0
C      1  0.4841970000000  0.4379780000000  0.4283220000000 1.0
C      1  0.5559660000000  0.5732490000000  0.4649450000000 1.0
C      1  0.4599680000000  0.4766880000000  0.4864880000000 1.0
C      1  0.5050720000000  0.5047280000000  0.5783690000000 1.0
C      1  0.4703450000000  0.4337640000000  0.5718700000000 1.0
C      1  0.4444710000000  0.4717420000000  0.5125110000000 1.0
C      1  0.4421880000000  0.4045640000000  0.5342020000000 1.0
C      1  0.6013350000000  0.5099840000000  0.5056450000000 1.0
C      1  0.4910670000000  0.5921310000000  0.4430680000000 1.0
C      1  0.5136410000000  0.3904120000000  0.5237830000000 1.0
C      1  0.4757090000000  0.5012390000000  0.4896720000000 1.0
C      1  0.4323700000000  0.5259640000000  0.4411900000000 1.0
C      1  0.6072920000000  0.4826450000000  0.4901770000000 1.0
C      1  0.5409100000000  0.5342420000000  0.4952140000000 1.0
C      1  0.4556110000000  0.5242660000000  0.4812890000000 1.0
C      1  0.5695460000000  0.4243930000000  0.4518210000000 1.0
C      1  0.5528080000000  0.5390160000000  0.4016670000000 1.0
C      1  0.3932940000000  0.4695410000000  0.5539630000000 1.0
C      1  0.4648420000000  0.4798360000000  0.5938900000000 1.0
C      1  0.5370230000000  0.5883720000000  0.5496890000000 1.0
C      1  0.4364410000000  0.4421730000000  0.5462980000000 1.0
C      1  0.5928160000000  0.4567890000000  0.5337870000000 1.0
C      1  0.4502070000000  0.5979430000000  0.4925230000000 1.0
C      1  0.3870710000000  0.4671810000000  0.5205520000000 1.0
C      1  0.5241540000000  0.5462930000000  0.4151510000000 1.0
C      1  0.4205070000000  0.5509450000000  0.5731190000000 1.0
C      1  0.4464990000000  0.5452670000000  0.5814720000000 1.0
C      1  0.5056660000000  0.4811180000000  0.5577970000000 1.0
C      1  0.6051200000000  0.5285440000000  0.5316970000000 1.0
C      1  0.5739570000000  0.5162560000000  0.5337190000000 1.0
C      1  0.4912690000000  0.6026350000000  0.5209740000000 1.0
C      1  0.4612730000000  0.6021910000000  0.5187180000000 1.0
C      1  0.4638990000000  0.3952100000000  0.5184870000000 1.0
C      1  0.4685830000000  0.5102310000000  0.4032870000000 1.0
C      1  0.4531590000000  0.4080710000000  0.4561770000000 1.0
C      1  0.5043120000000  0.5497560000000  0.5901640000000 1.0
C      1  0.5627880000000  0.4991060000000  0.4643970000000 1.0
C      1  0.6042210000000  0.4592710000000  0.5056970000000 1.0
C      1  0.4541910000000  0.5613720000000  0.5082240000000 1.0
C      1  0.5554170000000  0.5404790000000  0.5230230000000 1.0
C      1  0.4201020000000  0.4196510000000  0.5165440000000 1.0
C      1  0.5260440000000  0.4693790000000  0.4296140000000 1.0
C      1  0.5753120000000  0.4253110000000  0.4835980000000 1.0
C      1  0.4943490000000  0.4792400000000  0.5256560000000 1.0
C      1  0.5580600000000  0.5792740000000  0.5693980000000 1.0
C      1  0.3887200000000  0.4659830000000  0.4880440000000 1.0
C      1  0.4414280000000  0.5010200000000  0.4205960000000 1.0
C      1  0.5104770000000  0.4659500000000  0.5052500000000 1.0
C      1  0.5031130000000  0.5329010000000  0.5387450000000 1.0
C      1  0.5462850000000  0.4426200000000  0.4074570000000 1.0
C      1  0.5746390000000  0.5141890000000  0.4097750000000 1.0
C      1  0.4946700000000  0.5787800000000  0.5783670000000 1.0
C      1  0.4766490000000  0.4630190000000  0.5553860000000 1.0
C      1  0.4213560000000  0.4883280000000  0.5594980000000 1.0
C      1  0.5494680000000  0.5005100000000  0.4376090000000 1.0
C      1  0.5716360000000  0.5658220000000  0.5164280000000 1.0
C      1  0.4080810000000  0.4219180000000  0.4847750000000 1.0
C      1  0.4871180000000  0.3921630000000  0.5341320000000 1.0
C      1  0.5703780000000  0.5548260000000  0.5703400000000 1.0
C      1  0.5652900000000  0.4686020000000  0.4898170000000 1.0
C      1  0.5799510000000  0.4441070000000  0.5632600000000 1.0
C      1  0.5094240000000  0.5435790000000  0.5009310000000 1.0
C      1  0.5846500000000  0.4687590000000  0.4344830000000 1.0
C      1  0.4653420000000  0.5641290000000  0.5873760000000 1.0
C      1  0.4704100000000  0.4947690000000  0.5443420000000 1.0
C      1  0.4554690000000  0.4272480000000  0.4365790000000 1.0
C      1  0.5063980000000  0.4751420000000  0.3897580000000 1.0
C      1  0.4250450000000  0.5703650000000  0.5237460000000 1.0
C      1  0.5789050000000  0.5558230000000  0.4129110000000 1.0
C      1  0.5128360000000  0.4678340000000  0.4724860000000 1.0
C      1  0.5771470000000  0.4274850000000  0.5364000000000 1.0
C      1  0.5953640000000  0.5746700000000  0.4068560000000 1.0
C      1  0.3945210000000  0.5287330000000  0.5255280000000 1.0
C      1  0.5393510000000  0.4746080000000  0.3981160000000 1.0
C      1  0.5752210000000  0.4892570000000  0.5128370000000 1.0
C      1  0.5132570000000  0.5121750000000  0.5137510000000 1.0
C      1  0.4500620000000  0.4083720000000  0.5613780000000 1.0
C      1  0.5152390000000  0.3942830000000  0.4953590000000 1.0
C      1  0.4631130000000  0.5100250000000  0.4447870000000 1.0
C      1  0.5178280000000  0.5624300000000  0.5427520000000 1.0
C      1  0.4702860000000  0.5921610000000  0.4704610000000 1.0
C      1  0.3882490000000  0.4993940000000  0.5091910000000 1.0
C      1  0.4726910000000  0.5433070000000  0.4102330000000 1.0
C      1  0.5195630000000  0.4148260000000  0.4517800000000 1.0
C      1  0.4639330000000  0.4441680000000  0.4873480000000 1.0
C      1  0.4949410000000  0.4680940000000  0.4310970000000 1.0
C      1  0.5470450000000  0.5070330000000  0.3908100000000 1.0
C      1  0.4887210000000  0.4501430000000  0.3965780000000 1.0
C      1  0.4651850000000  0.4042740000000  0.4876790000000 1.0
C      1  0.5161400000000  0.5250530000000  0.4640930000000 1.0
C      1  0.4868780000000  0.5570910000000  0.5544410000000 1.0
C      1  0.4995570000000  0.4396800000000  0.4587150000000 1.0
C      1  0.5237650000000  0.4844730000000  0.5932620000000 1.0
C      1  0.4234530000000  0.4751470000000  0.4300340000000 1.0
C      1  0.4242960000000  0.5827830000000  0.4935510000000 1.0
C      1  0.5057590000000  0.4993490000000  0.4838860000000 1.0
C      1  0.6025630000000  0.5604630000000  0.5215120000000 1.0
C      1  0.5943000000000  0.5406710000000  0.4951590000000 1.0
C      1  0.5925810000000  0.4979810000000  0.4686160000000 1.0
C      1  0.5668020000000  0.4836660000000  0.4176370000000 1.0
C      1  0.4855440000000  0.5342350000000  0.6045900000000 1.0
C      1  0.5713330000000  0.5339690000000  0.4367120000000 1.0
C      1  0.4645280000000  0.5125060000000  0.5184300000000 1.0
C      1  0.5180070000000  0.5209480000000  0.3951850000000 1.0
C      1  0.5385210000000  0.5309860000000  0.4399320000000 1.0
C      1  0.4962060000000  0.4387360000000  0.5417860000000 1.0
C      1  0.5115450000000  0.4581590000000  0.5939750000000 1.0
C      1  0.5986190000000  0.4356040000000  0.4916520000000 1.0
C      1  0.4543770000000  0.5561190000000  0.4763630000000 1.0
C      1  0.5265560000000  0.4433450000000  0.5387740000000 1.0
C      1  0.4003050000000  0.4384300000000  0.5307450000000 1.0
C      1  0.5360650000000  0.5259640000000  0.5434600000000 1.0
C      1  0.5142890000000  0.4337680000000  0.5009700000000 1.0
C      1  0.4426590000000  0.5375350000000  0.5427040000000 1.0
C      1  0.5371650000000  0.4817970000000  0.5037060000000 1.0
C      1  0.4397520000000  0.4249490000000  0.4896330000000 1.0
C      1  0.5164770000000  0.4978930000000  0.4455690000000 1.0
C      1  0.4970270000000  0.5018160000000  0.3923720000000 1.0
C      1  0.5587870000000  0.5863970000000  0.5026080000000 1.0
C      1  0.4557370000000  0.5741340000000  0.4473390000000 1.0
C      1  0.4327430000000  0.5206540000000  0.5175590000000 1.0
C      1  0.5043010000000  0.5750290000000  0.5074130000000 1.0
C      1  0.3948080000000  0.5001850000000  0.5417440000000 1.0
C      1  0.5421180000000  0.4625550000000  0.4654810000000 1.0
C      1  0.5108060000000  0.5663450000000  0.4327530000000 1.0
C      1  0.5299080000000  0.5915850000000  0.5177870000000 1.0
C      1  0.4510660000000  0.4602520000000  0.4300410000000 1.0
C      1  0.5446640000000  0.4229830000000  0.4965580000000 1.0
C      1  0.4761040000000  0.5077550000000  0.5890800000000 1.0
C      1  0.4663430000000  0.4615510000000  0.4582140000000 1.0
C      1  0.5003890000000  0.6199920000000  0.4955050000000 1.0
C      1  0.5671260000000  0.5038050000000  0.5626040000000 1.0
C      1  0.4824600000000  0.4379920000000  0.5127520000000 1.0
C      1  0.4397230000000  0.4755510000000  0.5817040000000 1.0
C      1  0.4594230000000  0.5619270000000  0.5474900000000 1.0
C      1  0.4146280000000  0.5595490000000  0.4786580000000 1.0
C      1  0.5647030000000  0.5493120000000  0.4806830000000 1.0
C      1  0.4280810000000  0.5130400000000  0.4786760000000 1.0
C      1  0.5429960000000  0.4119380000000  0.4656420000000 1.0
C      1  0.4707190000000  0.4765930000000  0.4087990000000 1.0
C      1  0.4309900000000  0.5527240000000  0.4522580000000 1.0
C      1  0.4733940000000  0.5723510000000  0.4213010000000 1.0
C      1  0.5204210000000  0.4149480000000  0.5662340000000 1.0
C      1  0.5547950000000  0.5296100000000  0.5785890000000 1.0
C      1  0.4779720000000  0.5386550000000  0.5034490000000 1.0
C      1  0.4837520000000  0.4899760000000  0.4519090000000 1.0
C      1  0.5285650000000  0.4378000000000  0.5817920000000 1.0
END
