TITL C-2778424-3986-1324 -3.74693841664431e-05 125000 -429.078546316599 0 0 76 (C1) n - 1
REM
REM in /home/nfs/bkarasulu/CARBON/AIRSS/Generating-Clusters/REBO/Only-C1/SD-CG/HFTN-CG
REM
REM
REM
REM
REM
REM ./C.cell (11c1c37f851c82e70ff6c80c92926a4b)
REM
REM compiler GCC version 9.2.1 20190827 (Red Hat 9.2.1-1)
REM options -cpp -mtune=generic -march=x86-64 -g -O0 -fpre-include=/usr/include/finclude/math-vector-fortran.h
REM seed 1556575318 1008990333 1748918293 -576319793 -463137936 836379938 533451301 918750263 -1304762851 1123701098 1699381382 1540546214 2024796963 1206875681 -1708201877 -1108334850 579040680 1263586792 2050357433 566086425 1718056169 1523175806 -305662479 -1108285504 -1091436165 -2083583064 650271880 1768202740 890692640 -655893647 1554079037 -1814845029 -2090014340
REM
CELL 1.54180   50.00000   50.00000   50.00000   90.00000   90.00000   90.00000
LATT -1
SFAC C  
C      1  0.5581790000000  0.5241500000000  0.4754950000000 1.0
C      1  0.4622200000000  0.4439580000000  0.4614200000000 1.0
C      1  0.5362790000000  0.4459580000000  0.4796040000000 1.0
C      1  0.4873850000000  0.4926280000000  0.4850310000000 1.0
C      1  0.5778920000000  0.4762440000000  0.4743940000000 1.0
C      1  0.4239080000000  0.4771410000000  0.4953300000000 1.0
C      1  0.4729570000000  0.5011850000000  0.5089740000000 1.0
C      1  0.5672740000000  0.4938860000000  0.5203450000000 1.0
C      1  0.4931540000000  0.4196740000000  0.5146170000000 1.0
C      1  0.4441340000000  0.5278060000000  0.5441590000000 1.0
C      1  0.5261510000000  0.5128030000000  0.5715360000000 1.0
C      1  0.4838800000000  0.4563560000000  0.5598050000000 1.0
C      1  0.4872180000000  0.5053490000000  0.5357740000000 1.0
C      1  0.4353810000000  0.4458090000000  0.5021670000000 1.0
C      1  0.5350160000000  0.4837980000000  0.4967880000000 1.0
C      1  0.5472050000000  0.4731840000000  0.4599520000000 1.0
C      1  0.4731810000000  0.4904070000000  0.5957580000000 1.0
C      1  0.4847590000000  0.4567160000000  0.5022690000000 1.0
C      1  0.5510070000000  0.5095890000000  0.5409110000000 1.0
C      1  0.4745840000000  0.4650740000000  0.5849560000000 1.0
C      1  0.5096890000000  0.5616730000000  0.4480240000000 1.0
C      1  0.4446200000000  0.4613930000000  0.4498530000000 1.0
C      1  0.4692150000000  0.5606640000000  0.5222850000000 1.0
C      1  0.5290670000000  0.4718400000000  0.4336690000000 1.0
C      1  0.5268380000000  0.5705310000000  0.3956050000000 1.0
C      1  0.5186880000000  0.5317230000000  0.4616360000000 1.0
C      1  0.5506980000000  0.4699820000000  0.5370240000000 1.0
C      1  0.5190030000000  0.5664840000000  0.4195530000000 1.0
C      1  0.4939130000000  0.5798160000000  0.5186600000000 1.0
C      1  0.4662980000000  0.5513180000000  0.4763950000000 1.0
C      1  0.4673130000000  0.5166540000000  0.5560770000000 1.0
C      1  0.4150660000000  0.5251420000000  0.4819230000000 1.0
C      1  0.5270690000000  0.4832080000000  0.5588510000000 1.0
C      1  0.4941640000000  0.5021390000000  0.4161010000000 1.0
C      1  0.5059550000000  0.4635340000000  0.5192450000000 1.0
C      1  0.4712770000000  0.4985550000000  0.4302110000000 1.0
C      1  0.5606070000000  0.5329450000000  0.5102180000000 1.0
C      1  0.5600600000000  0.5142570000000  0.5692730000000 1.0
C      1  0.4050350000000  0.4550480000000  0.5131260000000 1.0
C      1  0.4775820000000  0.5156620000000  0.5829720000000 1.0
C      1  0.4068160000000  0.5015810000000  0.4837430000000 1.0
C      1  0.4477970000000  0.4919640000000  0.4542680000000 1.0
C      1  0.5003730000000  0.4780560000000  0.5452500000000 1.0
C      1  0.4470920000000  0.5438520000000  0.5210640000000 1.0
C      1  0.4765710000000  0.5047200000000  0.4610830000000 1.0
C      1  0.5190860000000  0.4291510000000  0.5037680000000 1.0
C      1  0.5161910000000  0.4486250000000  0.4552770000000 1.0
C      1  0.4678900000000  0.5900860000000  0.4417000000000 1.0
C      1  0.5192030000000  0.5001070000000  0.4266410000000 1.0
C      1  0.4803440000000  0.5700910000000  0.4535300000000 1.0
C      1  0.4438850000000  0.5349790000000  0.4914030000000 1.0
C      1  0.5513110000000  0.4648840000000  0.5705170000000 1.0
C      1  0.5309360000000  0.5685380000000  0.4711890000000 1.0
C      1  0.5426070000000  0.5512170000000  0.4896530000000 1.0
C      1  0.5029890000000  0.5286910000000  0.5856030000000 1.0
C      1  0.5194240000000  0.4407080000000  0.4239260000000 1.0
C      1  0.5121390000000  0.4775550000000  0.4823500000000 1.0
C      1  0.4891320000000  0.4549490000000  0.4699220000000 1.0
C      1  0.5336840000000  0.5544720000000  0.5491730000000 1.0
C      1  0.4904770000000  0.5529080000000  0.4980010000000 1.0
C      1  0.4629020000000  0.4456290000000  0.5165360000000 1.0
C      1  0.5172080000000  0.5517200000000  0.5716900000000 1.0
C      1  0.5597820000000  0.5482940000000  0.5371160000000 1.0
C      1  0.5592820000000  0.4632640000000  0.4960240000000 1.0
C      1  0.4466150000000  0.5011680000000  0.4872420000000 1.0
C      1  0.5324650000000  0.4510300000000  0.5213480000000 1.0
C      1  0.5350120000000  0.5108750000000  0.5043800000000 1.0
C      1  0.5744970000000  0.5000080000000  0.4930390000000 1.0
C      1  0.5240490000000  0.5461780000000  0.5185090000000 1.0
C      1  0.4525150000000  0.4276190000000  0.4824990000000 1.0
C      1  0.4863830000000  0.5321200000000  0.4608050000000 1.0
C      1  0.5098690000000  0.5290200000000  0.4928630000000 1.0
C      1  0.5386790000000  0.5059390000000  0.4541670000000 1.0
C      1  0.5182300000000  0.5191290000000  0.5387470000000 1.0
C      1  0.4781530000000  0.4348270000000  0.5412850000000 1.0
C      1  0.4724920000000  0.4117640000000  0.4956990000000 1.0
END
