TITL C-2778435-5768-905 -0.00157672976105174 125000 -1039.62260272567 0 0 180 (C1) n - 1
REM
REM in /home/nfs/bkarasulu/CARBON/AIRSS/Generating-Clusters/REBO/Only-C1/SD-CG/HFTN-CG
REM
REM
REM
REM
REM
REM ./C.cell (11c1c37f851c82e70ff6c80c92926a4b)
REM
REM compiler GCC version 9.2.1 20190827 (Red Hat 9.2.1-1)
REM options -cpp -mtune=generic -march=x86-64 -g -O0 -fpre-include=/usr/include/finclude/math-vector-fortran.h
REM seed 531567903 223380207 -2113222682 49340344 1503273511 363786128 -1412510046 -1829424851 -1450349912 964352915 240167502 -488255575 1719334196 624456213 -1272584014 -1413205245 -1054830098 1087137632 -1418848709 2111616447 1665340234 -1220669886 -835207332 -1821101437 1272327234 1228702614 -280767404 1918078970 -1026019967 -29529670 1277862311 1764086931 1223254775
REM
CELL 1.54180   50.00000   50.00000   50.00000   90.00000   90.00000   90.00000
LATT -1
SFAC C  
C      1  0.5147800000000  0.5253780000000  0.5921020000000 1.0
C      1  0.4767180000000  0.4145290000000  0.5549050000000 1.0
C      1  0.5178930000000  0.4938480000000  0.5086250000000 1.0
C      1  0.5902390000000  0.4973190000000  0.4436150000000 1.0
C      1  0.5495320000000  0.4140380000000  0.5222030000000 1.0
C      1  0.4928200000000  0.5263770000000  0.4157600000000 1.0
C      1  0.4712070000000  0.5676490000000  0.5211330000000 1.0
C      1  0.4732350000000  0.4155170000000  0.4510420000000 1.0
C      1  0.5375320000000  0.4452210000000  0.5840910000000 1.0
C      1  0.4480990000000  0.4421280000000  0.5587740000000 1.0
C      1  0.4875930000000  0.4469050000000  0.5567580000000 1.0
C      1  0.5079530000000  0.4637480000000  0.4984630000000 1.0
C      1  0.4216560000000  0.5001820000000  0.5219400000000 1.0
C      1  0.5038450000000  0.4728010000000  0.4031460000000 1.0
C      1  0.4209750000000  0.4364510000000  0.4937640000000 1.0
C      1  0.4564770000000  0.5975310000000  0.5542140000000 1.0
C      1  0.6074470000000  0.4832500000000  0.4919500000000 1.0
C      1  0.5808220000000  0.5302750000000  0.5721610000000 1.0
C      1  0.4183670000000  0.5184380000000  0.4417600000000 1.0
C      1  0.4301990000000  0.4991890000000  0.4648990000000 1.0
C      1  0.5246400000000  0.4923610000000  0.6124040000000 1.0
C      1  0.4102480000000  0.5519900000000  0.4852760000000 1.0
C      1  0.5773900000000  0.4242680000000  0.5055720000000 1.0
C      1  0.5226650000000  0.5701640000000  0.5440550000000 1.0
C      1  0.5274000000000  0.5267430000000  0.3946090000000 1.0
C      1  0.4742470000000  0.6175990000000  0.5489930000000 1.0
C      1  0.4030660000000  0.5280720000000  0.4698960000000 1.0
C      1  0.3911460000000  0.5101960000000  0.4897640000000 1.0
C      1  0.4829300000000  0.4320090000000  0.5082020000000 1.0
C      1  0.5226540000000  0.4491250000000  0.5256780000000 1.0
C      1  0.4769140000000  0.4962290000000  0.5996930000000 1.0
C      1  0.5121350000000  0.4682770000000  0.5489770000000 1.0
C      1  0.5263140000000  0.4749560000000  0.5764830000000 1.0
C      1  0.5134470000000  0.5260830000000  0.5523530000000 1.0
C      1  0.5088420000000  0.5717570000000  0.4967780000000 1.0
C      1  0.4163820000000  0.4653500000000  0.4807160000000 1.0
C      1  0.4749630000000  0.4968300000000  0.5385950000000 1.0
C      1  0.4738700000000  0.5237150000000  0.5549310000000 1.0
C      1  0.5637040000000  0.5229670000000  0.4585970000000 1.0
C      1  0.4681420000000  0.5353950000000  0.5244720000000 1.0
C      1  0.4409960000000  0.5262790000000  0.4824030000000 1.0
C      1  0.4415760000000  0.5640290000000  0.4499800000000 1.0
C      1  0.4720200000000  0.4050120000000  0.4899780000000 1.0
C      1  0.5661880000000  0.4369380000000  0.5416060000000 1.0
C      1  0.5345800000000  0.4506290000000  0.4818010000000 1.0
C      1  0.4015810000000  0.4878070000000  0.5694140000000 1.0
C      1  0.4279430000000  0.4044950000000  0.5371920000000 1.0
C      1  0.5559910000000  0.4820740000000  0.4100050000000 1.0
C      1  0.4762310000000  0.5693490000000  0.4874460000000 1.0
C      1  0.4919770000000  0.5512330000000  0.5614520000000 1.0
C      1  0.5327040000000  0.4162480000000  0.4454910000000 1.0
C      1  0.4371480000000  0.4403900000000  0.4445330000000 1.0
C      1  0.5730960000000  0.5019360000000  0.4209020000000 1.0
C      1  0.4491030000000  0.4428520000000  0.4193990000000 1.0
C      1  0.5258790000000  0.5615550000000  0.4522250000000 1.0
C      1  0.4156290000000  0.4270290000000  0.5226780000000 1.0
C      1  0.5826090000000  0.4729710000000  0.5455760000000 1.0
C      1  0.4602970000000  0.5642990000000  0.5603780000000 1.0
C      1  0.4638950000000  0.6003460000000  0.4793400000000 1.0
C      1  0.4916810000000  0.4189530000000  0.5846210000000 1.0
C      1  0.5335640000000  0.5640690000000  0.5820100000000 1.0
C      1  0.5133190000000  0.4347480000000  0.3974220000000 1.0
C      1  0.5450330000000  0.5420270000000  0.4728350000000 1.0
C      1  0.5004290000000  0.5080940000000  0.3864970000000 1.0
C      1  0.4401200000000  0.4543840000000  0.5235300000000 1.0
C      1  0.5430120000000  0.5958510000000  0.4720780000000 1.0
C      1  0.4982990000000  0.4318140000000  0.4774200000000 1.0
C      1  0.4605200000000  0.5356290000000  0.4099730000000 1.0
C      1  0.5459030000000  0.5489460000000  0.5571110000000 1.0
C      1  0.4715460000000  0.4507090000000  0.5290020000000 1.0
C      1  0.4795880000000  0.4593690000000  0.4802240000000 1.0
C      1  0.6109710000000  0.5233190000000  0.5234030000000 1.0
C      1  0.5518450000000  0.4640290000000  0.4599780000000 1.0
C      1  0.4963640000000  0.4922510000000  0.4651430000000 1.0
C      1  0.5771100000000  0.5524920000000  0.5464600000000 1.0
C      1  0.4408750000000  0.4600100000000  0.5855540000000 1.0
C      1  0.4444450000000  0.5355180000000  0.4371510000000 1.0
C      1  0.4104100000000  0.5072990000000  0.5506100000000 1.0
C      1  0.4950850000000  0.6026180000000  0.4758760000000 1.0
C      1  0.5565760000000  0.4928030000000  0.4646410000000 1.0
C      1  0.4962190000000  0.6099580000000  0.5331680000000 1.0
C      1  0.5571890000000  0.5588380000000  0.4386610000000 1.0
C      1  0.4754770000000  0.4496870000000  0.4486750000000 1.0
C      1  0.5563020000000  0.4553450000000  0.4281850000000 1.0
C      1  0.5085060000000  0.5668820000000  0.5823400000000 1.0
C      1  0.5484280000000  0.5062240000000  0.6087420000000 1.0
C      1  0.4589500000000  0.4740070000000  0.5527580000000 1.0
C      1  0.5276120000000  0.5213490000000  0.4917890000000 1.0
C      1  0.4982720000000  0.5797890000000  0.5344170000000 1.0
C      1  0.4995880000000  0.4572040000000  0.5850840000000 1.0
C      1  0.5907220000000  0.4893670000000  0.5192770000000 1.0
C      1  0.5877870000000  0.5127870000000  0.5437990000000 1.0
C      1  0.4975400000000  0.4052050000000  0.5348570000000 1.0
C      1  0.4518070000000  0.4511550000000  0.4922430000000 1.0
C      1  0.5544790000000  0.5197340000000  0.5444140000000 1.0
C      1  0.5505960000000  0.5765900000000  0.5287650000000 1.0
C      1  0.5289840000000  0.5307930000000  0.4380670000000 1.0
C      1  0.4511450000000  0.4685580000000  0.4089380000000 1.0
C      1  0.5301820000000  0.4930090000000  0.3963220000000 1.0
C      1  0.5414910000000  0.5545730000000  0.4085610000000 1.0
C      1  0.4114490000000  0.4532720000000  0.5408380000000 1.0
C      1  0.4990840000000  0.4797360000000  0.6052770000000 1.0
C      1  0.4492070000000  0.4031610000000  0.5498920000000 1.0
C      1  0.4652250000000  0.5141310000000  0.4529000000000 1.0
C      1  0.5697420000000  0.4967130000000  0.4945310000000 1.0
C      1  0.5201830000000  0.4243200000000  0.5745440000000 1.0
C      1  0.5097160000000  0.6047340000000  0.5054060000000 1.0
C      1  0.5090710000000  0.5538760000000  0.4031470000000 1.0
C      1  0.5830510000000  0.5738400000000  0.4936040000000 1.0
C      1  0.4642430000000  0.4348520000000  0.5869030000000 1.0
C      1  0.5222560000000  0.5303870000000  0.5236600000000 1.0
C      1  0.4153310000000  0.5444690000000  0.5172380000000 1.0
C      1  0.4747020000000  0.4862240000000  0.3916410000000 1.0
C      1  0.6060550000000  0.5320500000000  0.4798100000000 1.0
C      1  0.5296680000000  0.3950180000000  0.4674580000000 1.0
C      1  0.4389660000000  0.5923730000000  0.4591510000000 1.0
C      1  0.5668660000000  0.5197800000000  0.5931110000000 1.0
C      1  0.4381550000000  0.5917070000000  0.4990770000000 1.0
C      1  0.4727000000000  0.4082310000000  0.4209720000000 1.0
C      1  0.5448070000000  0.4785070000000  0.4997640000000 1.0
C      1  0.4129430000000  0.4624840000000  0.5694360000000 1.0
C      1  0.6194190000000  0.5102950000000  0.4968250000000 1.0
C      1  0.5912450000000  0.4730650000000  0.4662070000000 1.0
C      1  0.5092930000000  0.4699320000000  0.4425700000000 1.0
C      1  0.3886640000000  0.5270110000000  0.5135300000000 1.0
C      1  0.5594150000000  0.5291430000000  0.4213300000000 1.0
C      1  0.4906860000000  0.5339400000000  0.4489650000000 1.0
C      1  0.4245140000000  0.5286230000000  0.5613290000000 1.0
C      1  0.5308120000000  0.5057720000000  0.5729590000000 1.0
C      1  0.4793430000000  0.5633740000000  0.4094180000000 1.0
C      1  0.5614860000000  0.5716620000000  0.4700290000000 1.0
C      1  0.4522870000000  0.5498260000000  0.4736660000000 1.0
C      1  0.4508470000000  0.5065360000000  0.4028430000000 1.0
C      1  0.5231720000000  0.4198980000000  0.5430450000000 1.0
C      1  0.4934730000000  0.4948870000000  0.4255850000000 1.0
C      1  0.4616350000000  0.5443130000000  0.5864810000000 1.0
C      1  0.4928050000000  0.4356120000000  0.4228800000000 1.0
C      1  0.5829580000000  0.5252040000000  0.5033620000000 1.0
C      1  0.5255360000000  0.5388630000000  0.6119850000000 1.0
C      1  0.5125450000000  0.5184610000000  0.4653230000000 1.0
C      1  0.5920730000000  0.4495890000000  0.5231530000000 1.0
C      1  0.4969180000000  0.5414160000000  0.5071500000000 1.0
C      1  0.5777220000000  0.4566780000000  0.4929670000000 1.0
C      1  0.4715420000000  0.4981290000000  0.5105010000000 1.0
C      1  0.3984730000000  0.4767370000000  0.5254310000000 1.0
C      1  0.4666550000000  0.4961850000000  0.4817870000000 1.0
C      1  0.5605940000000  0.4572660000000  0.5662490000000 1.0
C      1  0.5612810000000  0.5394970000000  0.5188070000000 1.0
C      1  0.5750630000000  0.4224740000000  0.4724950000000 1.0
C      1  0.4709960000000  0.4811240000000  0.4453080000000 1.0
C      1  0.5780550000000  0.4455980000000  0.4526180000000 1.0
C      1  0.4521470000000  0.4895870000000  0.5824740000000 1.0
C      1  0.4785690000000  0.5774120000000  0.4333140000000 1.0
C      1  0.5586660000000  0.4908560000000  0.5601060000000 1.0
C      1  0.5530060000000  0.4534530000000  0.5169620000000 1.0
C      1  0.5274210000000  0.4552000000000  0.4175180000000 1.0
C      1  0.5165920000000  0.5895880000000  0.4603070000000 1.0
C      1  0.5285390000000  0.3982220000000  0.5004810000000 1.0
C      1  0.4428650000000  0.5212340000000  0.5810190000000 1.0
C      1  0.5064060000000  0.4963180000000  0.5373340000000 1.0
C      1  0.5341170000000  0.5570860000000  0.5082040000000 1.0
C      1  0.4993920000000  0.3960520000000  0.5086020000000 1.0
C      1  0.5445510000000  0.4218300000000  0.4831080000000 1.0
C      1  0.4440030000000  0.5816260000000  0.5283870000000 1.0
C      1  0.4416230000000  0.5245070000000  0.5129090000000 1.0
C      1  0.5793770000000  0.5749890000000  0.5209410000000 1.0
C      1  0.4493710000000  0.4238540000000  0.4718520000000 1.0
C      1  0.4359100000000  0.4889500000000  0.4955190000000 1.0
C      1  0.5945670000000  0.5251460000000  0.4554700000000 1.0
C      1  0.4257840000000  0.4683990000000  0.4508570000000 1.0
C      1  0.4851940000000  0.5221000000000  0.5875250000000 1.0
C      1  0.4188680000000  0.5779850000000  0.4798000000000 1.0
C      1  0.4311450000000  0.4910710000000  0.4258620000000 1.0
C      1  0.4325820000000  0.5534310000000  0.5435830000000 1.0
C      1  0.4860520000000  0.5630450000000  0.4554530000000 1.0
C      1  0.5130370000000  0.4368810000000  0.4497470000000 1.0
C      1  0.3963260000000  0.4832460000000  0.4960230000000 1.0
C      1  0.5383400000000  0.5010880000000  0.4404460000000 1.0
C      1  0.4973130000000  0.3992390000000  0.4677660000000 1.0
C      1  0.5394070000000  0.6103140000000  0.4955200000000 1.0
END
