TITL C-2778436-5916-1192 -0.00289258621146434 125000 -1128.10473008005 0 0 194 (C1) n - 1
REM
REM in /home/nfs/bkarasulu/CARBON/AIRSS/Generating-Clusters/REBO/Only-C1/SD-CG/HFTN-CG
REM
REM
REM
REM
REM
REM ./C.cell (11c1c37f851c82e70ff6c80c92926a4b)
REM
REM compiler GCC version 9.2.1 20190827 (Red Hat 9.2.1-1)
REM options -cpp -mtune=generic -march=x86-64 -g -O0 -fpre-include=/usr/include/finclude/math-vector-fortran.h
REM seed 309750146 -677610609 -1529288645 -1977766082 -886322431 -2122121067 1890413028 -1915225662 -1981700422 -1839578198 588308675 750881956 -2092653538 1607862389 -1917069630 -750407978 1849852068 221517297 1506969267 434772479 -647649527 -2027992689 319138515 1108160219 504154683 1797926878 5621505 -1598371771 -9844807 -83530739 1066292588 1767760368 -1306650532
REM
CELL 1.54180   50.00000   50.00000   50.00000   90.00000   90.00000   90.00000
LATT -1
SFAC C  
C      1  0.4735650000000  0.4754950000000  0.5984270000000 1.0
C      1  0.4778700000000  0.5554700000000  0.5251330000000 1.0
C      1  0.3785140000000  0.5292870000000  0.5067950000000 1.0
C      1  0.4532480000000  0.4067380000000  0.5146850000000 1.0
C      1  0.5814060000000  0.5629830000000  0.5122740000000 1.0
C      1  0.5859000000000  0.5245410000000  0.4704400000000 1.0
C      1  0.4383500000000  0.5973770000000  0.4761170000000 1.0
C      1  0.5609780000000  0.5826800000000  0.5197530000000 1.0
C      1  0.5152620000000  0.5424730000000  0.4796940000000 1.0
C      1  0.5338710000000  0.4398090000000  0.5215810000000 1.0
C      1  0.5008810000000  0.5929850000000  0.5772550000000 1.0
C      1  0.5578850000000  0.5036060000000  0.4011660000000 1.0
C      1  0.4342340000000  0.5292520000000  0.5304870000000 1.0
C      1  0.4892270000000  0.5000520000000  0.6048280000000 1.0
C      1  0.4373880000000  0.4395820000000  0.5725730000000 1.0
C      1  0.4736470000000  0.4773360000000  0.5689040000000 1.0
C      1  0.4717180000000  0.5279090000000  0.5532530000000 1.0
C      1  0.3918870000000  0.4562970000000  0.5090010000000 1.0
C      1  0.5388250000000  0.4521630000000  0.4342190000000 1.0
C      1  0.4914160000000  0.3909200000000  0.5378560000000 1.0
C      1  0.4799610000000  0.4193090000000  0.5122180000000 1.0
C      1  0.4620060000000  0.6059940000000  0.4926060000000 1.0
C      1  0.4070490000000  0.5367100000000  0.5585740000000 1.0
C      1  0.5635740000000  0.4983640000000  0.4402170000000 1.0
C      1  0.5704940000000  0.4145120000000  0.5007760000000 1.0
C      1  0.4649230000000  0.4866410000000  0.4145610000000 1.0
C      1  0.4803170000000  0.5232420000000  0.5916710000000 1.0
C      1  0.5534620000000  0.4777890000000  0.5156760000000 1.0
C      1  0.5475500000000  0.5948860000000  0.4689630000000 1.0
C      1  0.4774130000000  0.4685010000000  0.4762140000000 1.0
C      1  0.6101540000000  0.4762370000000  0.5266520000000 1.0
C      1  0.5496480000000  0.5980870000000  0.4978440000000 1.0
C      1  0.4302960000000  0.4183550000000  0.4964800000000 1.0
C      1  0.5167690000000  0.5319270000000  0.4237060000000 1.0
C      1  0.6117760000000  0.5692720000000  0.4702110000000 1.0
C      1  0.4438500000000  0.5477780000000  0.4792660000000 1.0
C      1  0.5637650000000  0.5629070000000  0.5619580000000 1.0
C      1  0.5042190000000  0.4707920000000  0.5111400000000 1.0
C      1  0.4926700000000  0.5464190000000  0.5713330000000 1.0
C      1  0.5765740000000  0.5359360000000  0.5512930000000 1.0
C      1  0.5265360000000  0.5265960000000  0.4529370000000 1.0
C      1  0.5743570000000  0.5161500000000  0.5783880000000 1.0
C      1  0.6104850000000  0.4759590000000  0.4884100000000 1.0
C      1  0.5859130000000  0.4656920000000  0.5608190000000 1.0
C      1  0.5574460000000  0.5610650000000  0.5886880000000 1.0
C      1  0.5573890000000  0.5256210000000  0.4518400000000 1.0
C      1  0.5215620000000  0.5206390000000  0.5810570000000 1.0
C      1  0.5184380000000  0.6044910000000  0.5008440000000 1.0
C      1  0.5604540000000  0.4874090000000  0.5677610000000 1.0
C      1  0.5437870000000  0.4986790000000  0.5407730000000 1.0
C      1  0.4081120000000  0.5538670000000  0.4961690000000 1.0
C      1  0.4237910000000  0.4905070000000  0.5003460000000 1.0
C      1  0.4958800000000  0.4324180000000  0.4877860000000 1.0
C      1  0.5371720000000  0.4830700000000  0.4283640000000 1.0
C      1  0.5277440000000  0.4282450000000  0.4765530000000 1.0
C      1  0.5072490000000  0.4021420000000  0.4649580000000 1.0
C      1  0.5062890000000  0.4161500000000  0.4276840000000 1.0
C      1  0.4768980000000  0.5647480000000  0.4547290000000 1.0
C      1  0.4971890000000  0.4814390000000  0.5489250000000 1.0
C      1  0.4823030000000  0.3908150000000  0.4845070000000 1.0
C      1  0.5019450000000  0.4286930000000  0.5662460000000 1.0
C      1  0.4469200000000  0.4513530000000  0.5115180000000 1.0
C      1  0.5301000000000  0.5191870000000  0.4984400000000 1.0
C      1  0.4981820000000  0.4584480000000  0.4578650000000 1.0
C      1  0.5389850000000  0.4553060000000  0.4942890000000 1.0
C      1  0.5544870000000  0.4747040000000  0.4631330000000 1.0
C      1  0.4396420000000  0.5890440000000  0.5369860000000 1.0
C      1  0.4805030000000  0.5765140000000  0.4813420000000 1.0
C      1  0.3916870000000  0.4721730000000  0.4854520000000 1.0
C      1  0.5444090000000  0.5490840000000  0.5061470000000 1.0
C      1  0.5533690000000  0.4697500000000  0.4015990000000 1.0
C      1  0.5115900000000  0.4429870000000  0.4401000000000 1.0
C      1  0.5806600000000  0.4909630000000  0.5313620000000 1.0
C      1  0.5224090000000  0.5724550000000  0.5119770000000 1.0
C      1  0.4960980000000  0.5587310000000  0.4996440000000 1.0
C      1  0.5867870000000  0.5316860000000  0.5097000000000 1.0
C      1  0.5468340000000  0.5323400000000  0.5357400000000 1.0
C      1  0.4223240000000  0.5707330000000  0.4405660000000 1.0
C      1  0.5169650000000  0.4731810000000  0.4795490000000 1.0
C      1  0.5334150000000  0.4529440000000  0.5656480000000 1.0
C      1  0.4312340000000  0.5082510000000  0.5909560000000 1.0
C      1  0.6086970000000  0.5047420000000  0.5072390000000 1.0
C      1  0.4847250000000  0.4954170000000  0.4864350000000 1.0
C      1  0.5139950000000  0.4191110000000  0.5129510000000 1.0
C      1  0.5120390000000  0.6062360000000  0.5306680000000 1.0
C      1  0.5642280000000  0.4285630000000  0.5277800000000 1.0
C      1  0.4246130000000  0.5386780000000  0.4526750000000 1.0
C      1  0.5146570000000  0.5797330000000  0.4374190000000 1.0
C      1  0.4504860000000  0.5750730000000  0.5664450000000 1.0
C      1  0.5239020000000  0.4643590000000  0.6078990000000 1.0
C      1  0.5203390000000  0.4965750000000  0.6051530000000 1.0
C      1  0.5339500000000  0.5195220000000  0.4010130000000 1.0
C      1  0.4380790000000  0.5938530000000  0.4480570000000 1.0
C      1  0.5696710000000  0.4514650000000  0.5821710000000 1.0
C      1  0.5704150000000  0.4473780000000  0.4207780000000 1.0
C      1  0.5733560000000  0.4886520000000  0.4827280000000 1.0
C      1  0.3994930000000  0.4980400000000  0.5186730000000 1.0
C      1  0.5135820000000  0.4471310000000  0.5879790000000 1.0
C      1  0.5334920000000  0.4106910000000  0.4477360000000 1.0
C      1  0.4247470000000  0.4819440000000  0.5955120000000 1.0
C      1  0.5005320000000  0.5589080000000  0.4173210000000 1.0
C      1  0.4868130000000  0.5191560000000  0.4217970000000 1.0
C      1  0.4682290000000  0.5149920000000  0.3960440000000 1.0
C      1  0.5613290000000  0.5587740000000  0.4782070000000 1.0
C      1  0.6039650000000  0.5230020000000  0.5356070000000 1.0
C      1  0.4605460000000  0.4977060000000  0.4547350000000 1.0
C      1  0.4996420000000  0.4674600000000  0.4108210000000 1.0
C      1  0.4026440000000  0.4472860000000  0.4530210000000 1.0
C      1  0.5535580000000  0.3919920000000  0.4967270000000 1.0
C      1  0.5524940000000  0.4739620000000  0.5983370000000 1.0
C      1  0.4270340000000  0.5747160000000  0.4878210000000 1.0
C      1  0.4545220000000  0.5021680000000  0.5092050000000 1.0
C      1  0.4174190000000  0.4833040000000  0.4675450000000 1.0
C      1  0.5540640000000  0.4309710000000  0.5663440000000 1.0
C      1  0.4667810000000  0.5640050000000  0.4161520000000 1.0
C      1  0.4804360000000  0.6083710000000  0.5363220000000 1.0
C      1  0.4522940000000  0.5214190000000  0.5780840000000 1.0
C      1  0.4183340000000  0.5297560000000  0.5037980000000 1.0
C      1  0.4783440000000  0.4488010000000  0.4087310000000 1.0
C      1  0.5451550000000  0.5921720000000  0.4378510000000 1.0
C      1  0.4539790000000  0.4569530000000  0.4276770000000 1.0
C      1  0.4134840000000  0.4446860000000  0.5517900000000 1.0
C      1  0.4932620000000  0.4896220000000  0.4334020000000 1.0
C      1  0.4941380000000  0.6001640000000  0.4486810000000 1.0
C      1  0.4479740000000  0.5565420000000  0.5388240000000 1.0
C      1  0.6035920000000  0.5483600000000  0.4543900000000 1.0
C      1  0.4216150000000  0.5572190000000  0.5688820000000 1.0
C      1  0.4627460000000  0.3999110000000  0.5425490000000 1.0
C      1  0.4545050000000  0.4081750000000  0.4748000000000 1.0
C      1  0.5645950000000  0.5756920000000  0.4274460000000 1.0
C      1  0.5207350000000  0.4743880000000  0.3930210000000 1.0
C      1  0.5450010000000  0.5389740000000  0.5975360000000 1.0
C      1  0.5136780000000  0.4062620000000  0.5514000000000 1.0
C      1  0.4768980000000  0.4562740000000  0.5256760000000 1.0
C      1  0.5051760000000  0.5042090000000  0.5094200000000 1.0
C      1  0.5277570000000  0.4953240000000  0.4576830000000 1.0
C      1  0.4384100000000  0.5142610000000  0.4810920000000 1.0
C      1  0.4236290000000  0.5086950000000  0.5517900000000 1.0
C      1  0.5220100000000  0.5965370000000  0.5598160000000 1.0
C      1  0.5817640000000  0.4639320000000  0.5022790000000 1.0
C      1  0.5270540000000  0.3903670000000  0.5054480000000 1.0
C      1  0.4941190000000  0.6064690000000  0.4812140000000 1.0
C      1  0.5193600000000  0.4602160000000  0.5399330000000 1.0
C      1  0.4827480000000  0.5404490000000  0.4480040000000 1.0
C      1  0.5380780000000  0.5721840000000  0.5429300000000 1.0
C      1  0.4685100000000  0.4875580000000  0.5308850000000 1.0
C      1  0.4970000000000  0.3832660000000  0.5094170000000 1.0
C      1  0.4090130000000  0.4785660000000  0.5521700000000 1.0
C      1  0.3922700000000  0.4663010000000  0.4363370000000 1.0
C      1  0.3841680000000  0.4735140000000  0.5322370000000 1.0
C      1  0.4526070000000  0.4323660000000  0.4493460000000 1.0
C      1  0.4474160000000  0.4883980000000  0.5561080000000 1.0
C      1  0.5601070000000  0.4188970000000  0.4348320000000 1.0
C      1  0.5806600000000  0.4306630000000  0.4803670000000 1.0
C      1  0.4446180000000  0.4613450000000  0.5912120000000 1.0
C      1  0.4661670000000  0.5902620000000  0.4357480000000 1.0
C      1  0.5313910000000  0.5648850000000  0.4631300000000 1.0
C      1  0.4859470000000  0.4211120000000  0.4086610000000 1.0
C      1  0.4441960000000  0.4733410000000  0.4545010000000 1.0
C      1  0.5726920000000  0.5531270000000  0.4462410000000 1.0
C      1  0.3945350000000  0.4984690000000  0.4333230000000 1.0
C      1  0.4800930000000  0.5453860000000  0.3930940000000 1.0
C      1  0.4374780000000  0.4637340000000  0.5390370000000 1.0
C      1  0.5865780000000  0.4515090000000  0.5325280000000 1.0
C      1  0.3785330000000  0.4815760000000  0.4110170000000 1.0
C      1  0.5626080000000  0.5158580000000  0.4941760000000 1.0
C      1  0.4404480000000  0.5500700000000  0.4247400000000 1.0
C      1  0.4807110000000  0.5742450000000  0.5761520000000 1.0
C      1  0.4799780000000  0.4399840000000  0.5519770000000 1.0
C      1  0.4809620000000  0.4226080000000  0.4609340000000 1.0
C      1  0.5897840000000  0.5759850000000  0.4864700000000 1.0
C      1  0.5930830000000  0.4874320000000  0.4383750000000 1.0
C      1  0.4068020000000  0.5140830000000  0.4568470000000 1.0
C      1  0.4495810000000  0.4548060000000  0.4822830000000 1.0
C      1  0.5425780000000  0.4104400000000  0.5472920000000 1.0
C      1  0.5927210000000  0.4588070000000  0.4399590000000 1.0
C      1  0.5604240000000  0.4431500000000  0.4590550000000 1.0
C      1  0.5164450000000  0.5055770000000  0.5534540000000 1.0
C      1  0.5962860000000  0.5020950000000  0.5587930000000 1.0
C      1  0.4591910000000  0.5356480000000  0.5071020000000 1.0
C      1  0.5527360000000  0.5069930000000  0.6016870000000 1.0
C      1  0.4565080000000  0.6067890000000  0.5222860000000 1.0
C      1  0.3900770000000  0.5063140000000  0.4851130000000 1.0
C      1  0.4262280000000  0.4352740000000  0.4675800000000 1.0
C      1  0.5985000000000  0.4514460000000  0.4678520000000 1.0
C      1  0.4157820000000  0.4377840000000  0.5183320000000 1.0
C      1  0.3923940000000  0.5270780000000  0.5340050000000 1.0
C      1  0.4933560000000  0.5787990000000  0.5386520000000 1.0
C      1  0.4931890000000  0.5184890000000  0.5350090000000 1.0
C      1  0.5227930000000  0.5447330000000  0.5565810000000 1.0
C      1  0.4571840000000  0.4235790000000  0.5601090000000 1.0
C      1  0.4905530000000  0.5107320000000  0.4601470000000 1.0
C      1  0.5182640000000  0.5017480000000  0.3837810000000 1.0
C      1  0.6018570000000  0.4983820000000  0.4660050000000 1.0
END
