TITL C-2778433-5640-791 -0.000399775473209024 125000 -620.367184857579 0 0 107 (C1) n - 1
REM
REM in /home/nfs/bkarasulu/CARBON/AIRSS/Generating-Clusters/REBO/Only-C1/SD-CG/HFTN-CG
REM
REM
REM
REM
REM
REM ./C.cell (11c1c37f851c82e70ff6c80c92926a4b)
REM
REM compiler GCC version 9.2.1 20190827 (Red Hat 9.2.1-1)
REM options -cpp -mtune=generic -march=x86-64 -g -O0 -fpre-include=/usr/include/finclude/math-vector-fortran.h
REM seed 1141886076 1408850331 1320496800 -1684714718 -217837393 -1675315522 -1230078229 -575608774 1575740566 1180093441 1835244042 1179787633 1836949219 -1160425720 -299322149 -1127400657 1759926726 1279664908 1422405872 -914154704 -1840584993 1983688077 -1547788241 -1758437207 -897286275 -1827582969 -1536869950 555974431 1668810589 -217876937 -1866010713 -905021511 1870145856
REM
CELL 1.54180   50.00000   50.00000   50.00000   90.00000   90.00000   90.00000
LATT -1
SFAC C  
C      1  0.4584230000000  0.5004030000000  0.5804230000000 1.0
C      1  0.4882900000000  0.5429400000000  0.5686120000000 1.0
C      1  0.4618210000000  0.4499490000000  0.5100090000000 1.0
C      1  0.4273200000000  0.4357570000000  0.5313580000000 1.0
C      1  0.4857880000000  0.5455250000000  0.5113030000000 1.0
C      1  0.4659870000000  0.5064720000000  0.4961500000000 1.0
C      1  0.5224970000000  0.4924610000000  0.5518280000000 1.0
C      1  0.4530210000000  0.4750110000000  0.4958050000000 1.0
C      1  0.5180950000000  0.4697380000000  0.5767790000000 1.0
C      1  0.4377430000000  0.5665360000000  0.4797560000000 1.0
C      1  0.5268920000000  0.4468820000000  0.4383500000000 1.0
C      1  0.4500110000000  0.4611260000000  0.4433640000000 1.0
C      1  0.4808430000000  0.4343700000000  0.4943830000000 1.0
C      1  0.5506260000000  0.5317400000000  0.4800080000000 1.0
C      1  0.4652450000000  0.4784930000000  0.4667580000000 1.0
C      1  0.4459950000000  0.4944820000000  0.4444230000000 1.0
C      1  0.4772600000000  0.4501170000000  0.4318080000000 1.0
C      1  0.4584150000000  0.5635960000000  0.5019830000000 1.0
C      1  0.4740730000000  0.5935840000000  0.4304000000000 1.0
C      1  0.4384790000000  0.5545520000000  0.5280330000000 1.0
C      1  0.5946470000000  0.5308870000000  0.4985620000000 1.0
C      1  0.5128380000000  0.5013680000000  0.4321100000000 1.0
C      1  0.4161200000000  0.4796810000000  0.5348210000000 1.0
C      1  0.5466490000000  0.4445320000000  0.5385380000000 1.0
C      1  0.4574430000000  0.4387750000000  0.5399500000000 1.0
C      1  0.4299660000000  0.5145140000000  0.5458010000000 1.0
C      1  0.5882080000000  0.5185860000000  0.5247350000000 1.0
C      1  0.5648550000000  0.4344140000000  0.5208920000000 1.0
C      1  0.4839940000000  0.4335060000000  0.5566500000000 1.0
C      1  0.5543170000000  0.5470190000000  0.5518030000000 1.0
C      1  0.5438870000000  0.5648090000000  0.5251970000000 1.0
C      1  0.4941820000000  0.4819010000000  0.4613210000000 1.0
C      1  0.5744520000000  0.4726330000000  0.5438840000000 1.0
C      1  0.4956310000000  0.4103800000000  0.4940060000000 1.0
C      1  0.4359900000000  0.5408180000000  0.4351510000000 1.0
C      1  0.5684160000000  0.4763000000000  0.4451970000000 1.0
C      1  0.5864570000000  0.5567220000000  0.4886490000000 1.0
C      1  0.4486470000000  0.4896430000000  0.5325620000000 1.0
C      1  0.4966950000000  0.4639780000000  0.4968390000000 1.0
C      1  0.4572170000000  0.5503030000000  0.5562690000000 1.0
C      1  0.5049460000000  0.4694200000000  0.4324040000000 1.0
C      1  0.4785270000000  0.5626700000000  0.4289730000000 1.0
C      1  0.5420580000000  0.5074270000000  0.5203130000000 1.0
C      1  0.5454740000000  0.4825530000000  0.4684270000000 1.0
C      1  0.5160100000000  0.5846380000000  0.4594420000000 1.0
C      1  0.4316870000000  0.5175110000000  0.4505440000000 1.0
C      1  0.5575850000000  0.4852470000000  0.5183750000000 1.0
C      1  0.4565240000000  0.5823570000000  0.4570450000000 1.0
C      1  0.5018830000000  0.5129160000000  0.4622870000000 1.0
C      1  0.5941640000000  0.4892970000000  0.4526530000000 1.0
C      1  0.4912190000000  0.4551100000000  0.5742320000000 1.0
C      1  0.5171820000000  0.5007920000000  0.5904850000000 1.0
C      1  0.5032970000000  0.4712350000000  0.5355090000000 1.0
C      1  0.4603680000000  0.5430710000000  0.4204390000000 1.0
C      1  0.5279810000000  0.5322810000000  0.4389890000000 1.0
C      1  0.4230760000000  0.4432660000000  0.5031560000000 1.0
C      1  0.4322880000000  0.5138170000000  0.5731060000000 1.0
C      1  0.5130450000000  0.4226180000000  0.4470030000000 1.0
C      1  0.5659950000000  0.4428650000000  0.4939260000000 1.0
C      1  0.5180650000000  0.4148120000000  0.4743290000000 1.0
C      1  0.4230250000000  0.4511910000000  0.4545510000000 1.0
C      1  0.5627360000000  0.4321700000000  0.4678370000000 1.0
C      1  0.5527190000000  0.5905110000000  0.5416480000000 1.0
C      1  0.4867250000000  0.5187340000000  0.5279460000000 1.0
C      1  0.5205630000000  0.4672510000000  0.4738010000000 1.0
C      1  0.5358040000000  0.5110370000000  0.4638370000000 1.0
C      1  0.4297260000000  0.5649720000000  0.4483640000000 1.0
C      1  0.5076280000000  0.5184190000000  0.5532080000000 1.0
C      1  0.4419860000000  0.5175450000000  0.5140950000000 1.0
C      1  0.5206800000000  0.5968730000000  0.4845750000000 1.0
C      1  0.5187330000000  0.4451270000000  0.5269560000000 1.0
C      1  0.5432580000000  0.5330960000000  0.5114940000000 1.0
C      1  0.5480120000000  0.4642500000000  0.5636810000000 1.0
C      1  0.4042430000000  0.4729910000000  0.4587240000000 1.0
C      1  0.5414820000000  0.5493770000000  0.5758710000000 1.0
C      1  0.5001140000000  0.4008650000000  0.5206730000000 1.0
C      1  0.5625110000000  0.5710560000000  0.4982240000000 1.0
C      1  0.4876870000000  0.5706200000000  0.4601070000000 1.0
C      1  0.5656660000000  0.4731460000000  0.4921260000000 1.0
C      1  0.4689200000000  0.4751160000000  0.5760060000000 1.0
C      1  0.4081740000000  0.4909260000000  0.4811190000000 1.0
C      1  0.5182300000000  0.5822230000000  0.5110580000000 1.0
C      1  0.5215510000000  0.4407640000000  0.4941320000000 1.0
C      1  0.4681310000000  0.5195730000000  0.5565660000000 1.0
C      1  0.5933530000000  0.4816070000000  0.4839370000000 1.0
C      1  0.5372750000000  0.5597860000000  0.4497420000000 1.0
C      1  0.5215570000000  0.5220650000000  0.4090530000000 1.0
C      1  0.4701390000000  0.4697750000000  0.5436590000000 1.0
C      1  0.4857850000000  0.4239630000000  0.4372090000000 1.0
C      1  0.4240350000000  0.4330130000000  0.4766990000000 1.0
C      1  0.4705570000000  0.5676680000000  0.5322870000000 1.0
C      1  0.4222380000000  0.4766030000000  0.5030530000000 1.0
C      1  0.5034120000000  0.4219590000000  0.5395960000000 1.0
C      1  0.4177510000000  0.5171680000000  0.4758610000000 1.0
C      1  0.4116380000000  0.4548640000000  0.5465800000000 1.0
C      1  0.5683310000000  0.5237350000000  0.5456100000000 1.0
C      1  0.5961650000000  0.4906270000000  0.5274350000000 1.0
C      1  0.5536770000000  0.4497710000000  0.4467060000000 1.0
C      1  0.5351720000000  0.5597310000000  0.4833500000000 1.0
C      1  0.5951200000000  0.5120180000000  0.4774430000000 1.0
C      1  0.4801070000000  0.5234620000000  0.4776820000000 1.0
C      1  0.5554940000000  0.4971940000000  0.5564360000000 1.0
C      1  0.5685630000000  0.5548840000000  0.4623070000000 1.0
C      1  0.4260790000000  0.5408340000000  0.4988140000000 1.0
C      1  0.4871210000000  0.4889150000000  0.5129670000000 1.0
C      1  0.5164210000000  0.5328340000000  0.5818000000000 1.0
C      1  0.5028920000000  0.5612870000000  0.4890710000000 1.0
END
