TITL C-2778431-5191-1091 0.0419577638110189 125000 -249.760349360027 0 0 43 (C1) n - 1
REM
REM in /home/nfs/bkarasulu/CARBON/AIRSS/Generating-Clusters/REBO/Only-C1/SD-CG/HFTN-CG
REM
REM
REM
REM
REM
REM ./C.cell (11c1c37f851c82e70ff6c80c92926a4b)
REM
REM compiler GCC version 9.2.1 20190827 (Red Hat 9.2.1-1)
REM options -cpp -mtune=generic -march=x86-64 -g -O0 -fpre-include=/usr/include/finclude/math-vector-fortran.h
REM seed 588886294 1829098660 1830710185 -1172220796 -429291783 799660613 1464283070 -1729662962 2109221617 -428147962 -713857668 -233763764 550231253 -948926203 102186365 -1223899850 -619518155 956003547 1181916062 -1425612962 -308772349 -1515674382 -627580139 1015017459 890551279 -454528339 -2026311828 268490817 -1384723267 1346897160 -1990876593 -1958328243 1645939595
REM
CELL 1.54180   50.00000   50.00000   50.00000   90.00000   90.00000   90.00000
LATT -1
SFAC C  
C      1  0.4378450000000  0.4403260000000  0.4622800000000 1.0
C      1  0.4718090000000  0.5190820000000  0.5663460000000 1.0
C      1  0.5607290000000  0.5331450000000  0.5535290000000 1.0
C      1  0.4992240000000  0.4365110000000  0.4413100000000 1.0
C      1  0.4826800000000  0.4637000000000  0.5178320000000 1.0
C      1  0.4837720000000  0.4550820000000  0.4552090000000 1.0
C      1  0.5518550000000  0.5361250000000  0.5283920000000 1.0
C      1  0.4870460000000  0.5078050000000  0.4936290000000 1.0
C      1  0.5063830000000  0.5701140000000  0.4703150000000 1.0
C      1  0.5970740000000  0.4438010000000  0.4959600000000 1.0
C      1  0.5758330000000  0.4566390000000  0.4875460000000 1.0
C      1  0.4911850000000  0.5044030000000  0.5876390000000 1.0
C      1  0.5481080000000  0.4729050000000  0.4509710000000 1.0
C      1  0.5338210000000  0.5360910000000  0.5071650000000 1.0
C      1  0.4828990000000  0.3925940000000  0.4909910000000 1.0
C      1  0.4632400000000  0.4431140000000  0.4750100000000 1.0
C      1  0.4740220000000  0.4154060000000  0.4837750000000 1.0
C      1  0.5145400000000  0.5090500000000  0.6012690000000 1.0
C      1  0.4663020000000  0.5604970000000  0.5330170000000 1.0
C      1  0.4557230000000  0.5088890000000  0.4950760000000 1.0
C      1  0.5251740000000  0.5595370000000  0.4949350000000 1.0
C      1  0.4657990000000  0.5417890000000  0.5523580000000 1.0
C      1  0.4734210000000  0.5699300000000  0.5074900000000 1.0
C      1  0.4440500000000  0.4833970000000  0.4981230000000 1.0
C      1  0.5002750000000  0.5799010000000  0.5009280000000 1.0
C      1  0.5195070000000  0.5112030000000  0.5012300000000 1.0
C      1  0.4824270000000  0.5549840000000  0.4620870000000 1.0
C      1  0.5012160000000  0.5203560000000  0.4252590000000 1.0
C      1  0.4778410000000  0.4673040000000  0.5453240000000 1.0
C      1  0.5399920000000  0.5175260000000  0.5980160000000 1.0
C      1  0.4625810000000  0.5562020000000  0.4839550000000 1.0
C      1  0.4800730000000  0.5063480000000  0.4634490000000 1.0
C      1  0.4607000000000  0.4604450000000  0.5000410000000 1.0
C      1  0.4875530000000  0.4822030000000  0.4493760000000 1.0
C      1  0.5573060000000  0.5266170000000  0.5794110000000 1.0
C      1  0.4770020000000  0.4870610000000  0.5644420000000 1.0
C      1  0.4854940000000  0.5303180000000  0.4478170000000 1.0
C      1  0.5531980000000  0.4703180000000  0.4785800000000 1.0
C      1  0.5029110000000  0.4818090000000  0.5064710000000 1.0
C      1  0.5323620000000  0.4801900000000  0.4301260000000 1.0
C      1  0.5350820000000  0.4815320000000  0.4964440000000 1.0
C      1  0.4453450000000  0.5341090000000  0.4883790000000 1.0
C      1  0.5065990000000  0.4916410000000  0.4285000000000 1.0
END
