TITL C-107217-8244-9 0.0417456316686528 125000 -860.690163063144 0 0 123 (C1) n - 1
REM
REM in /rds/project/t2_vol4/rds-t2-cs072/BORA/CARBON/from-Arr/AIRSS/Generating-Clusters/GAP-ML-2020/Only-C1/SD-CG/HFTN-CG
REM
REM
REM
REM
REM
REM ./C.cell (11c1c37f851c82e70ff6c80c92926a4b)
REM AIRSS Version 0.9.1 bugfix July 2018 build 013d7b7c2542+ Fri, 06 Jul 2018 19:26:36 +0100
REM compiler GCC version 9.3.0
REM options -cpp -mtune=generic -march=x86-64 -g -O0
REM seed 776561514 -49906108 -1422112149 1370820693 -644621318 -1235429173 1250985775 -2142402057 85390147 1369510774 -1938608308 -716096080 -1379916750 864885174 2031032198 582528437 281207318 655923909 866967979 641367194 1487258036 -1129480573 -1285387080 1790569813 300349265 1820842465 1691641418 641508321 1859019600 1113092743 1205854489 1311406074 1507168977
REM
CELL 1.54180   50.00000   50.00000   50.00000   90.00000   90.00000   90.00000
LATT -1
SFAC C  
C      1  0.5515470000000  0.5249410000000  0.5420670000000 1.0
C      1  0.5546000000000  0.4489080000000  0.4483620000000 1.0
C      1  0.4394780000000  0.5736100000000  0.4874980000000 1.0
C      1  0.4218890000000  0.4894750000000  0.5029220000000 1.0
C      1  0.4262310000000  0.5486700000000  0.4905210000000 1.0
C      1  0.4855300000000  0.5344990000000  0.4200670000000 1.0
C      1  0.5491580000000  0.4684130000000  0.4909250000000 1.0
C      1  0.5099450000000  0.4099930000000  0.4861050000000 1.0
C      1  0.5214910000000  0.5006080000000  0.5121130000000 1.0
C      1  0.4480210000000  0.5767680000000  0.5369320000000 1.0
C      1  0.5345300000000  0.5487520000000  0.4365440000000 1.0
C      1  0.5765340000000  0.4917180000000  0.4565730000000 1.0
C      1  0.4698960000000  0.5153680000000  0.5006840000000 1.0
C      1  0.5469290000000  0.5240200000000  0.4408250000000 1.0
C      1  0.5715700000000  0.4535550000000  0.5031360000000 1.0
C      1  0.4676940000000  0.4554630000000  0.5900850000000 1.0
C      1  0.4270240000000  0.5355460000000  0.4648330000000 1.0
C      1  0.4774700000000  0.5333320000000  0.5218270000000 1.0
C      1  0.5024850000000  0.4999560000000  0.4656570000000 1.0
C      1  0.5175440000000  0.4063290000000  0.5129710000000 1.0
C      1  0.5593810000000  0.5633800000000  0.4936650000000 1.0
C      1  0.5587700000000  0.5532140000000  0.5416150000000 1.0
C      1  0.4481280000000  0.5071920000000  0.4361160000000 1.0
C      1  0.5316550000000  0.5002080000000  0.4534480000000 1.0
C      1  0.4933020000000  0.5121220000000  0.4044920000000 1.0
C      1  0.4501130000000  0.4545110000000  0.5682110000000 1.0
C      1  0.5690240000000  0.5647500000000  0.4667420000000 1.0
C      1  0.5464860000000  0.5126150000000  0.4971510000000 1.0
C      1  0.5401470000000  0.5405680000000  0.4916970000000 1.0
C      1  0.4927280000000  0.4853790000000  0.5608080000000 1.0
C      1  0.5403580000000  0.4200820000000  0.5209990000000 1.0
C      1  0.5158700000000  0.6024500000000  0.4829730000000 1.0
C      1  0.4728680000000  0.4036080000000  0.4577950000000 1.0
C      1  0.5400760000000  0.5696260000000  0.5542720000000 1.0
C      1  0.4324510000000  0.4583620000000  0.4703040000000 1.0
C      1  0.4867540000000  0.4783800000000  0.4511000000000 1.0
C      1  0.4700190000000  0.5211570000000  0.5494910000000 1.0
C      1  0.4518170000000  0.5746180000000  0.4614600000000 1.0
C      1  0.5108700000000  0.4395680000000  0.4797690000000 1.0
C      1  0.4656470000000  0.5690860000000  0.5598530000000 1.0
C      1  0.5028620000000  0.5744440000000  0.5330270000000 1.0
C      1  0.5036150000000  0.5446170000000  0.5189080000000 1.0
C      1  0.5243110000000  0.5877670000000  0.4588740000000 1.0
C      1  0.5002850000000  0.5773760000000  0.4462990000000 1.0
C      1  0.4529170000000  0.4963150000000  0.5413990000000 1.0
C      1  0.5122490000000  0.4305000000000  0.5606280000000 1.0
C      1  0.5361000000000  0.4575730000000  0.4274980000000 1.0
C      1  0.5127340000000  0.5446820000000  0.4909140000000 1.0
C      1  0.4708750000000  0.5313340000000  0.4776690000000 1.0
C      1  0.5141260000000  0.4471020000000  0.4104060000000 1.0
C      1  0.5872930000000  0.5351680000000  0.5092600000000 1.0
C      1  0.4972050000000  0.5321730000000  0.4678400000000 1.0
C      1  0.5691970000000  0.5130600000000  0.5195100000000 1.0
C      1  0.5740420000000  0.5589530000000  0.5178240000000 1.0
C      1  0.5744600000000  0.5196890000000  0.4463460000000 1.0
C      1  0.5853730000000  0.5406830000000  0.4617620000000 1.0
C      1  0.5830250000000  0.4891120000000  0.5240300000000 1.0
C      1  0.4158360000000  0.4411750000000  0.4845090000000 1.0
C      1  0.4594600000000  0.4455800000000  0.4722060000000 1.0
C      1  0.4108730000000  0.4695970000000  0.5208240000000 1.0
C      1  0.5461760000000  0.5712870000000  0.4504190000000 1.0
C      1  0.4875000000000  0.4772510000000  0.5876250000000 1.0
C      1  0.5548390000000  0.5085850000000  0.5659430000000 1.0
C      1  0.4244310000000  0.4858570000000  0.4746090000000 1.0
C      1  0.4985660000000  0.4243170000000  0.4159400000000 1.0
C      1  0.5777810000000  0.4662870000000  0.4472030000000 1.0
C      1  0.4438060000000  0.5512600000000  0.4472310000000 1.0
C      1  0.5149110000000  0.5295540000000  0.5798700000000 1.0
C      1  0.5758960000000  0.4641070000000  0.5293230000000 1.0
C      1  0.4504410000000  0.5873790000000  0.5101190000000 1.0
C      1  0.4866480000000  0.6033280000000  0.4798640000000 1.0
C      1  0.4621300000000  0.4540530000000  0.4993840000000 1.0
C      1  0.5213950000000  0.6043230000000  0.5120120000000 1.0
C      1  0.5557490000000  0.4299800000000  0.4994990000000 1.0
C      1  0.4343470000000  0.4778710000000  0.5586610000000 1.0
C      1  0.4766540000000  0.5882190000000  0.4580200000000 1.0
C      1  0.4641090000000  0.4438780000000  0.5444100000000 1.0
C      1  0.4664630000000  0.4855900000000  0.4307710000000 1.0
C      1  0.5187290000000  0.5210210000000  0.5340050000000 1.0
C      1  0.4190990000000  0.4434270000000  0.5116560000000 1.0
C      1  0.5021460000000  0.4703000000000  0.3995770000000 1.0
C      1  0.4531200000000  0.4165510000000  0.4738840000000 1.0
C      1  0.5503350000000  0.4799590000000  0.5662620000000 1.0
C      1  0.5481010000000  0.4620520000000  0.5428430000000 1.0
C      1  0.4513360000000  0.4107980000000  0.5025120000000 1.0
C      1  0.4938590000000  0.5698830000000  0.5608330000000 1.0
C      1  0.5361480000000  0.5123610000000  0.5882310000000 1.0
C      1  0.5343820000000  0.4836600000000  0.5903850000000 1.0
C      1  0.4925660000000  0.4042780000000  0.5268140000000 1.0
C      1  0.5088840000000  0.4391260000000  0.5876710000000 1.0
C      1  0.5077960000000  0.4541360000000  0.5064660000000 1.0
C      1  0.4843240000000  0.4697850000000  0.5089800000000 1.0
C      1  0.4097320000000  0.4734440000000  0.5482350000000 1.0
C      1  0.5168980000000  0.4943320000000  0.4046530000000 1.0
C      1  0.4868660000000  0.3953390000000  0.4805210000000 1.0
C      1  0.5172510000000  0.5570130000000  0.5711830000000 1.0
C      1  0.4753990000000  0.4741800000000  0.5385400000000 1.0
C      1  0.5309630000000  0.4718630000000  0.5151830000000 1.0
C      1  0.4873610000000  0.4236230000000  0.5470650000000 1.0
C      1  0.4860180000000  0.4231510000000  0.4395770000000 1.0
C      1  0.4344660000000  0.5515190000000  0.5382910000000 1.0
C      1  0.4405720000000  0.5078540000000  0.5152770000000 1.0
C      1  0.4282560000000  0.5358540000000  0.5159760000000 1.0
C      1  0.4991970000000  0.5135800000000  0.5580490000000 1.0
C      1  0.4742410000000  0.3961860000000  0.5068910000000 1.0
C      1  0.5986570000000  0.5323150000000  0.4852460000000 1.0
C      1  0.4942510000000  0.6019100000000  0.5225720000000 1.0
C      1  0.4292580000000  0.5081110000000  0.4574460000000 1.0
C      1  0.5129240000000  0.4672050000000  0.5961650000000 1.0
C      1  0.4478650000000  0.4367590000000  0.5182460000000 1.0
C      1  0.4825710000000  0.4334000000000  0.5974330000000 1.0
C      1  0.4578120000000  0.5333060000000  0.4297920000000 1.0
C      1  0.5329030000000  0.4859600000000  0.4274130000000 1.0
C      1  0.5521570000000  0.4928890000000  0.4749730000000 1.0
C      1  0.4731550000000  0.6035360000000  0.5044310000000 1.0
C      1  0.4525770000000  0.5430430000000  0.5594820000000 1.0
C      1  0.5043130000000  0.5486490000000  0.4387940000000 1.0
C      1  0.5360240000000  0.4352080000000  0.5454720000000 1.0
C      1  0.4879250000000  0.4495680000000  0.4593360000000 1.0
C      1  0.4941860000000  0.4959500000000  0.4966640000000 1.0
C      1  0.5413840000000  0.4431970000000  0.4753610000000 1.0
C      1  0.4783640000000  0.4864530000000  0.4047900000000 1.0
C      1  0.5309190000000  0.5864430000000  0.5335820000000 1.0
END
