TITL C-102218-7107-2 -38.9677485698344 125000 -778.507138259653 0 0 109 (C1) n - 1
REM
REM in /rds/project/t2_vol4/rds-t2-cs072/BORA/CARBON/from-Arr/AIRSS/Generating-Clusters/GAP-ML-2020/Only-C1/SD-CG/HFTN-CG
REM
REM
REM
REM
REM
REM ./C.cell (11c1c37f851c82e70ff6c80c92926a4b)
REM AIRSS Version 0.9.1 bugfix July 2018 build 013d7b7c2542+ Fri, 06 Jul 2018 19:26:36 +0100
REM compiler GCC version 9.3.0
REM options -cpp -mtune=generic -march=x86-64 -g -O0
REM seed -844486479 2137187929 1847233605 -2012452402 22458294 -419444215 475555696 861046896 -820073863 185033405 2041716781 -1567738688 -1158716437 1639127590 -721021559 -1661828587 1684406450 -22898143 -739042414 -828113440 1099639725 -1347582500 920832644 472909103 -2061901430 -287624461 883279367 865222035 -1901724558 -1014324220 680436320 -93217662 -414420764
REM
CELL 1.54180   50.00000   50.00000   50.00000   90.00000   90.00000   90.00000
LATT -1
SFAC C  
C      1  0.4644390000000  0.5287960000000  0.5522740000000 1.0
C      1  0.5138170000000  0.4393260000000  0.5606810000000 1.0
C      1  0.4713300000000  0.4795300000000  0.4164110000000 1.0
C      1  0.5634270000000  0.4635250000000  0.5114780000000 1.0
C      1  0.5779690000000  0.5438320000000  0.4758850000000 1.0
C      1  0.5904280000000  0.4761810000000  0.5047470000000 1.0
C      1  0.4627940000000  0.5754060000000  0.5224100000000 1.0
C      1  0.5897940000000  0.5051870000000  0.5050230000000 1.0
C      1  0.5371550000000  0.4433430000000  0.5449840000000 1.0
C      1  0.5244780000000  0.5707450000000  0.4835660000000 1.0
C      1  0.4209770000000  0.5575570000000  0.4894500000000 1.0
C      1  0.4809080000000  0.4330040000000  0.4481990000000 1.0
C      1  0.4827430000000  0.5173090000000  0.5289960000000 1.0
C      1  0.5162520000000  0.5679700000000  0.5641270000000 1.0
C      1  0.5169030000000  0.4838400000000  0.5855080000000 1.0
C      1  0.4766450000000  0.5509480000000  0.4343390000000 1.0
C      1  0.5483950000000  0.4706210000000  0.5374430000000 1.0
C      1  0.5714610000000  0.5591390000000  0.4995960000000 1.0
C      1  0.4949000000000  0.4912740000000  0.5336760000000 1.0
C      1  0.4867270000000  0.5627370000000  0.4576430000000 1.0
C      1  0.4594880000000  0.5343490000000  0.4875550000000 1.0
C      1  0.4089430000000  0.5423940000000  0.4721100000000 1.0
C      1  0.5325410000000  0.5168140000000  0.4835030000000 1.0
C      1  0.5605660000000  0.4889620000000  0.5589370000000 1.0
C      1  0.5455280000000  0.5152580000000  0.4232970000000 1.0
C      1  0.5075580000000  0.5177640000000  0.4707110000000 1.0
C      1  0.5791240000000  0.5067080000000  0.5508020000000 1.0
C      1  0.4313510000000  0.5026920000000  0.5098400000000 1.0
C      1  0.5400680000000  0.4692210000000  0.4290010000000 1.0
C      1  0.5134020000000  0.4680670000000  0.5057680000000 1.0
C      1  0.4538890000000  0.5114900000000  0.5744330000000 1.0
C      1  0.4177780000000  0.5191160000000  0.4602230000000 1.0
C      1  0.5067890000000  0.5324120000000  0.5193990000000 1.0
C      1  0.5147640000000  0.5703150000000  0.4567210000000 1.0
C      1  0.5228480000000  0.5068900000000  0.4080180000000 1.0
C      1  0.4739220000000  0.5079410000000  0.4174140000000 1.0
C      1  0.4878590000000  0.4159160000000  0.4994810000000 1.0
C      1  0.4149380000000  0.5051970000000  0.5323310000000 1.0
C      1  0.4954550000000  0.5542920000000  0.5779200000000 1.0
C      1  0.4611340000000  0.5266360000000  0.4354650000000 1.0
C      1  0.4122830000000  0.4906810000000  0.4528250000000 1.0
C      1  0.4860330000000  0.4738170000000  0.5117880000000 1.0
C      1  0.5013860000000  0.4423650000000  0.4297020000000 1.0
C      1  0.4910310000000  0.5778210000000  0.5194750000000 1.0
C      1  0.5030780000000  0.4592200000000  0.5777190000000 1.0
C      1  0.5486790000000  0.5425640000000  0.4330410000000 1.0
C      1  0.5185270000000  0.4375960000000  0.4721450000000 1.0
C      1  0.4474140000000  0.5193920000000  0.4622180000000 1.0
C      1  0.4706270000000  0.5544940000000  0.5662750000000 1.0
C      1  0.4618150000000  0.5104530000000  0.5052110000000 1.0
C      1  0.4935030000000  0.4238140000000  0.4724140000000 1.0
C      1  0.4268950000000  0.5082740000000  0.5690930000000 1.0
C      1  0.5298660000000  0.4430160000000  0.4371810000000 1.0
C      1  0.4445340000000  0.5546170000000  0.5068260000000 1.0
C      1  0.4418140000000  0.4371440000000  0.4991640000000 1.0
C      1  0.4549920000000  0.4449680000000  0.4482930000000 1.0
C      1  0.5535140000000  0.4931920000000  0.4396940000000 1.0
C      1  0.5672870000000  0.5492360000000  0.4515500000000 1.0
C      1  0.5336960000000  0.5268710000000  0.5797530000000 1.0
C      1  0.4206010000000  0.4855040000000  0.5526250000000 1.0
C      1  0.4269520000000  0.4737960000000  0.4733100000000 1.0
C      1  0.4749540000000  0.4887670000000  0.4884710000000 1.0
C      1  0.4743980000000  0.4641570000000  0.5766000000000 1.0
C      1  0.4218760000000  0.4779500000000  0.5008400000000 1.0
C      1  0.5214750000000  0.4679090000000  0.4791700000000 1.0
C      1  0.4572290000000  0.4495340000000  0.5578540000000 1.0
C      1  0.5563000000000  0.5002260000000  0.4702130000000 1.0
C      1  0.4389430000000  0.4467190000000  0.4716850000000 1.0
C      1  0.4182990000000  0.5286610000000  0.5491590000000 1.0
C      1  0.5565970000000  0.5610320000000  0.5432750000000 1.0
C      1  0.5579730000000  0.4348320000000  0.5048630000000 1.0
C      1  0.5134400000000  0.5815570000000  0.5384720000000 1.0
C      1  0.5756260000000  0.4559100000000  0.4691900000000 1.0
C      1  0.5760170000000  0.5483960000000  0.5256320000000 1.0
C      1  0.4534910000000  0.4907810000000  0.4688670000000 1.0
C      1  0.5242640000000  0.4883140000000  0.5248160000000 1.0
C      1  0.5866060000000  0.5212710000000  0.5289910000000 1.0
C      1  0.4965920000000  0.4232320000000  0.5446740000000 1.0
C      1  0.5411970000000  0.4274680000000  0.4586120000000 1.0
C      1  0.4965840000000  0.5027920000000  0.5914800000000 1.0
C      1  0.5003910000000  0.5469990000000  0.4192880000000 1.0
C      1  0.5371330000000  0.4256980000000  0.5222750000000 1.0
C      1  0.5801350000000  0.5152380000000  0.4807490000000 1.0
C      1  0.4489970000000  0.4663230000000  0.4287340000000 1.0
C      1  0.4344450000000  0.4614420000000  0.5447640000000 1.0
C      1  0.5405250000000  0.5521750000000  0.5658650000000 1.0
C      1  0.5204710000000  0.4790820000000  0.4111530000000 1.0
C      1  0.5986000000000  0.4642310000000  0.4817620000000 1.0
C      1  0.5237910000000  0.5581630000000  0.4322200000000 1.0
C      1  0.4989900000000  0.4908370000000  0.4705610000000 1.0
C      1  0.5631930000000  0.4314530000000  0.4761300000000 1.0
C      1  0.5398580000000  0.5783530000000  0.5274400000000 1.0
C      1  0.5282690000000  0.5152360000000  0.5117070000000 1.0
C      1  0.4629900000000  0.4230200000000  0.5129030000000 1.0
C      1  0.4689940000000  0.4286850000000  0.5413620000000 1.0
C      1  0.5064980000000  0.5291280000000  0.5873900000000 1.0
C      1  0.5019910000000  0.5574750000000  0.5006240000000 1.0
C      1  0.4984930000000  0.5208580000000  0.4084060000000 1.0
C      1  0.4537960000000  0.5687270000000  0.5487690000000 1.0
C      1  0.5526790000000  0.4735450000000  0.4814790000000 1.0
C      1  0.5405400000000  0.4984430000000  0.5779350000000 1.0
C      1  0.5091680000000  0.4154380000000  0.5200720000000 1.0
C      1  0.4959110000000  0.4652020000000  0.4137910000000 1.0
C      1  0.4388620000000  0.5446750000000  0.5389870000000 1.0
C      1  0.5471940000000  0.5755770000000  0.4998240000000 1.0
C      1  0.4710470000000  0.4919090000000  0.5852190000000 1.0
C      1  0.4259290000000  0.4811750000000  0.4315900000000 1.0
C      1  0.4290570000000  0.4560410000000  0.5166220000000 1.0
C      1  0.4861780000000  0.5438250000000  0.4798470000000 1.0
END
