TITL C-102193-7231-4 -0.18324415850827 125000 -402.804416713208 0 0 60 (C1) n - 1
REM
REM in /rds/project/t2_vol4/rds-t2-cs072/BORA/CARBON/from-Arr/AIRSS/Generating-Clusters/GAP-ML-2020/Only-C1/SD-CG/HFTN-CG
REM
REM
REM
REM
REM
REM ./C.cell (11c1c37f851c82e70ff6c80c92926a4b)
REM AIRSS Version 0.9.1 bugfix July 2018 build 013d7b7c2542+ Fri, 06 Jul 2018 19:26:36 +0100
REM compiler GCC version 9.3.0
REM options -cpp -mtune=generic -march=x86-64 -g -O0
REM seed -1549126853 -105654950 -1632555729 1536739209 1900927268 648971304 -952411011 133992781 402203725 804201568 -1072479699 -316493476 -1233777509 1548201275 1765060869 904411046 -490241399 -1597737890 -635019069 1320040409 1297723070 782485920 -464714056 618798640 -510148604 1625409884 1673357579 1813560723 58209664 189922020 1669339850 -2015600186 -1538781143
REM
CELL 1.54180   50.00000   50.00000   50.00000   90.00000   90.00000   90.00000
LATT -1
SFAC C  
C      1  0.4957710000000  0.5869330000000  0.5118410000000 1.0
C      1  0.5064220000000  0.5144580000000  0.4710020000000 1.0
C      1  0.4962550000000  0.4286540000000  0.4924140000000 1.0
C      1  0.4838350000000  0.5454200000000  0.4484350000000 1.0
C      1  0.4839530000000  0.4773690000000  0.4331330000000 1.0
C      1  0.4777610000000  0.5544480000000  0.5501560000000 1.0
C      1  0.5131110000000  0.4744800000000  0.5060670000000 1.0
C      1  0.4350820000000  0.4599700000000  0.5206680000000 1.0
C      1  0.5342080000000  0.5192380000000  0.5527100000000 1.0
C      1  0.4676120000000  0.5511720000000  0.5234710000000 1.0
C      1  0.4520820000000  0.5348590000000  0.4739300000000 1.0
C      1  0.4419080000000  0.4772020000000  0.4988370000000 1.0
C      1  0.5325220000000  0.5519100000000  0.4579110000000 1.0
C      1  0.5216360000000  0.5427560000000  0.5067130000000 1.0
C      1  0.5376430000000  0.5334600000000  0.4387850000000 1.0
C      1  0.5527970000000  0.5129510000000  0.4528820000000 1.0
C      1  0.4832210000000  0.5291050000000  0.5643810000000 1.0
C      1  0.5158190000000  0.4764240000000  0.5524810000000 1.0
C      1  0.4896650000000  0.4928840000000  0.4677320000000 1.0
C      1  0.4485850000000  0.5220840000000  0.4984360000000 1.0
C      1  0.4916140000000  0.4508340000000  0.4455530000000 1.0
C      1  0.4699840000000  0.5062950000000  0.5538630000000 1.0
C      1  0.5550710000000  0.5217520000000  0.4805220000000 1.0
C      1  0.4628090000000  0.5239920000000  0.4492820000000 1.0
C      1  0.4803370000000  0.5002540000000  0.5263630000000 1.0
C      1  0.5502650000000  0.4859050000000  0.4476600000000 1.0
C      1  0.5486650000000  0.4776910000000  0.4966990000000 1.0
C      1  0.5079990000000  0.4873120000000  0.4213560000000 1.0
C      1  0.4323880000000  0.4850000000000  0.5348360000000 1.0
C      1  0.4709760000000  0.4761980000000  0.5093440000000 1.0
C      1  0.4686020000000  0.4603250000000  0.5550300000000 1.0
C      1  0.5569240000000  0.4719810000000  0.5579990000000 1.0
C      1  0.4773960000000  0.5532840000000  0.4772300000000 1.0
C      1  0.5307850000000  0.5169660000000  0.5223600000000 1.0
C      1  0.4936450000000  0.4631100000000  0.5642210000000 1.0
C      1  0.5198020000000  0.4490780000000  0.4434640000000 1.0
C      1  0.5511730000000  0.4686180000000  0.4700430000000 1.0
C      1  0.5097430000000  0.5329640000000  0.4474800000000 1.0
C      1  0.5354400000000  0.4563950000000  0.5118850000000 1.0
C      1  0.4790060000000  0.4299200000000  0.5132970000000 1.0
C      1  0.5138190000000  0.5674810000000  0.5223910000000 1.0
C      1  0.5125210000000  0.5351750000000  0.5621900000000 1.0
C      1  0.4896870000000  0.4722640000000  0.4874270000000 1.0
C      1  0.4634790000000  0.4500200000000  0.5266900000000 1.0
C      1  0.5255790000000  0.4351370000000  0.4921020000000 1.0
C      1  0.4757040000000  0.5706510000000  0.5034120000000 1.0
C      1  0.5502180000000  0.5051050000000  0.5029730000000 1.0
C      1  0.4748080000000  0.5249760000000  0.5114580000000 1.0
C      1  0.5346310000000  0.4454620000000  0.4674890000000 1.0
C      1  0.4685670000000  0.4961320000000  0.4480020000000 1.0
C      1  0.5380250000000  0.4932630000000  0.5641350000000 1.0
C      1  0.5385430000000  0.4591540000000  0.5408530000000 1.0
C      1  0.5063780000000  0.5602120000000  0.5486520000000 1.0
C      1  0.5093720000000  0.4941360000000  0.5263230000000 1.0
C      1  0.4846800000000  0.4471870000000  0.4728200000000 1.0
C      1  0.5299340000000  0.4741970000000  0.4304480000000 1.0
C      1  0.4962120000000  0.5326010000000  0.4916040000000 1.0
C      1  0.5410010000000  0.5458890000000  0.4838880000000 1.0
C      1  0.4515430000000  0.4851640000000  0.5564820000000 1.0
C      1  0.4327870000000  0.5021440000000  0.5101890000000 1.0
END
