TITL C-105742-8541-7 4.45732287277144 125000 -224.342633152926 0 0 34 (C1) n - 1
REM
REM in /rds/project/t2_vol4/rds-t2-cs072/BORA/CARBON/from-Arr/AIRSS/Generating-Clusters/GAP-ML-2020/Only-C1/SD-CG/HFTN-CG
REM
REM
REM
REM
REM
REM ./C.cell (11c1c37f851c82e70ff6c80c92926a4b)
REM AIRSS Version 0.9.1 bugfix July 2018 build 013d7b7c2542+ Fri, 06 Jul 2018 19:26:36 +0100
REM compiler GCC version 9.3.0
REM options -cpp -mtune=generic -march=x86-64 -g -O0
REM seed 2019730018 -2138200229 -382159501 662550407 -458795603 2101546469 1249243179 1062630395 -1219107326 1920009415 657877584 81599429 -1209151431 1427044146 717166726 802666914 -468592555 642387065 -1622238840 -737551405 -1653918205 1840457589 -2120173821 2049766204 -712580197 -2136102554 553727303 1606697764 1232482089 -2093209292 -1376804406 440854356 -636222299
REM
CELL 1.54180   50.00000   50.00000   50.00000   90.00000   90.00000   90.00000
LATT -1
SFAC C  
C      1  0.4906040000000  0.5288050000000  0.4985630000000 1.0
C      1  0.4969960000000  0.4510890000000  0.4789720000000 1.0
C      1  0.5014770000000  0.5006820000000  0.4889020000000 1.0
C      1  0.5311370000000  0.5205120000000  0.5238170000000 1.0
C      1  0.5221890000000  0.4498660000000  0.4922610000000 1.0
C      1  0.5191970000000  0.5330960000000  0.5018920000000 1.0
C      1  0.4898760000000  0.4915010000000  0.4627890000000 1.0
C      1  0.5488130000000  0.4988350000000  0.4867730000000 1.0
C      1  0.4700350000000  0.5434500000000  0.5432820000000 1.0
C      1  0.5208950000000  0.4642980000000  0.5167470000000 1.0
C      1  0.5236250000000  0.5251290000000  0.4528570000000 1.0
C      1  0.5282280000000  0.5169160000000  0.4789480000000 1.0
C      1  0.4721990000000  0.4608030000000  0.4872640000000 1.0
C      1  0.5585920000000  0.4790390000000  0.4699450000000 1.0
C      1  0.4863380000000  0.5543270000000  0.5605520000000 1.0
C      1  0.4521610000000  0.5128520000000  0.4830130000000 1.0
C      1  0.5118190000000  0.5440010000000  0.5639240000000 1.0
C      1  0.4742660000000  0.5314170000000  0.4746590000000 1.0
C      1  0.4795540000000  0.4823890000000  0.5555980000000 1.0
C      1  0.4635620000000  0.4790220000000  0.4666600000000 1.0
C      1  0.5441310000000  0.4732520000000  0.5291390000000 1.0
C      1  0.4878650000000  0.5199430000000  0.4511440000000 1.0
C      1  0.4590700000000  0.5041130000000  0.5093650000000 1.0
C      1  0.5180290000000  0.5218800000000  0.5487390000000 1.0
C      1  0.5084630000000  0.4685630000000  0.4590350000000 1.0
C      1  0.5008910000000  0.4854060000000  0.5138700000000 1.0
C      1  0.5460160000000  0.4971470000000  0.5158740000000 1.0
C      1  0.4726940000000  0.4767160000000  0.5111550000000 1.0
C      1  0.4759580000000  0.5225730000000  0.5238050000000 1.0
C      1  0.4411080000000  0.4935860000000  0.4678880000000 1.0
C      1  0.5063710000000  0.5308950000000  0.4340090000000 1.0
C      1  0.4964730000000  0.5034270000000  0.5377690000000 1.0
C      1  0.4668180000000  0.4675120000000  0.5397570000000 1.0
C      1  0.5345480000000  0.4669570000000  0.4710340000000 1.0
END
