TITL C-105662-662-9 72.5919932858226 125000 -690.351216549597 0 0 98 (C1) n - 1
REM
REM in /rds/project/t2_vol4/rds-t2-cs072/BORA/CARBON/from-Arr/AIRSS/Generating-Clusters/GAP-ML-2020/Only-C1/SD-CG/HFTN-CG
REM
REM
REM
REM
REM
REM ./C.cell (11c1c37f851c82e70ff6c80c92926a4b)
REM AIRSS Version 0.9.1 bugfix July 2018 build 013d7b7c2542+ Fri, 06 Jul 2018 19:26:36 +0100
REM compiler GCC version 9.3.0
REM options -cpp -mtune=generic -march=x86-64 -g -O0
REM seed -882434881 -858335962 -1575649267 -193460792 -264100607 -2019728854 1601126886 -678566010 -762091303 -245473683 697674182 -988453144 2075568794 -652691949 382905800 -377458982 546952619 -76113244 186097935 240050238 -187227914 -1589825875 271210758 1643948919 1972652583 3235474 866914592 -1185425876 1209009173 1400542942 -1344120366 -719067469 154003818
REM
CELL 1.54180   50.00000   50.00000   50.00000   90.00000   90.00000   90.00000
LATT -1
SFAC C  
C      1  0.5076950000000  0.4700000000000  0.5176410000000 1.0
C      1  0.5282320000000  0.4155370000000  0.5068250000000 1.0
C      1  0.4272310000000  0.4606230000000  0.5186960000000 1.0
C      1  0.4965800000000  0.5687140000000  0.4576330000000 1.0
C      1  0.5264880000000  0.5632250000000  0.4575530000000 1.0
C      1  0.5236910000000  0.5602390000000  0.5152460000000 1.0
C      1  0.4931250000000  0.4418360000000  0.4766870000000 1.0
C      1  0.5559780000000  0.5202790000000  0.4480760000000 1.0
C      1  0.5033930000000  0.5092600000000  0.5878410000000 1.0
C      1  0.5234880000000  0.4776370000000  0.4925010000000 1.0
C      1  0.4970990000000  0.4953150000000  0.5267180000000 1.0
C      1  0.5541150000000  0.4666590000000  0.5253860000000 1.0
C      1  0.5113260000000  0.4366020000000  0.5494210000000 1.0
C      1  0.5212960000000  0.5285550000000  0.5781450000000 1.0
C      1  0.5094350000000  0.4423860000000  0.4332840000000 1.0
C      1  0.4762180000000  0.5144210000000  0.5809020000000 1.0
C      1  0.4778020000000  0.5066980000000  0.4175890000000 1.0
C      1  0.5514370000000  0.4596550000000  0.4957230000000 1.0
C      1  0.4274700000000  0.5058000000000  0.5329440000000 1.0
C      1  0.5478830000000  0.4958220000000  0.4347430000000 1.0
C      1  0.4986960000000  0.4873830000000  0.4156200000000 1.0
C      1  0.5135710000000  0.4154760000000  0.5312130000000 1.0
C      1  0.5231140000000  0.5014220000000  0.4213180000000 1.0
C      1  0.5674560000000  0.4701630000000  0.4716290000000 1.0
C      1  0.5074680000000  0.5385870000000  0.5546470000000 1.0
C      1  0.4878500000000  0.5329300000000  0.4257670000000 1.0
C      1  0.5895970000000  0.5046090000000  0.5240240000000 1.0
C      1  0.4997020000000  0.6084670000000  0.5374360000000 1.0
C      1  0.4259720000000  0.4812840000000  0.4600670000000 1.0
C      1  0.4543010000000  0.4921260000000  0.4249270000000 1.0
C      1  0.4812460000000  0.5126800000000  0.4830220000000 1.0
C      1  0.4296260000000  0.5415900000000  0.4993660000000 1.0
C      1  0.4817750000000  0.5893070000000  0.5405570000000 1.0
C      1  0.5362700000000  0.5412300000000  0.4420420000000 1.0
C      1  0.4559990000000  0.5476850000000  0.5400980000000 1.0
C      1  0.4421850000000  0.4616350000000  0.5427940000000 1.0
C      1  0.5505040000000  0.5549790000000  0.5009080000000 1.0
C      1  0.5086320000000  0.4255760000000  0.4570740000000 1.0
C      1  0.5022090000000  0.4044440000000  0.5077590000000 1.0
C      1  0.4179040000000  0.4871340000000  0.5127640000000 1.0
C      1  0.4663550000000  0.5716170000000  0.5272220000000 1.0
C      1  0.5325560000000  0.4763760000000  0.5662580000000 1.0
C      1  0.5543150000000  0.4699820000000  0.4459840000000 1.0
C      1  0.4328840000000  0.5273950000000  0.4549080000000 1.0
C      1  0.5162950000000  0.5287860000000  0.4259530000000 1.0
C      1  0.4720850000000  0.5039790000000  0.5390800000000 1.0
C      1  0.5476230000000  0.5235050000000  0.5686230000000 1.0
C      1  0.5094340000000  0.4815540000000  0.5827520000000 1.0
C      1  0.4621020000000  0.4414330000000  0.5444740000000 1.0
C      1  0.4510550000000  0.5498710000000  0.4568670000000 1.0
C      1  0.5713720000000  0.5518200000000  0.5253740000000 1.0
C      1  0.5052320000000  0.4706120000000  0.4702860000000 1.0
C      1  0.5985490000000  0.4924590000000  0.5012080000000 1.0
C      1  0.4209260000000  0.5224430000000  0.4803660000000 1.0
C      1  0.5441500000000  0.4314350000000  0.4895800000000 1.0
C      1  0.5513130000000  0.5241980000000  0.4951940000000 1.0
C      1  0.4340070000000  0.5338230000000  0.5266560000000 1.0
C      1  0.5699390000000  0.5173310000000  0.4728950000000 1.0
C      1  0.5368650000000  0.4282390000000  0.4623680000000 1.0
C      1  0.4339150000000  0.5019610000000  0.4421000000000 1.0
C      1  0.4169020000000  0.4947090000000  0.4849430000000 1.0
C      1  0.5386790000000  0.5734890000000  0.4812270000000 1.0
C      1  0.4665920000000  0.5744860000000  0.4972050000000 1.0
C      1  0.4840930000000  0.4680530000000  0.5778550000000 1.0
C      1  0.5294300000000  0.4599200000000  0.5416540000000 1.0
C      1  0.4760050000000  0.5308270000000  0.5548650000000 1.0
C      1  0.5628220000000  0.4931920000000  0.5350240000000 1.0
C      1  0.5278750000000  0.5570650000000  0.5435460000000 1.0
C      1  0.4904830000000  0.5803570000000  0.4827080000000 1.0
C      1  0.5155980000000  0.6076430000000  0.5163020000000 1.0
C      1  0.5159260000000  0.5850400000000  0.4980680000000 1.0
C      1  0.5517770000000  0.5415670000000  0.5450850000000 1.0
C      1  0.4393790000000  0.4407130000000  0.5019570000000 1.0
C      1  0.4856080000000  0.4526340000000  0.5050750000000 1.0
C      1  0.4894310000000  0.4606790000000  0.4235890000000 1.0
C      1  0.4766110000000  0.5532340000000  0.4432400000000 1.0
C      1  0.4700850000000  0.4227550000000  0.4742930000000 1.0
C      1  0.5060470000000  0.5377920000000  0.5104520000000 1.0
C      1  0.5150860000000  0.5177850000000  0.5306860000000 1.0
C      1  0.4451350000000  0.4371680000000  0.4736970000000 1.0
C      1  0.4405350000000  0.4566790000000  0.4528400000000 1.0
C      1  0.4606000000000  0.4648790000000  0.4319340000000 1.0
C      1  0.5524460000000  0.4960890000000  0.5628290000000 1.0
C      1  0.5903310000000  0.5327980000000  0.5237900000000 1.0
C      1  0.5455070000000  0.5167960000000  0.5249320000000 1.0
C      1  0.4635340000000  0.4313770000000  0.5165720000000 1.0
C      1  0.4853300000000  0.4453830000000  0.5606280000000 1.0
C      1  0.4693790000000  0.4751300000000  0.4959520000000 1.0
C      1  0.4633420000000  0.4888010000000  0.5769480000000 1.0
C      1  0.4472240000000  0.4892720000000  0.5510560000000 1.0
C      1  0.4727010000000  0.5010290000000  0.5085890000000 1.0
C      1  0.5841840000000  0.4924190000000  0.4778400000000 1.0
C      1  0.5280110000000  0.5065200000000  0.4869650000000 1.0
C      1  0.4752220000000  0.4099300000000  0.4999730000000 1.0
C      1  0.5375590000000  0.4472640000000  0.4409310000000 1.0
C      1  0.4821860000000  0.4867760000000  0.4714970000000 1.0
C      1  0.5059250000000  0.5236720000000  0.4865000000000 1.0
C      1  0.4473880000000  0.5592930000000  0.4840190000000 1.0
END
