TITL C-105746-8534-8 0.0321502920241382 125000 -128.392955181095 0 0 21 (C1) n - 1
REM
REM in /rds/project/t2_vol4/rds-t2-cs072/BORA/CARBON/from-Arr/AIRSS/Generating-Clusters/GAP-ML-2020/Only-C1/SD-CG/HFTN-CG
REM
REM
REM
REM
REM
REM ./C.cell (11c1c37f851c82e70ff6c80c92926a4b)
REM AIRSS Version 0.9.1 bugfix July 2018 build 013d7b7c2542+ Fri, 06 Jul 2018 19:26:36 +0100
REM compiler GCC version 9.3.0
REM options -cpp -mtune=generic -march=x86-64 -g -O0
REM seed -1223898397 -1225567573 -864178577 1429401020 1801652720 -551695851 -574237085 -1808219839 252978038 -1409668510 -1269512314 -550479101 1403697353 1250971602 247710184 2147435774 396700309 90375726 567926075 1506532732 -168734192 735184923 1742153504 896317487 -28465383 1060628654 -130204306 -67381776 941324469 -1754672532 188874496 153211239 230910474
REM
CELL 1.54180   50.00000   50.00000   50.00000   90.00000   90.00000   90.00000
LATT -1
SFAC C  
C      1  0.4795760000000  0.4724640000000  0.4558420000000 1.0
C      1  0.4860970000000  0.5128180000000  0.4724310000000 1.0
C      1  0.5220830000000  0.5427060000000  0.4503450000000 1.0
C      1  0.4541090000000  0.4817710000000  0.4566740000000 1.0
C      1  0.5071220000000  0.4741050000000  0.4964160000000 1.0
C      1  0.4800170000000  0.4506870000000  0.5324430000000 1.0
C      1  0.5295850000000  0.5461280000000  0.4747920000000 1.0
C      1  0.5354250000000  0.4732110000000  0.5077470000000 1.0
C      1  0.5303760000000  0.5080690000000  0.5491800000000 1.0
C      1  0.4850770000000  0.4713860000000  0.5157430000000 1.0
C      1  0.4560720000000  0.5039790000000  0.4737160000000 1.0
C      1  0.5177100000000  0.5222120000000  0.5122210000000 1.0
C      1  0.4982120000000  0.4851600000000  0.4714260000000 1.0
C      1  0.4797500000000  0.5151250000000  0.5423200000000 1.0
C      1  0.5368190000000  0.4998790000000  0.5220510000000 1.0
C      1  0.4483220000000  0.5053520000000  0.4996710000000 1.0
C      1  0.4908010000000  0.5167020000000  0.5002230000000 1.0
C      1  0.5060770000000  0.5203420000000  0.5428430000000 1.0
C      1  0.5307740000000  0.5432590000000  0.5003470000000 1.0
C      1  0.4725210000000  0.5010690000000  0.5164150000000 1.0
C      1  0.5534740000000  0.4535750000000  0.5071570000000 1.0
END
