TITL C-107214-8385-8 -0.0699989690999454 125000 -714.68257443137 0 0 103 (C1) n - 1
REM
REM in /rds/project/t2_vol4/rds-t2-cs072/BORA/CARBON/from-Arr/AIRSS/Generating-Clusters/GAP-ML-2020/Only-C1/SD-CG/HFTN-CG
REM
REM
REM
REM
REM
REM ./C.cell (11c1c37f851c82e70ff6c80c92926a4b)
REM AIRSS Version 0.9.1 bugfix July 2018 build 013d7b7c2542+ Fri, 06 Jul 2018 19:26:36 +0100
REM compiler GCC version 9.3.0
REM options -cpp -mtune=generic -march=x86-64 -g -O0
REM seed -1388303676 578923823 1548282458 336734559 -1123867461 1179432981 -1769074098 1133172085 1293075517 539001996 -1970509439 -384353687 -155308387 449269176 -1255368162 1253394305 677441247 623187126 591095860 1064452045 -1852192693 893301862 319756786 1522712537 609680494 -1080369578 747073063 -1874838321 1471603479 1411283717 -516271 507678140 -914198544
REM
CELL 1.54180   50.00000   50.00000   50.00000   90.00000   90.00000   90.00000
LATT -1
SFAC C  
C      1  0.5082640000000  0.4459890000000  0.5770650000000 1.0
C      1  0.4734250000000  0.5798200000000  0.4816050000000 1.0
C      1  0.5889840000000  0.4981210000000  0.4833080000000 1.0
C      1  0.5411570000000  0.5210030000000  0.4301500000000 1.0
C      1  0.5423050000000  0.5720280000000  0.5429610000000 1.0
C      1  0.5565830000000  0.4636940000000  0.5298170000000 1.0
C      1  0.4466230000000  0.4793680000000  0.4848610000000 1.0
C      1  0.5142020000000  0.5782890000000  0.4593860000000 1.0
C      1  0.4681010000000  0.5610840000000  0.5039610000000 1.0
C      1  0.5898670000000  0.5302870000000  0.5095520000000 1.0
C      1  0.4235480000000  0.5110680000000  0.4612410000000 1.0
C      1  0.4574820000000  0.4334790000000  0.4530580000000 1.0
C      1  0.4458270000000  0.4781320000000  0.4341310000000 1.0
C      1  0.4531710000000  0.4959750000000  0.5701410000000 1.0
C      1  0.4954620000000  0.5323630000000  0.4631400000000 1.0
C      1  0.4652240000000  0.5253530000000  0.4697790000000 1.0
C      1  0.5046080000000  0.4612560000000  0.4724230000000 1.0
C      1  0.5403540000000  0.5673530000000  0.4542140000000 1.0
C      1  0.4327840000000  0.4811450000000  0.5294660000000 1.0
C      1  0.5105900000000  0.5879630000000  0.5103420000000 1.0
C      1  0.4359170000000  0.5026650000000  0.5476050000000 1.0
C      1  0.5476000000000  0.5042770000000  0.5489430000000 1.0
C      1  0.5619510000000  0.5621770000000  0.4716940000000 1.0
C      1  0.5603160000000  0.4372910000000  0.4682570000000 1.0
C      1  0.5042050000000  0.4933450000000  0.5222310000000 1.0
C      1  0.4881680000000  0.4492660000000  0.4949510000000 1.0
C      1  0.4912100000000  0.5387740000000  0.5078190000000 1.0
C      1  0.4968330000000  0.5638270000000  0.5528310000000 1.0
C      1  0.4831320000000  0.5364250000000  0.5562980000000 1.0
C      1  0.4487490000000  0.5461830000000  0.4876730000000 1.0
C      1  0.5315180000000  0.5194080000000  0.4978170000000 1.0
C      1  0.5228800000000  0.4203160000000  0.5355820000000 1.0
C      1  0.5049590000000  0.4203210000000  0.4490510000000 1.0
C      1  0.4908100000000  0.4168450000000  0.4881600000000 1.0
C      1  0.5581570000000  0.4638190000000  0.4658700000000 1.0
C      1  0.4820640000000  0.5110160000000  0.5102660000000 1.0
C      1  0.4449420000000  0.5249340000000  0.4452960000000 1.0
C      1  0.4907930000000  0.5813940000000  0.5322750000000 1.0
C      1  0.5269350000000  0.5393650000000  0.5740980000000 1.0
C      1  0.4787050000000  0.5055900000000  0.4149020000000 1.0
C      1  0.5309010000000  0.5476620000000  0.4352890000000 1.0
C      1  0.5428520000000  0.4209760000000  0.4841690000000 1.0
C      1  0.5924880000000  0.5266770000000  0.4814880000000 1.0
C      1  0.4945940000000  0.4135560000000  0.5358940000000 1.0
C      1  0.5223990000000  0.5646510000000  0.5621590000000 1.0
C      1  0.5453490000000  0.4584900000000  0.5553820000000 1.0
C      1  0.4213270000000  0.4847530000000  0.5022380000000 1.0
C      1  0.5106760000000  0.5378680000000  0.4886550000000 1.0
C      1  0.4319450000000  0.4839380000000  0.4578070000000 1.0
C      1  0.5018130000000  0.5553760000000  0.4422790000000 1.0
C      1  0.5687590000000  0.4893520000000  0.5320490000000 1.0
C      1  0.4530930000000  0.5672250000000  0.4660290000000 1.0
C      1  0.5009160000000  0.5879700000000  0.4824580000000 1.0
C      1  0.5326810000000  0.4698110000000  0.4826390000000 1.0
C      1  0.5010590000000  0.4623870000000  0.5202240000000 1.0
C      1  0.4846270000000  0.5059050000000  0.5398640000000 1.0
C      1  0.4640850000000  0.5703010000000  0.5302780000000 1.0
C      1  0.4880360000000  0.4282520000000  0.5823900000000 1.0
C      1  0.5516550000000  0.5309790000000  0.5614490000000 1.0
C      1  0.5361840000000  0.4286650000000  0.5113250000000 1.0
C      1  0.5092740000000  0.5055880000000  0.4577090000000 1.0
C      1  0.4150670000000  0.4386260000000  0.4851610000000 1.0
C      1  0.4061300000000  0.4603430000000  0.4956170000000 1.0
C      1  0.4769010000000  0.5594690000000  0.4279470000000 1.0
C      1  0.4745590000000  0.4571200000000  0.5421710000000 1.0
C      1  0.5299860000000  0.4990860000000  0.4784790000000 1.0
C      1  0.4561750000000  0.5471070000000  0.5459590000000 1.0
C      1  0.4700070000000  0.4991440000000  0.4848840000000 1.0
C      1  0.5070320000000  0.4769710000000  0.5761550000000 1.0
C      1  0.5069290000000  0.4479210000000  0.4444660000000 1.0
C      1  0.5339520000000  0.4574650000000  0.5114070000000 1.0
C      1  0.5179450000000  0.4136200000000  0.4741950000000 1.0
C      1  0.5646370000000  0.5151200000000  0.4466310000000 1.0
C      1  0.4905270000000  0.4864920000000  0.4680210000000 1.0
C      1  0.4294180000000  0.5320410000000  0.5056250000000 1.0
C      1  0.4806460000000  0.4304870000000  0.5558480000000 1.0
C      1  0.4576760000000  0.4536470000000  0.4965670000000 1.0
C      1  0.4365680000000  0.5291300000000  0.5348220000000 1.0
C      1  0.4904290000000  0.4605030000000  0.4253630000000 1.0
C      1  0.4625020000000  0.4549460000000  0.4333210000000 1.0
C      1  0.4173440000000  0.5122010000000  0.4896460000000 1.0
C      1  0.5753230000000  0.5524850000000  0.5190150000000 1.0
C      1  0.4992030000000  0.4868510000000  0.4159580000000 1.0
C      1  0.5203540000000  0.5004090000000  0.4305870000000 1.0
C      1  0.5728770000000  0.4895220000000  0.4612160000000 1.0
C      1  0.4422530000000  0.4364730000000  0.4778980000000 1.0
C      1  0.5623280000000  0.5524670000000  0.5446500000000 1.0
C      1  0.5861500000000  0.5010290000000  0.5133820000000 1.0
C      1  0.4532190000000  0.5542210000000  0.4398170000000 1.0
C      1  0.4936980000000  0.5007080000000  0.5898620000000 1.0
C      1  0.4509840000000  0.4592370000000  0.5255060000000 1.0
C      1  0.5604480000000  0.5691230000000  0.5004050000000 1.0
C      1  0.4645600000000  0.5022530000000  0.5937840000000 1.0
C      1  0.4782220000000  0.4824170000000  0.5579050000000 1.0
C      1  0.5381570000000  0.5811090000000  0.5160750000000 1.0
C      1  0.5017810000000  0.5257400000000  0.5782980000000 1.0
C      1  0.5751280000000  0.5376310000000  0.4628720000000 1.0
C      1  0.4832700000000  0.4060410000000  0.5126190000000 1.0
C      1  0.4544400000000  0.5039250000000  0.4260020000000 1.0
C      1  0.5285560000000  0.4371430000000  0.5583670000000 1.0
C      1  0.5283050000000  0.5089580000000  0.5242060000000 1.0
C      1  0.4787020000000  0.4172200000000  0.4598660000000 1.0
C      1  0.5344860000000  0.4822110000000  0.5654300000000 1.0
END
