TITL C-101225-5563-11 0.105134716643623 125000 -161.592217765434 0 0 25 (C1) n - 1
REM
REM in /rds/project/t2_vol4/rds-t2-cs072/BORA/CARBON/from-Arr/AIRSS/Generating-Clusters/GAP-ML-2020/Only-C1/SD-CG/HFTN-CG
REM
REM
REM
REM
REM
REM ./C.cell (11c1c37f851c82e70ff6c80c92926a4b)
REM AIRSS Version 0.9.1 bugfix July 2018 build 013d7b7c2542+ Fri, 06 Jul 2018 19:26:36 +0100
REM compiler GCC version 9.3.0
REM options -cpp -mtune=generic -march=x86-64 -g -O0
REM seed 1283033766 948700468 -290729997 651425106 -1617292214 1374091302 1598177455 291277155 1091295709 -406161983 -591722329 1066510286 -1893408432 -1959234640 -664298225 2123643823 499246360 -375677849 -1885819714 1118829569 -1859794250 1481303231 802422048 930236515 258857770 2084955413 984741084 1010510801 170849908 -5394031 1792968247 -1366509329 1530598384
REM
CELL 1.54180   50.00000   50.00000   50.00000   90.00000   90.00000   90.00000
LATT -1
SFAC C  
C      1  0.5193190000000  0.4876350000000  0.4579690000000 1.0
C      1  0.4667530000000  0.5308360000000  0.4803110000000 1.0
C      1  0.4764190000000  0.5387010000000  0.5050220000000 1.0
C      1  0.4878390000000  0.4833800000000  0.5343450000000 1.0
C      1  0.5137260000000  0.5517790000000  0.5338850000000 1.0
C      1  0.5206000000000  0.5470070000000  0.4845040000000 1.0
C      1  0.5050630000000  0.4476890000000  0.4741800000000 1.0
C      1  0.5192940000000  0.5301860000000  0.5461920000000 1.0
C      1  0.4620300000000  0.4844750000000  0.4617760000000 1.0
C      1  0.5305000000000  0.4782360000000  0.5060570000000 1.0
C      1  0.5202300000000  0.4698570000000  0.4799500000000 1.0
C      1  0.4750500000000  0.5083030000000  0.5416080000000 1.0
C      1  0.5038060000000  0.5100570000000  0.4560280000000 1.0
C      1  0.5158530000000  0.4848930000000  0.5308960000000 1.0
C      1  0.5313790000000  0.5058720000000  0.5441060000000 1.0
C      1  0.5031770000000  0.5493190000000  0.5072950000000 1.0
C      1  0.4834880000000  0.4406110000000  0.4629510000000 1.0
C      1  0.5549520000000  0.4934260000000  0.5087790000000 1.0
C      1  0.4745220000000  0.5090980000000  0.4636690000000 1.0
C      1  0.5576060000000  0.5057270000000  0.5315940000000 1.0
C      1  0.4652620000000  0.4604730000000  0.4737590000000 1.0
C      1  0.5164410000000  0.5340100000000  0.4635030000000 1.0
C      1  0.4585980000000  0.4551260000000  0.5015920000000 1.0
C      1  0.4729930000000  0.4646800000000  0.5196470000000 1.0
C      1  0.4650990000000  0.5286230000000  0.5303840000000 1.0
END
