TITL C-105651-7251-9 -261.075683134721 125000 -1229.70289501999 0 0 175 (C1) n - 1
REM
REM in /rds/project/t2_vol4/rds-t2-cs072/BORA/CARBON/from-Arr/AIRSS/Generating-Clusters/GAP-ML-2020/Only-C1/SD-CG/HFTN-CG
REM
REM
REM
REM
REM
REM ./C.cell (11c1c37f851c82e70ff6c80c92926a4b)
REM AIRSS Version 0.9.1 bugfix July 2018 build 013d7b7c2542+ Fri, 06 Jul 2018 19:26:36 +0100
REM compiler GCC version 9.3.0
REM options -cpp -mtune=generic -march=x86-64 -g -O0
REM seed -1410739766 1751048090 357015064 -335581596 75196631 -2037411920 -1596078945 -593793731 2108504667 -1597012514 1841735296 417081783 -695348713 -2037527456 -171037477 1462765724 -467389574 2100673749 -1464187695 56888925 1664353760 -1813082773 -1256717704 -505031029 -764032800 -2111966420 538055494 -1370713393 2111830135 -48507060 2076555394 -429023313 1904224032
REM
CELL 1.54180   50.00000   50.00000   50.00000   90.00000   90.00000   90.00000
LATT -1
SFAC C  
C      1  0.4233200000000  0.4248310000000  0.4968810000000 1.0
C      1  0.5981220000000  0.4976570000000  0.4739690000000 1.0
C      1  0.4849860000000  0.4710010000000  0.4085570000000 1.0
C      1  0.4914120000000  0.5560900000000  0.5052710000000 1.0
C      1  0.4478380000000  0.4098300000000  0.5054540000000 1.0
C      1  0.4157970000000  0.5654080000000  0.4968490000000 1.0
C      1  0.5981450000000  0.5508150000000  0.4826370000000 1.0
C      1  0.5553200000000  0.4576140000000  0.4249730000000 1.0
C      1  0.4507060000000  0.5921350000000  0.5090770000000 1.0
C      1  0.3923840000000  0.5532600000000  0.5034800000000 1.0
C      1  0.4846070000000  0.5529550000000  0.4077790000000 1.0
C      1  0.5392390000000  0.5002950000000  0.3980090000000 1.0
C      1  0.5939690000000  0.4703110000000  0.5469230000000 1.0
C      1  0.5097900000000  0.4283430000000  0.4736720000000 1.0
C      1  0.5224150000000  0.5122190000000  0.4949640000000 1.0
C      1  0.5188930000000  0.4149910000000  0.5376810000000 1.0
C      1  0.5059990000000  0.5122210000000  0.4252960000000 1.0
C      1  0.4876060000000  0.4338550000000  0.4535750000000 1.0
C      1  0.4686670000000  0.5980630000000  0.4626390000000 1.0
C      1  0.4254930000000  0.5723020000000  0.4719130000000 1.0
C      1  0.5344090000000  0.5097540000000  0.5468690000000 1.0
C      1  0.5149540000000  0.5187640000000  0.3970710000000 1.0
C      1  0.4110810000000  0.5230340000000  0.4556010000000 1.0
C      1  0.5728810000000  0.5562870000000  0.5296160000000 1.0
C      1  0.4912830000000  0.5388240000000  0.5969870000000 1.0
C      1  0.4079750000000  0.4631380000000  0.5564960000000 1.0
C      1  0.5376440000000  0.4842630000000  0.6078440000000 1.0
C      1  0.5391120000000  0.5552640000000  0.5778200000000 1.0
C      1  0.4985500000000  0.5934770000000  0.4692670000000 1.0
C      1  0.4514240000000  0.4741350000000  0.5744200000000 1.0
C      1  0.4432230000000  0.4529870000000  0.4343810000000 1.0
C      1  0.4474860000000  0.4396880000000  0.5466320000000 1.0
C      1  0.5362630000000  0.4516670000000  0.4453010000000 1.0
C      1  0.5156430000000  0.4694920000000  0.5295750000000 1.0
C      1  0.4760350000000  0.5167440000000  0.4756650000000 1.0
C      1  0.5228970000000  0.5782300000000  0.4268430000000 1.0
C      1  0.4029220000000  0.5091790000000  0.4821620000000 1.0
C      1  0.4899920000000  0.4675130000000  0.4611660000000 1.0
C      1  0.4965840000000  0.4457320000000  0.5695860000000 1.0
C      1  0.4871050000000  0.4632030000000  0.6092850000000 1.0
C      1  0.4093340000000  0.4403940000000  0.5159230000000 1.0
C      1  0.4869360000000  0.4626740000000  0.4904120000000 1.0
C      1  0.5179100000000  0.4749930000000  0.4549510000000 1.0
C      1  0.5879790000000  0.5723810000000  0.4687720000000 1.0
C      1  0.3950820000000  0.4651360000000  0.5108920000000 1.0
C      1  0.4530930000000  0.5301190000000  0.4870950000000 1.0
C      1  0.5171210000000  0.5101250000000  0.5690750000000 1.0
C      1  0.4130390000000  0.5076620000000  0.5664380000000 1.0
C      1  0.4575280000000  0.4305170000000  0.5737330000000 1.0
C      1  0.4850580000000  0.4317720000000  0.4243600000000 1.0
C      1  0.5198790000000  0.4408380000000  0.5189930000000 1.0
C      1  0.5847640000000  0.4253840000000  0.4871170000000 1.0
C      1  0.4451580000000  0.5166780000000  0.5458930000000 1.0
C      1  0.4770130000000  0.5453290000000  0.5701060000000 1.0
C      1  0.5516570000000  0.5173460000000  0.4974540000000 1.0
C      1  0.5386640000000  0.4055800000000  0.4471840000000 1.0
C      1  0.4736470000000  0.5883340000000  0.4354870000000 1.0
C      1  0.4924420000000  0.4984080000000  0.5628450000000 1.0
C      1  0.4190540000000  0.4412950000000  0.5429000000000 1.0
C      1  0.4377980000000  0.5654240000000  0.5187360000000 1.0
C      1  0.5383480000000  0.4844630000000  0.5378570000000 1.0
C      1  0.5784350000000  0.4961470000000  0.5868910000000 1.0
C      1  0.5067070000000  0.5322360000000  0.5151650000000 1.0
C      1  0.4197810000000  0.5547240000000  0.5425900000000 1.0
C      1  0.4332070000000  0.5091600000000  0.4922640000000 1.0
C      1  0.4930740000000  0.4710200000000  0.5505210000000 1.0
C      1  0.5493720000000  0.5431550000000  0.5120090000000 1.0
C      1  0.3945180000000  0.5491290000000  0.5322860000000 1.0
C      1  0.5932920000000  0.4945170000000  0.5624880000000 1.0
C      1  0.5291030000000  0.4735630000000  0.4825440000000 1.0
C      1  0.5352190000000  0.5608120000000  0.4870950000000 1.0
C      1  0.4288040000000  0.5339860000000  0.5636150000000 1.0
C      1  0.4468510000000  0.4848530000000  0.4721990000000 1.0
C      1  0.4987770000000  0.3935390000000  0.4912120000000 1.0
C      1  0.4631160000000  0.4677370000000  0.5449790000000 1.0
C      1  0.5029740000000  0.5629130000000  0.4807530000000 1.0
C      1  0.4630980000000  0.5461000000000  0.5092350000000 1.0
C      1  0.4728350000000  0.4923460000000  0.4565790000000 1.0
C      1  0.5289860000000  0.5444770000000  0.3983780000000 1.0
C      1  0.4276350000000  0.4763530000000  0.4474360000000 1.0
C      1  0.5802080000000  0.5419850000000  0.5540400000000 1.0
C      1  0.5654880000000  0.4500120000000  0.5820450000000 1.0
C      1  0.4534480000000  0.4139570000000  0.5327090000000 1.0
C      1  0.5080330000000  0.5864220000000  0.5532920000000 1.0
C      1  0.5117020000000  0.4599380000000  0.4024230000000 1.0
C      1  0.5251860000000  0.5019160000000  0.4466600000000 1.0
C      1  0.4366180000000  0.5018460000000  0.5214760000000 1.0
C      1  0.4637700000000  0.5130980000000  0.4066100000000 1.0
C      1  0.5150330000000  0.4652960000000  0.6076210000000 1.0
C      1  0.5460780000000  0.5959650000000  0.5145550000000 1.0
C      1  0.5817490000000  0.4478880000000  0.5588670000000 1.0
C      1  0.5203920000000  0.6065350000000  0.4841250000000 1.0
C      1  0.3918010000000  0.5036460000000  0.5469930000000 1.0
C      1  0.5646450000000  0.5197530000000  0.5944790000000 1.0
C      1  0.3854840000000  0.5254800000000  0.4997850000000 1.0
C      1  0.5214450000000  0.4020790000000  0.4732560000000 1.0
C      1  0.5445080000000  0.4220730000000  0.5513440000000 1.0
C      1  0.3918380000000  0.4767850000000  0.5375980000000 1.0
C      1  0.4189730000000  0.4358450000000  0.4706920000000 1.0
C      1  0.4964080000000  0.5376490000000  0.4351150000000 1.0
C      1  0.5599550000000  0.5159700000000  0.4122330000000 1.0
C      1  0.5450810000000  0.5890790000000  0.4841630000000 1.0
C      1  0.5320080000000  0.4270360000000  0.4297020000000 1.0
C      1  0.5390170000000  0.5134150000000  0.6054020000000 1.0
C      1  0.5198780000000  0.5227760000000  0.4669430000000 1.0
C      1  0.5465310000000  0.5631320000000  0.4390910000000 1.0
C      1  0.5425800000000  0.4342050000000  0.5771380000000 1.0
C      1  0.5545560000000  0.5802480000000  0.5363870000000 1.0
C      1  0.3831450000000  0.5229790000000  0.5292210000000 1.0
C      1  0.5944740000000  0.5183060000000  0.5473490000000 1.0
C      1  0.4585850000000  0.4681150000000  0.4945190000000 1.0
C      1  0.5622770000000  0.4743280000000  0.5960240000000 1.0
C      1  0.5647030000000  0.5817860000000  0.4596300000000 1.0
C      1  0.4950680000000  0.5375260000000  0.4637550000000 1.0
C      1  0.4969330000000  0.4186370000000  0.5564890000000 1.0
C      1  0.4219260000000  0.5512530000000  0.4513200000000 1.0
C      1  0.4707700000000  0.6020190000000  0.5274620000000 1.0
C      1  0.5448880000000  0.4363070000000  0.5020100000000 1.0
C      1  0.4620010000000  0.5670010000000  0.4201450000000 1.0
C      1  0.4647400000000  0.4189280000000  0.4630980000000 1.0
C      1  0.4652970000000  0.5371790000000  0.6068530000000 1.0
C      1  0.5690460000000  0.4315600000000  0.5392050000000 1.0
C      1  0.4696280000000  0.4538420000000  0.5885170000000 1.0
C      1  0.4833630000000  0.5283940000000  0.3929250000000 1.0
C      1  0.5656220000000  0.4079860000000  0.4556670000000 1.0
C      1  0.4694520000000  0.4033320000000  0.4864230000000 1.0
C      1  0.4472430000000  0.5916210000000  0.4798260000000 1.0
C      1  0.4633340000000  0.5877060000000  0.5496730000000 1.0
C      1  0.5197420000000  0.5327310000000  0.5911930000000 1.0
C      1  0.5297950000000  0.5332190000000  0.5315610000000 1.0
C      1  0.5006490000000  0.6043220000000  0.5318200000000 1.0
C      1  0.5646440000000  0.5430190000000  0.5777490000000 1.0
C      1  0.4228310000000  0.5053670000000  0.4369550000000 1.0
C      1  0.5079820000000  0.4839030000000  0.5031000000000 1.0
C      1  0.4804890000000  0.5011050000000  0.5063240000000 1.0
C      1  0.4399880000000  0.5219990000000  0.4196320000000 1.0
C      1  0.5188760000000  0.4444600000000  0.5879340000000 1.0
C      1  0.4988700000000  0.4381370000000  0.4989000000000 1.0
C      1  0.5834530000000  0.4315660000000  0.4577380000000 1.0
C      1  0.5207250000000  0.6093400000000  0.5125860000000 1.0
C      1  0.5023740000000  0.5913390000000  0.4397440000000 1.0
C      1  0.4408620000000  0.4314000000000  0.4533890000000 1.0
C      1  0.5107220000000  0.4332760000000  0.4124540000000 1.0
C      1  0.5769130000000  0.5012350000000  0.4292850000000 1.0
C      1  0.5880740000000  0.4833560000000  0.4495120000000 1.0
C      1  0.4803790000000  0.5236410000000  0.5243480000000 1.0
C      1  0.5564970000000  0.5035030000000  0.4489120000000 1.0
C      1  0.5748260000000  0.4424590000000  0.5110950000000 1.0
C      1  0.5414870000000  0.4049380000000  0.4967960000000 1.0
C      1  0.4702330000000  0.4100270000000  0.5563330000000 1.0
C      1  0.5681480000000  0.4019140000000  0.4842300000000 1.0
C      1  0.4077520000000  0.4619890000000  0.4651190000000 1.0
C      1  0.5375600000000  0.4724350000000  0.4041670000000 1.0
C      1  0.4656170000000  0.4508490000000  0.4164840000000 1.0
C      1  0.5986810000000  0.5174280000000  0.5191100000000 1.0
C      1  0.5905960000000  0.4686660000000  0.5180730000000 1.0
C      1  0.5514860000000  0.5434450000000  0.4150670000000 1.0
C      1  0.5919920000000  0.5254360000000  0.4698450000000 1.0
C      1  0.5422540000000  0.5439690000000  0.4635620000000 1.0
C      1  0.5346540000000  0.5757210000000  0.5580460000000 1.0
C      1  0.4499720000000  0.5418170000000  0.5837170000000 1.0
C      1  0.5630840000000  0.5228060000000  0.4694510000000 1.0
C      1  0.5948090000000  0.5446340000000  0.5104870000000 1.0
C      1  0.4394820000000  0.5495060000000  0.4285990000000 1.0
C      1  0.5981250000000  0.4922510000000  0.5028860000000 1.0
C      1  0.4832810000000  0.5740620000000  0.5624360000000 1.0
C      1  0.4236350000000  0.4808320000000  0.5728960000000 1.0
C      1  0.5808140000000  0.4559540000000  0.4415040000000 1.0
C      1  0.3963010000000  0.4784000000000  0.4850040000000 1.0
C      1  0.5189770000000  0.3956350000000  0.5137970000000 1.0
C      1  0.5113910000000  0.5646320000000  0.4050910000000 1.0
C      1  0.5351340000000  0.4458000000000  0.4757340000000 1.0
C      1  0.4803410000000  0.4960890000000  0.4241460000000 1.0
C      1  0.4743490000000  0.5194480000000  0.5522090000000 1.0
C      1  0.4567830000000  0.4819170000000  0.5194700000000 1.0
END
