TITL C-101243-5586-6 -18.3042471511378 125000 -600.61709282101 0 0 85 (C1) n - 1
REM
REM in /rds/project/t2_vol4/rds-t2-cs072/BORA/CARBON/from-Arr/AIRSS/Generating-Clusters/GAP-ML-2020/Only-C1/SD-CG/HFTN-CG
REM
REM
REM
REM
REM
REM ./C.cell (11c1c37f851c82e70ff6c80c92926a4b)
REM AIRSS Version 0.9.1 bugfix July 2018 build 013d7b7c2542+ Fri, 06 Jul 2018 19:26:36 +0100
REM compiler GCC version 9.3.0
REM options -cpp -mtune=generic -march=x86-64 -g -O0
REM seed -2069836059 -2121033203 -1282808184 17219292 -406062793 734045852 -1958312509 -1042366047 -211800674 1435976387 -1420429085 1107153318 696681896 300398429 -514880859 -1153193231 1819922492 238091575 -2025248490 -301998796 -331007855 484278999 885735860 -1063841806 881939979 576230310 1684631668 1418661073 1343585374 1873794719 -1476261718 -1422200574 -1994458217
REM
CELL 1.54180   50.00000   50.00000   50.00000   90.00000   90.00000   90.00000
LATT -1
SFAC C  
C      1  0.5606430000000  0.4589410000000  0.5673140000000 1.0
C      1  0.5296320000000  0.4870860000000  0.4984580000000 1.0
C      1  0.4685420000000  0.5209370000000  0.4397700000000 1.0
C      1  0.5440900000000  0.4381410000000  0.4917630000000 1.0
C      1  0.4462820000000  0.4721340000000  0.4985250000000 1.0
C      1  0.4624660000000  0.4623520000000  0.5252540000000 1.0
C      1  0.4866440000000  0.5693810000000  0.5026070000000 1.0
C      1  0.5335860000000  0.4556010000000  0.5771950000000 1.0
C      1  0.5442910000000  0.5261100000000  0.5673130000000 1.0
C      1  0.4587580000000  0.4736480000000  0.5529660000000 1.0
C      1  0.4421370000000  0.4751240000000  0.4491560000000 1.0
C      1  0.4931770000000  0.4845340000000  0.4681950000000 1.0
C      1  0.5263680000000  0.4278410000000  0.5118510000000 1.0
C      1  0.5368540000000  0.4322470000000  0.5375190000000 1.0
C      1  0.4422200000000  0.5201780000000  0.5444640000000 1.0
C      1  0.4973170000000  0.4285140000000  0.5079830000000 1.0
C      1  0.5345470000000  0.4987860000000  0.4504740000000 1.0
C      1  0.4847270000000  0.4958300000000  0.4395190000000 1.0
C      1  0.5628870000000  0.5262820000000  0.5452590000000 1.0
C      1  0.5050380000000  0.4563740000000  0.4690750000000 1.0
C      1  0.4730960000000  0.5690600000000  0.4376940000000 1.0
C      1  0.5023140000000  0.5259600000000  0.4899420000000 1.0
C      1  0.5160540000000  0.5020530000000  0.4766990000000 1.0
C      1  0.4415090000000  0.5584350000000  0.5183340000000 1.0
C      1  0.5119030000000  0.5062500000000  0.4325120000000 1.0
C      1  0.5742790000000  0.4985470000000  0.4832500000000 1.0
C      1  0.5047510000000  0.5594130000000  0.4802790000000 1.0
C      1  0.4949360000000  0.4852300000000  0.5805750000000 1.0
C      1  0.4910170000000  0.5699870000000  0.4575940000000 1.0
C      1  0.4930310000000  0.5358140000000  0.5676930000000 1.0
C      1  0.4458230000000  0.4576280000000  0.4721870000000 1.0
C      1  0.5619840000000  0.4462950000000  0.5418530000000 1.0
C      1  0.4917010000000  0.4412310000000  0.5553480000000 1.0
C      1  0.4450310000000  0.5539280000000  0.4717260000000 1.0
C      1  0.4310150000000  0.5460300000000  0.4281290000000 1.0
C      1  0.5552230000000  0.5436130000000  0.4903740000000 1.0
C      1  0.5510800000000  0.5329620000000  0.5183580000000 1.0
C      1  0.4665700000000  0.4386990000000  0.4644320000000 1.0
C      1  0.4798220000000  0.4635970000000  0.5686760000000 1.0
C      1  0.5194050000000  0.4379780000000  0.5597240000000 1.0
C      1  0.4787220000000  0.4467240000000  0.4379400000000 1.0
C      1  0.5461500000000  0.4710790000000  0.4553480000000 1.0
C      1  0.4884610000000  0.4361010000000  0.4823080000000 1.0
C      1  0.4739930000000  0.4897760000000  0.4908330000000 1.0
C      1  0.5340920000000  0.4508620000000  0.4355300000000 1.0
C      1  0.4808020000000  0.5099650000000  0.5739850000000 1.0
C      1  0.5212840000000  0.5437720000000  0.5314010000000 1.0
C      1  0.5773410000000  0.5009130000000  0.5474860000000 1.0
C      1  0.4580820000000  0.5677490000000  0.4972830000000 1.0
C      1  0.5352540000000  0.5437020000000  0.4473130000000 1.0
C      1  0.4253000000000  0.4932270000000  0.5006750000000 1.0
C      1  0.4273750000000  0.4992690000000  0.4499810000000 1.0
C      1  0.5341910000000  0.5557220000000  0.4737000000000 1.0
C      1  0.5763540000000  0.4874080000000  0.5230840000000 1.0
C      1  0.4791480000000  0.5528680000000  0.5493130000000 1.0
C      1  0.4669920000000  0.4719260000000  0.4330920000000 1.0
C      1  0.4386260000000  0.5205000000000  0.4329280000000 1.0
C      1  0.5125090000000  0.5343310000000  0.4314910000000 1.0
C      1  0.5081000000000  0.4467300000000  0.4403290000000 1.0
C      1  0.4745210000000  0.5186620000000  0.4900110000000 1.0
C      1  0.5451990000000  0.5002570000000  0.5807850000000 1.0
C      1  0.5057330000000  0.5208820000000  0.5185770000000 1.0
C      1  0.4451690000000  0.5645180000000  0.4435820000000 1.0
C      1  0.5207590000000  0.5391720000000  0.5602690000000 1.0
C      1  0.5755860000000  0.4589170000000  0.5199660000000 1.0
C      1  0.5682620000000  0.4862200000000  0.5702550000000 1.0
C      1  0.4863060000000  0.4797040000000  0.5144080000000 1.0
C      1  0.5530010000000  0.5216930000000  0.4497660000000 1.0
C      1  0.4625050000000  0.5304930000000  0.4679980000000 1.0
C      1  0.5694580000000  0.4514210000000  0.4937020000000 1.0
C      1  0.5111190000000  0.4917930000000  0.5206690000000 1.0
C      1  0.4216220000000  0.5397140000000  0.5092750000000 1.0
C      1  0.4526730000000  0.5470630000000  0.5418370000000 1.0
C      1  0.4568440000000  0.5017670000000  0.5597610000000 1.0
C      1  0.5708230000000  0.4721950000000  0.4722570000000 1.0
C      1  0.5690060000000  0.5240850000000  0.4729360000000 1.0
C      1  0.4961540000000  0.5617690000000  0.5280990000000 1.0
C      1  0.5312550000000  0.4611220000000  0.4803860000000 1.0
C      1  0.5231030000000  0.4811960000000  0.5849490000000 1.0
C      1  0.4249780000000  0.5142700000000  0.5217120000000 1.0
C      1  0.5562830000000  0.5013060000000  0.5063270000000 1.0
C      1  0.4207900000000  0.5367220000000  0.4817410000000 1.0
C      1  0.4190830000000  0.5077230000000  0.4763050000000 1.0
C      1  0.4859900000000  0.5438750000000  0.4307740000000 1.0
C      1  0.4802540000000  0.4380870000000  0.5295910000000 1.0
END
