TITL C-105730-8487-3 -2.65031193913779 125000 -594.438377797493 0 0 88 (C1) n - 1
REM
REM in /rds/project/t2_vol4/rds-t2-cs072/BORA/CARBON/from-Arr/AIRSS/Generating-Clusters/GAP-ML-2020/Only-C1/SD-CG/HFTN-CG
REM
REM
REM
REM
REM
REM ./C.cell (11c1c37f851c82e70ff6c80c92926a4b)
REM AIRSS Version 0.9.1 bugfix July 2018 build 013d7b7c2542+ Fri, 06 Jul 2018 19:26:36 +0100
REM compiler GCC version 9.3.0
REM options -cpp -mtune=generic -march=x86-64 -g -O0
REM seed -636418492 1872534201 1083974396 -911595 -1874241120 626192894 -2026249928 -1965467814 -1668095521 -1367473613 -577940603 1835532117 310909212 -580022484 714176748 307835203 -1437893108 -736396695 -1824890677 -1368897437 630561004 1585221587 -984384418 318330652 966050366 -573282635 1032785392 1445390366 146078383 238449945 1266106135 572045819 -1146144640
REM
CELL 1.54180   50.00000   50.00000   50.00000   90.00000   90.00000   90.00000
LATT -1
SFAC C  
C      1  0.4294800000000  0.5451370000000  0.4530680000000 1.0
C      1  0.4776130000000  0.4593090000000  0.4717970000000 1.0
C      1  0.5432870000000  0.5192280000000  0.4569000000000 1.0
C      1  0.5686010000000  0.5466620000000  0.5011820000000 1.0
C      1  0.4338440000000  0.4667200000000  0.5185430000000 1.0
C      1  0.4493120000000  0.5537170000000  0.4921160000000 1.0
C      1  0.4788100000000  0.4589350000000  0.5015500000000 1.0
C      1  0.5051750000000  0.5281430000000  0.5352370000000 1.0
C      1  0.4929620000000  0.4765250000000  0.5763900000000 1.0
C      1  0.4732170000000  0.4447370000000  0.5511830000000 1.0
C      1  0.4408610000000  0.4435720000000  0.4769120000000 1.0
C      1  0.5102450000000  0.4214400000000  0.5281570000000 1.0
C      1  0.5262310000000  0.5235290000000  0.4812450000000 1.0
C      1  0.4841120000000  0.5229820000000  0.5933520000000 1.0
C      1  0.4772640000000  0.4887890000000  0.5373290000000 1.0
C      1  0.5614630000000  0.4709280000000  0.5407880000000 1.0
C      1  0.4961840000000  0.5628120000000  0.5627770000000 1.0
C      1  0.5208250000000  0.4330260000000  0.5038820000000 1.0
C      1  0.4873420000000  0.4601090000000  0.4180900000000 1.0
C      1  0.4325420000000  0.5293430000000  0.5308170000000 1.0
C      1  0.5143370000000  0.4779330000000  0.4855000000000 1.0
C      1  0.5450300000000  0.5610530000000  0.5103900000000 1.0
C      1  0.5591740000000  0.4701910000000  0.4558650000000 1.0
C      1  0.4614690000000  0.4664090000000  0.4222720000000 1.0
C      1  0.4180510000000  0.4917660000000  0.5107230000000 1.0
C      1  0.4595960000000  0.5350130000000  0.5309590000000 1.0
C      1  0.4381800000000  0.4785960000000  0.5471770000000 1.0
C      1  0.5315030000000  0.5735780000000  0.5317000000000 1.0
C      1  0.5613260000000  0.4953080000000  0.4686550000000 1.0
C      1  0.5293050000000  0.4401130000000  0.4332530000000 1.0
C      1  0.4333160000000  0.4434770000000  0.5022570000000 1.0
C      1  0.5125430000000  0.4625440000000  0.5582590000000 1.0
C      1  0.5004450000000  0.5492770000000  0.5133320000000 1.0
C      1  0.4618790000000  0.4790180000000  0.5123080000000 1.0
C      1  0.4278710000000  0.5114110000000  0.4892580000000 1.0
C      1  0.4255390000000  0.5025620000000  0.5364720000000 1.0
C      1  0.4980170000000  0.5133630000000  0.4273250000000 1.0
C      1  0.5011780000000  0.5010420000000  0.5874560000000 1.0
C      1  0.4277970000000  0.5371930000000  0.5031870000000 1.0
C      1  0.4556320000000  0.4965120000000  0.4891710000000 1.0
C      1  0.5013790000000  0.4371270000000  0.4300770000000 1.0
C      1  0.4872650000000  0.5808030000000  0.5442090000000 1.0
C      1  0.5661110000000  0.4941470000000  0.4969220000000 1.0
C      1  0.5093100000000  0.5045920000000  0.4936330000000 1.0
C      1  0.4799110000000  0.5136220000000  0.4914410000000 1.0
C      1  0.5271560000000  0.5122870000000  0.4328680000000 1.0
C      1  0.5296290000000  0.5308690000000  0.5552870000000 1.0
C      1  0.5058890000000  0.4789680000000  0.5327480000000 1.0
C      1  0.5718590000000  0.5520580000000  0.4744830000000 1.0
C      1  0.4519580000000  0.4739270000000  0.4679190000000 1.0
C      1  0.5250120000000  0.5623750000000  0.4684350000000 1.0
C      1  0.4987630000000  0.4360220000000  0.5487360000000 1.0
C      1  0.4731330000000  0.5396900000000  0.5048540000000 1.0
C      1  0.4655840000000  0.4329840000000  0.4639720000000 1.0
C      1  0.5702480000000  0.5191550000000  0.5143240000000 1.0
C      1  0.4816590000000  0.5390240000000  0.5724590000000 1.0
C      1  0.5367800000000  0.4288190000000  0.4584730000000 1.0
C      1  0.5434820000000  0.4653590000000  0.4319260000000 1.0
C      1  0.5239600000000  0.5484440000000  0.4943500000000 1.0
C      1  0.4506880000000  0.4838630000000  0.4402760000000 1.0
C      1  0.4502290000000  0.5592700000000  0.4643880000000 1.0
C      1  0.5415790000000  0.4665800000000  0.5622560000000 1.0
C      1  0.4906200000000  0.4233760000000  0.4555120000000 1.0
C      1  0.4975800000000  0.5714630000000  0.4665940000000 1.0
C      1  0.4514240000000  0.5123330000000  0.4416380000000 1.0
C      1  0.5186340000000  0.5042670000000  0.5229010000000 1.0
C      1  0.5458110000000  0.5153930000000  0.5341010000000 1.0
C      1  0.5040410000000  0.4695020000000  0.4623560000000 1.0
C      1  0.5025880000000  0.5796920000000  0.5197370000000 1.0
C      1  0.4662810000000  0.4710350000000  0.5590060000000 1.0
C      1  0.5483850000000  0.4914860000000  0.5748480000000 1.0
C      1  0.5678660000000  0.4970460000000  0.5522280000000 1.0
C      1  0.5509500000000  0.5496880000000  0.4578280000000 1.0
C      1  0.4785620000000  0.5203680000000  0.5463290000000 1.0
C      1  0.4761260000000  0.5294970000000  0.4374200000000 1.0
C      1  0.5292540000000  0.4861910000000  0.4210310000000 1.0
C      1  0.4766960000000  0.5559790000000  0.4522760000000 1.0
C      1  0.5009870000000  0.4858460000000  0.4157930000000 1.0
C      1  0.5557440000000  0.4459830000000  0.4715800000000 1.0
C      1  0.5252820000000  0.5599990000000  0.5561320000000 1.0
C      1  0.5507750000000  0.4465410000000  0.4986450000000 1.0
C      1  0.4958790000000  0.5856920000000  0.4916090000000 1.0
C      1  0.4286690000000  0.5190460000000  0.4587930000000 1.0
C      1  0.5853050000000  0.5146710000000  0.5403560000000 1.0
C      1  0.5143560000000  0.4219650000000  0.4744280000000 1.0
C      1  0.5605330000000  0.4696650000000  0.5122760000000 1.0
C      1  0.5282110000000  0.5106640000000  0.5770490000000 1.0
C      1  0.5062960000000  0.4606240000000  0.5086640000000 1.0
END
