TITL C-105656-510-5 -332.054771180507 125000 -320.154240914384 0 0 47 (C1) n - 1
REM
REM in /rds/project/t2_vol4/rds-t2-cs072/BORA/CARBON/from-Arr/AIRSS/Generating-Clusters/GAP-ML-2020/Only-C1/SD-CG/HFTN-CG
REM
REM
REM
REM
REM
REM ./C.cell (11c1c37f851c82e70ff6c80c92926a4b)
REM AIRSS Version 0.9.1 bugfix July 2018 build 013d7b7c2542+ Fri, 06 Jul 2018 19:26:36 +0100
REM compiler GCC version 9.3.0
REM options -cpp -mtune=generic -march=x86-64 -g -O0
REM seed -477163080 -772513883 568704474 -1860654546 -184765323 827801866 503520150 -1696917416 1340335370 1178143987 1505558450 1661229294 -787633543 -1488728138 -798534003 -1819568747 -1610693505 1185256085 -1735165544 -1495366647 -309206308 1279441343 49923965 639168041 -735619423 799363477 870805290 434166300 734848996 -1017683004 870195036 -1988062196 -1976501536
REM
CELL 1.54180   50.00000   50.00000   50.00000   90.00000   90.00000   90.00000
LATT -1
SFAC C  
C      1  0.5458150000000  0.4602830000000  0.4834580000000 1.0
C      1  0.4577220000000  0.5083100000000  0.5343450000000 1.0
C      1  0.5163880000000  0.5397340000000  0.5371960000000 1.0
C      1  0.5055080000000  0.4416680000000  0.5202600000000 1.0
C      1  0.5149610000000  0.5517520000000  0.4890710000000 1.0
C      1  0.4778080000000  0.4452690000000  0.4831460000000 1.0
C      1  0.4253190000000  0.4860070000000  0.4942960000000 1.0
C      1  0.5045270000000  0.5190890000000  0.4488980000000 1.0
C      1  0.5041750000000  0.4369130000000  0.4920580000000 1.0
C      1  0.5217520000000  0.4768440000000  0.4342120000000 1.0
C      1  0.4588170000000  0.5514200000000  0.5109100000000 1.0
C      1  0.4606020000000  0.4486200000000  0.5054870000000 1.0
C      1  0.4408600000000  0.4696090000000  0.5103740000000 1.0
C      1  0.4767780000000  0.5139130000000  0.4847730000000 1.0
C      1  0.5279850000000  0.5102580000000  0.4866920000000 1.0
C      1  0.4750790000000  0.4907980000000  0.4630960000000 1.0
C      1  0.5471830000000  0.5065440000000  0.4635690000000 1.0
C      1  0.4932040000000  0.5362440000000  0.5550060000000 1.0
C      1  0.4913300000000  0.4847570000000  0.5563540000000 1.0
C      1  0.5094050000000  0.4598420000000  0.4512040000000 1.0
C      1  0.5041320000000  0.5260440000000  0.4788650000000 1.0
C      1  0.4596140000000  0.5283370000000  0.4595640000000 1.0
C      1  0.4825180000000  0.4642630000000  0.4616630000000 1.0
C      1  0.5497640000000  0.5154810000000  0.5099890000000 1.0
C      1  0.4797740000000  0.5111830000000  0.5525410000000 1.0
C      1  0.4780300000000  0.5120050000000  0.4425370000000 1.0
C      1  0.4791210000000  0.5630810000000  0.5240400000000 1.0
C      1  0.5602130000000  0.4840160000000  0.4768810000000 1.0
C      1  0.4338120000000  0.5257570000000  0.4648120000000 1.0
C      1  0.5237570000000  0.4472240000000  0.4733850000000 1.0
C      1  0.4781370000000  0.4457880000000  0.5288220000000 1.0
C      1  0.5191840000000  0.4792730000000  0.5505460000000 1.0
C      1  0.5628400000000  0.5378230000000  0.4950900000000 1.0
C      1  0.4717700000000  0.4662380000000  0.5465410000000 1.0
C      1  0.5367510000000  0.5001190000000  0.5544290000000 1.0
C      1  0.5586340000000  0.5330440000000  0.4675210000000 1.0
C      1  0.4564270000000  0.5223460000000  0.5076210000000 1.0
C      1  0.4316460000000  0.5117030000000  0.4893180000000 1.0
C      1  0.5431050000000  0.5530930000000  0.4813590000000 1.0
C      1  0.4500780000000  0.4811530000000  0.5347790000000 1.0
C      1  0.5266750000000  0.5019010000000  0.4425760000000 1.0
C      1  0.4785620000000  0.5599560000000  0.5523190000000 1.0
C      1  0.5472140000000  0.4658780000000  0.5122960000000 1.0
C      1  0.5374740000000  0.5205690000000  0.5362120000000 1.0
C      1  0.5619000000000  0.4896010000000  0.5059300000000 1.0
C      1  0.5263550000000  0.4594850000000  0.5301520000000 1.0
C      1  0.5072930000000  0.5567680000000  0.5158110000000 1.0
END
