TITL C-107232-8643-6 -0.289234407188585 125000 -789.678781067231 0 0 114 (C1) n - 1
REM
REM in /rds/project/t2_vol4/rds-t2-cs072/BORA/CARBON/from-Arr/AIRSS/Generating-Clusters/GAP-ML-2020/Only-C1/SD-CG/HFTN-CG
REM
REM
REM
REM
REM
REM ./C.cell (11c1c37f851c82e70ff6c80c92926a4b)
REM AIRSS Version 0.9.1 bugfix July 2018 build 013d7b7c2542+ Fri, 06 Jul 2018 19:26:36 +0100
REM compiler GCC version 9.3.0
REM options -cpp -mtune=generic -march=x86-64 -g -O0
REM seed 410538715 1431009461 -154526257 -603077727 822702706 -2025327641 -176923590 -584334980 1800532374 -670521456 8201192 -66085327 -1523058812 289687569 792262369 835956451 -290647087 -254110228 -867805560 -695518871 -1579181614 -1275651513 -1336734662 -376382927 1770001808 -1142179009 1083174022 -1316669187 -1030235241 2144714494 -856197110 -1140214670 -1568316357
REM
CELL 1.54180   50.00000   50.00000   50.00000   90.00000   90.00000   90.00000
LATT -1
SFAC C  
C      1  0.4613620000000  0.5358880000000  0.4921110000000 1.0
C      1  0.4519960000000  0.4638030000000  0.4386690000000 1.0
C      1  0.5515570000000  0.4554730000000  0.4638630000000 1.0
C      1  0.5217810000000  0.5507780000000  0.5451840000000 1.0
C      1  0.5673640000000  0.4342130000000  0.5046900000000 1.0
C      1  0.4788660000000  0.4934770000000  0.4836650000000 1.0
C      1  0.5425870000000  0.4669630000000  0.4208190000000 1.0
C      1  0.5225620000000  0.4529470000000  0.5051980000000 1.0
C      1  0.4657810000000  0.5245580000000  0.5215990000000 1.0
C      1  0.4799550000000  0.4540090000000  0.4427620000000 1.0
C      1  0.5072630000000  0.5341940000000  0.4849760000000 1.0
C      1  0.5337770000000  0.4910000000000  0.4312430000000 1.0
C      1  0.5626190000000  0.4622710000000  0.5453650000000 1.0
C      1  0.4817430000000  0.5776490000000  0.5031620000000 1.0
C      1  0.4941780000000  0.5109590000000  0.5263070000000 1.0
C      1  0.4459420000000  0.4389530000000  0.5360690000000 1.0
C      1  0.4295770000000  0.4624170000000  0.5382650000000 1.0
C      1  0.4541270000000  0.5768530000000  0.4599130000000 1.0
C      1  0.4598530000000  0.5482860000000  0.5662640000000 1.0
C      1  0.5392510000000  0.5717950000000  0.4669180000000 1.0
C      1  0.4363920000000  0.4439780000000  0.4514330000000 1.0
C      1  0.5691890000000  0.5051980000000  0.5678220000000 1.0
C      1  0.5893590000000  0.4979350000000  0.4736420000000 1.0
C      1  0.4315550000000  0.5053430000000  0.5678450000000 1.0
C      1  0.4323830000000  0.5397510000000  0.4541400000000 1.0
C      1  0.4222660000000  0.5032450000000  0.5106960000000 1.0
C      1  0.5159280000000  0.4649980000000  0.5316110000000 1.0
C      1  0.5307070000000  0.5349800000000  0.4384460000000 1.0
C      1  0.4200550000000  0.4449140000000  0.4749320000000 1.0
C      1  0.4687000000000  0.4787200000000  0.5080690000000 1.0
C      1  0.4768010000000  0.5518190000000  0.4340340000000 1.0
C      1  0.5913370000000  0.5169310000000  0.4952740000000 1.0
C      1  0.4795300000000  0.4269120000000  0.4565040000000 1.0
C      1  0.5177220000000  0.5221530000000  0.5392440000000 1.0
C      1  0.5059140000000  0.5736120000000  0.5333140000000 1.0
C      1  0.4493170000000  0.4987690000000  0.5228850000000 1.0
C      1  0.4148640000000  0.4741610000000  0.5163210000000 1.0
C      1  0.5424420000000  0.5072420000000  0.5308330000000 1.0
C      1  0.5243440000000  0.5871780000000  0.4872450000000 1.0
C      1  0.4526630000000  0.4310360000000  0.5094630000000 1.0
C      1  0.5018130000000  0.5076870000000  0.4970860000000 1.0
C      1  0.5175390000000  0.4617510000000  0.5781940000000 1.0
C      1  0.5893180000000  0.5022310000000  0.5200950000000 1.0
C      1  0.4858290000000  0.5465320000000  0.5789820000000 1.0
C      1  0.5293830000000  0.4368690000000  0.4537200000000 1.0
C      1  0.5776460000000  0.4518220000000  0.5248060000000 1.0
C      1  0.4581080000000  0.5514560000000  0.5374230000000 1.0
C      1  0.4931820000000  0.4779820000000  0.4051230000000 1.0
C      1  0.5134810000000  0.5427730000000  0.5727990000000 1.0
C      1  0.5454820000000  0.5045720000000  0.5853520000000 1.0
C      1  0.4250580000000  0.5672710000000  0.5028780000000 1.0
C      1  0.4497860000000  0.5241490000000  0.5794160000000 1.0
C      1  0.5566380000000  0.5292120000000  0.4527210000000 1.0
C      1  0.5243670000000  0.5640120000000  0.4436870000000 1.0
C      1  0.4531840000000  0.4217830000000  0.4627340000000 1.0
C      1  0.5356230000000  0.5399110000000  0.4963230000000 1.0
C      1  0.4845760000000  0.5512660000000  0.4891760000000 1.0
C      1  0.5681140000000  0.4752580000000  0.5693070000000 1.0
C      1  0.4819410000000  0.5876400000000  0.4592760000000 1.0
C      1  0.5029600000000  0.4099110000000  0.5247820000000 1.0
C      1  0.5909830000000  0.4715360000000  0.4852240000000 1.0
C      1  0.5400500000000  0.4691500000000  0.4896510000000 1.0
C      1  0.5751540000000  0.4478030000000  0.4801100000000 1.0
C      1  0.5711990000000  0.5171630000000  0.5391490000000 1.0
C      1  0.4966910000000  0.5038370000000  0.4106480000000 1.0
C      1  0.4453060000000  0.4842110000000  0.5509820000000 1.0
C      1  0.4356370000000  0.5098300000000  0.4576660000000 1.0
C      1  0.4374530000000  0.4234860000000  0.4874830000000 1.0
C      1  0.5594990000000  0.4769110000000  0.4426360000000 1.0
C      1  0.4946680000000  0.4262830000000  0.5461140000000 1.0
C      1  0.5434230000000  0.5120590000000  0.5017700000000 1.0
C      1  0.4981380000000  0.4502160000000  0.4867580000000 1.0
C      1  0.5389460000000  0.4271250000000  0.5066110000000 1.0
C      1  0.5707430000000  0.5031620000000  0.4526380000000 1.0
C      1  0.4974250000000  0.4547840000000  0.4193370000000 1.0
C      1  0.4495270000000  0.5576760000000  0.4392220000000 1.0
C      1  0.4721610000000  0.5064120000000  0.4257880000000 1.0
C      1  0.4382980000000  0.5585980000000  0.4795450000000 1.0
C      1  0.5158450000000  0.4109460000000  0.5004360000000 1.0
C      1  0.4734690000000  0.4715290000000  0.5577280000000 1.0
C      1  0.4138040000000  0.4694510000000  0.4874960000000 1.0
C      1  0.5792460000000  0.5421990000000  0.4973180000000 1.0
C      1  0.5706510000000  0.5448230000000  0.5249480000000 1.0
C      1  0.5160910000000  0.4934900000000  0.4583070000000 1.0
C      1  0.5242510000000  0.4461540000000  0.4273270000000 1.0
C      1  0.5085630000000  0.5226660000000  0.4560260000000 1.0
C      1  0.4153430000000  0.5272120000000  0.5287630000000 1.0
C      1  0.5213800000000  0.5185680000000  0.5875400000000 1.0
C      1  0.5282600000000  0.5800510000000  0.5150780000000 1.0
C      1  0.4940190000000  0.4735630000000  0.4652360000000 1.0
C      1  0.4195190000000  0.4970680000000  0.4804760000000 1.0
C      1  0.5570420000000  0.5483720000000  0.4757750000000 1.0
C      1  0.4697060000000  0.4417170000000  0.5514800000000 1.0
C      1  0.5423910000000  0.4756150000000  0.5839640000000 1.0
C      1  0.4291710000000  0.5529390000000  0.5258710000000 1.0
C      1  0.4895660000000  0.4812210000000  0.5316810000000 1.0
C      1  0.5056980000000  0.4254540000000  0.4716740000000 1.0
C      1  0.5917440000000  0.4746510000000  0.5134860000000 1.0
C      1  0.4487110000000  0.4919700000000  0.4352780000000 1.0
C      1  0.4804830000000  0.5254620000000  0.4464150000000 1.0
C      1  0.5398090000000  0.4796080000000  0.5373620000000 1.0
C      1  0.4107850000000  0.5174220000000  0.5539460000000 1.0
C      1  0.4713520000000  0.4512220000000  0.4994140000000 1.0
C      1  0.4936170000000  0.4769910000000  0.5805070000000 1.0
C      1  0.5235440000000  0.5143180000000  0.4181370000000 1.0
C      1  0.4756740000000  0.5217670000000  0.5908820000000 1.0
C      1  0.4968400000000  0.5030840000000  0.5913230000000 1.0
C      1  0.4629200000000  0.5161230000000  0.4706250000000 1.0
C      1  0.4779920000000  0.5732920000000  0.5300240000000 1.0
C      1  0.4966050000000  0.5930460000000  0.4839180000000 1.0
C      1  0.5142670000000  0.4454850000000  0.5545870000000 1.0
C      1  0.5281700000000  0.4942720000000  0.4863820000000 1.0
C      1  0.5438520000000  0.5568250000000  0.5236230000000 1.0
C      1  0.4966770000000  0.5717300000000  0.4409650000000 1.0
END
