TITL C-105730-8487-2 -0.0216081598468869 125000 -50.6728292093496 0 0 8 (C2v) n - 1
REM
REM in /rds/project/t2_vol4/rds-t2-cs072/BORA/CARBON/from-Arr/AIRSS/Generating-Clusters/GAP-ML-2020/Only-C1/SD-CG/HFTN-CG
REM
REM
REM
REM
REM
REM ./C.cell (11c1c37f851c82e70ff6c80c92926a4b)
REM AIRSS Version 0.9.1 bugfix July 2018 build 013d7b7c2542+ Fri, 06 Jul 2018 19:26:36 +0100
REM compiler GCC version 9.3.0
REM options -cpp -mtune=generic -march=x86-64 -g -O0
REM seed 1360350485 -858703538 1470430389 -208437845 1417459805 -540238031 -591368892 1686007643 1508283840 397935666 -1398555650 253398302 -40613333 1651270619 -153247199 -917214301 1498835139 -1523917911 561219386 803238170 -162925389 -1242541236 1166198155 -1396049001 -1376300086 -1056696075 -569398065 2055250606 1399484424 1495958424 -518468166 -1229587102 -1147463560
REM
CELL 1.54180   50.00000   50.00000   50.00000   90.00000   90.00000   90.00000
LATT -1
SFAC C  
C      1  0.4478960000000  0.4885850000000  0.5284090000000 1.0
C      1  0.5529930000000  0.5062820000000  0.4585700000000 1.0
C      1  0.4919110000000  0.4982280000000  0.5044100000000 1.0
C      1  0.5614190000000  0.5187820000000  0.4790470000000 1.0
C      1  0.5137050000000  0.5030020000000  0.4925280000000 1.0
C      1  0.4700900000000  0.4934470000000  0.5163090000000 1.0
C      1  0.5362890000000  0.5079500000000  0.4802130000000 1.0
C      1  0.4256970000000  0.4837220000000  0.5405130000000 1.0
END
