TITL C-105721-8543-9 0.0225018194298021 125000 -46.3701372592659 0 0 8 (C2) n - 1
REM
REM in /rds/project/t2_vol4/rds-t2-cs072/BORA/CARBON/from-Arr/AIRSS/Generating-Clusters/GAP-ML-2020/Only-C1/SD-CG/HFTN-CG
REM
REM
REM
REM
REM
REM ./C.cell (11c1c37f851c82e70ff6c80c92926a4b)
REM AIRSS Version 0.9.1 bugfix July 2018 build 013d7b7c2542+ Fri, 06 Jul 2018 19:26:36 +0100
REM compiler GCC version 9.3.0
REM options -cpp -mtune=generic -march=x86-64 -g -O0
REM seed 974704170 1590656424 -975968241 -2007400491 -1137758919 -1079476499 -227478455 1187665745 -2086924467 -2077682464 -801417834 437857163 1210232318 -906189880 -1136598897 -1166725135 1477877702 947952258 -80600667 -1361890019 602686467 -510354835 -817702256 -884098898 1878175592 -432035169 -1294367505 -923314452 1879402729 1319189378 -646426825 1502579262 -1520731024
REM
CELL 1.54180   50.00000   50.00000   50.00000   90.00000   90.00000   90.00000
LATT -1
SFAC C  
C      1  0.4854450000000  0.5200180000000  0.5287560000000 1.0
C      1  0.5112540000000  0.4928380000000  0.4572160000000 1.0
C      1  0.4986250000000  0.4976210000000  0.4811050000000 1.0
C      1  0.5100510000000  0.5241050000000  0.5353620000000 1.0
C      1  0.4607350000000  0.5133350000000  0.5169940000000 1.0
C      1  0.5224740000000  0.4782360000000  0.4785350000000 1.0
C      1  0.5292860000000  0.4672250000000  0.5008550000000 1.0
C      1  0.4821300000000  0.5066210000000  0.5011760000000 1.0
END
