TITL C-105643-7255-8 0.0498475459852372 125000 -249.6675330558 0 0 36 (C1) n - 1
REM
REM in /rds/project/t2_vol4/rds-t2-cs072/BORA/CARBON/from-Arr/AIRSS/Generating-Clusters/GAP-ML-2020/Only-C1/SD-CG/HFTN-CG
REM
REM
REM
REM
REM
REM ./C.cell (11c1c37f851c82e70ff6c80c92926a4b)
REM AIRSS Version 0.9.1 bugfix July 2018 build 013d7b7c2542+ Fri, 06 Jul 2018 19:26:36 +0100
REM compiler GCC version 9.3.0
REM options -cpp -mtune=generic -march=x86-64 -g -O0
REM seed -1108070806 -1273828615 1755579779 197920572 -1725396516 135460612 -557723997 -395437370 1880614614 -2066843994 399580906 826354991 1454839292 -1901088803 1379807019 -1934545519 -298117572 2140804899 -857155645 -1057089214 -2103275000 489813972 1038749018 501027607 1053860556 -1560216644 -1695245977 1637745400 2109185464 -1186548734 -434350005 411867158 -1984819448
REM
CELL 1.54180   50.00000   50.00000   50.00000   90.00000   90.00000   90.00000
LATT -1
SFAC C  
C      1  0.4755200000000  0.5586060000000  0.4921230000000 1.0
C      1  0.4777410000000  0.4533750000000  0.5209100000000 1.0
C      1  0.4931120000000  0.5370830000000  0.5402100000000 1.0
C      1  0.5299700000000  0.5426260000000  0.4684320000000 1.0
C      1  0.4715630000000  0.5019640000000  0.5378370000000 1.0
C      1  0.5436290000000  0.4816900000000  0.5243960000000 1.0
C      1  0.5395180000000  0.5238250000000  0.4880990000000 1.0
C      1  0.4863790000000  0.5592820000000  0.4656330000000 1.0
C      1  0.4625170000000  0.4627880000000  0.4770710000000 1.0
C      1  0.5156460000000  0.4995780000000  0.4547730000000 1.0
C      1  0.4960270000000  0.5109120000000  0.5522870000000 1.0
C      1  0.5025440000000  0.5643450000000  0.5032830000000 1.0
C      1  0.5146720000000  0.4320960000000  0.5053850000000 1.0
C      1  0.4873660000000  0.4902500000000  0.4498930000000 1.0
C      1  0.4708550000000  0.5137560000000  0.4565850000000 1.0
C      1  0.4874170000000  0.5362490000000  0.4499640000000 1.0
C      1  0.4679150000000  0.5287910000000  0.5274980000000 1.0
C      1  0.5182670000000  0.4462820000000  0.5529320000000 1.0
C      1  0.5213090000000  0.4993770000000  0.5539170000000 1.0
C      1  0.4613980000000  0.5352010000000  0.5010410000000 1.0
C      1  0.4578680000000  0.5122810000000  0.4824050000000 1.0
C      1  0.4667750000000  0.4802450000000  0.5202850000000 1.0
C      1  0.4929910000000  0.4245240000000  0.4881240000000 1.0
C      1  0.5346240000000  0.4469720000000  0.4951880000000 1.0
C      1  0.5364150000000  0.5302930000000  0.5166000000000 1.0
C      1  0.5330500000000  0.4970690000000  0.4788380000000 1.0
C      1  0.5133540000000  0.5477170000000  0.5233900000000 1.0
C      1  0.4740540000000  0.4670310000000  0.4525040000000 1.0
C      1  0.5137110000000  0.5640030000000  0.4767690000000 1.0
C      1  0.5024620000000  0.4421710000000  0.5305270000000 1.0
C      1  0.5382460000000  0.4745480000000  0.4971060000000 1.0
C      1  0.4734570000000  0.4420190000000  0.4942010000000 1.0
C      1  0.4577610000000  0.4859230000000  0.4935980000000 1.0
C      1  0.5401520000000  0.5088440000000  0.5334510000000 1.0
C      1  0.5148190000000  0.5274290000000  0.4487230000000 1.0
C      1  0.5268970000000  0.4708540000000  0.5460210000000 1.0
END
