TITL C-101226-5573-1 41.9613275686451 125000 -136.429865829524 0 0 21 (C1) n - 1
REM
REM in /rds/project/t2_vol4/rds-t2-cs072/BORA/CARBON/from-Arr/AIRSS/Generating-Clusters/GAP-ML-2020/Only-C1/SD-CG/HFTN-CG
REM
REM
REM
REM
REM
REM ./C.cell (11c1c37f851c82e70ff6c80c92926a4b)
REM AIRSS Version 0.9.1 bugfix July 2018 build 013d7b7c2542+ Fri, 06 Jul 2018 19:26:36 +0100
REM compiler GCC version 9.3.0
REM options -cpp -mtune=generic -march=x86-64 -g -O0
REM seed 587794635 -348666961 -1668868129 -1572596817 -1188711160 489702686 1316955683 -682958289 1899174902 -1117174196 -1799695960 -950065744 -961873455 -2058745969 540375136 -240025186 -1491822282 517607006 1850470261 -1275979275 1111060605 1776356661 -1142858831 1908621422 -1209332132 -1927814994 910726458 -760854169 -1149102801 514262280 1354887544 -1843181382 202954876
REM
CELL 1.54180   50.00000   50.00000   50.00000   90.00000   90.00000   90.00000
LATT -1
SFAC C  
C      1  0.5194310000000  0.5031090000000  0.4885610000000 1.0
C      1  0.5644420000000  0.5593540000000  0.5100040000000 1.0
C      1  0.4611170000000  0.4540660000000  0.5249840000000 1.0
C      1  0.5104280000000  0.4579340000000  0.4895170000000 1.0
C      1  0.4223850000000  0.5010660000000  0.4528070000000 1.0
C      1  0.5279860000000  0.4762370000000  0.4847000000000 1.0
C      1  0.4961970000000  0.5098660000000  0.4755510000000 1.0
C      1  0.4674840000000  0.4545840000000  0.4979500000000 1.0
C      1  0.5964120000000  0.5995250000000  0.5056770000000 1.0
C      1  0.4913890000000  0.4404090000000  0.4906610000000 1.0
C      1  0.4737670000000  0.4963080000000  0.4711070000000 1.0
C      1  0.5807120000000  0.5798280000000  0.5075860000000 1.0
C      1  0.4592740000000  0.4734270000000  0.4785990000000 1.0
C      1  0.5236940000000  0.5058850000000  0.5358900000000 1.0
C      1  0.4011590000000  0.5101820000000  0.4431480000000 1.0
C      1  0.5102780000000  0.4913110000000  0.5510930000000 1.0
C      1  0.5490270000000  0.5397840000000  0.5099880000000 1.0
C      1  0.4920470000000  0.4744360000000  0.5610280000000 1.0
C      1  0.5322440000000  0.5182480000000  0.5124780000000 1.0
C      1  0.4442750000000  0.4919420000000  0.4648050000000 1.0
C      1  0.4762540000000  0.4625000000000  0.5438670000000 1.0
END
