TITL C-105652-7160-6 -16.2934556818648 125000 -273.082706981322 0 0 42 (C1) n - 1
REM
REM in /rds/project/t2_vol4/rds-t2-cs072/BORA/CARBON/from-Arr/AIRSS/Generating-Clusters/GAP-ML-2020/Only-C1/SD-CG/HFTN-CG
REM
REM
REM
REM
REM
REM ./C.cell (11c1c37f851c82e70ff6c80c92926a4b)
REM AIRSS Version 0.9.1 bugfix July 2018 build 013d7b7c2542+ Fri, 06 Jul 2018 19:26:36 +0100
REM compiler GCC version 9.3.0
REM options -cpp -mtune=generic -march=x86-64 -g -O0
REM seed -930512315 -299955415 1614676552 -1400822940 -1524510014 883601792 -1578473769 2136686738 -1467499803 -1435825927 194036314 1528686976 646377878 -741802890 1639246882 407210224 -140735651 -340123289 1300858509 1784365326 1977141662 -2091147169 1166065072 -172274946 -1870083656 -1256622948 1392841456 1650224501 558976590 -1953765455 142788545 -1412905910 1885894549
REM
CELL 1.54180   50.00000   50.00000   50.00000   90.00000   90.00000   90.00000
LATT -1
SFAC C  
C      1  0.5554920000000  0.4562140000000  0.4820680000000 1.0
C      1  0.5524760000000  0.4836870000000  0.4917540000000 1.0
C      1  0.5455460000000  0.4512160000000  0.4563090000000 1.0
C      1  0.5000800000000  0.5058450000000  0.4679300000000 1.0
C      1  0.4887630000000  0.5778610000000  0.4913430000000 1.0
C      1  0.5208830000000  0.5180060000000  0.5561510000000 1.0
C      1  0.5149160000000  0.4338380000000  0.4858930000000 1.0
C      1  0.5383040000000  0.4399000000000  0.5026600000000 1.0
C      1  0.4822230000000  0.4374320000000  0.5244960000000 1.0
C      1  0.4915540000000  0.5576510000000  0.4729120000000 1.0
C      1  0.5331560000000  0.4579170000000  0.5243080000000 1.0
C      1  0.4879240000000  0.4404490000000  0.4966400000000 1.0
C      1  0.5272680000000  0.4809090000000  0.5065300000000 1.0
C      1  0.5190140000000  0.4529710000000  0.4623230000000 1.0
C      1  0.4983700000000  0.4702510000000  0.4970660000000 1.0
C      1  0.5408190000000  0.5304480000000  0.4833500000000 1.0
C      1  0.5141410000000  0.5036300000000  0.5170770000000 1.0
C      1  0.4671330000000  0.4442790000000  0.4750150000000 1.0
C      1  0.5185110000000  0.5536770000000  0.5239370000000 1.0
C      1  0.4488470000000  0.5221990000000  0.5234380000000 1.0
C      1  0.4607570000000  0.4971690000000  0.5276180000000 1.0
C      1  0.4542320000000  0.4903910000000  0.4562020000000 1.0
C      1  0.5151630000000  0.4648610000000  0.5445950000000 1.0
C      1  0.4782560000000  0.4913020000000  0.5053080000000 1.0
C      1  0.5191210000000  0.5279860000000  0.4611760000000 1.0
C      1  0.4776940000000  0.4853880000000  0.5457750000000 1.0
C      1  0.5087550000000  0.5518260000000  0.4519390000000 1.0
C      1  0.5586490000000  0.5094670000000  0.4865700000000 1.0
C      1  0.4867350000000  0.4574580000000  0.5422140000000 1.0
C      1  0.4492470000000  0.5142490000000  0.4725680000000 1.0
C      1  0.4499960000000  0.5445280000000  0.5405910000000 1.0
C      1  0.4709820000000  0.4673420000000  0.4616720000000 1.0
C      1  0.4996070000000  0.4756910000000  0.4674830000000 1.0
C      1  0.4723750000000  0.5108520000000  0.4576300000000 1.0
C      1  0.5074360000000  0.4951750000000  0.5449070000000 1.0
C      1  0.4813690000000  0.5389130000000  0.4956260000000 1.0
C      1  0.4948080000000  0.5135510000000  0.4966120000000 1.0
C      1  0.4685300000000  0.5618740000000  0.5377930000000 1.0
C      1  0.4892310000000  0.5615170000000  0.5161520000000 1.0
C      1  0.4533510000000  0.5299140000000  0.4951990000000 1.0
C      1  0.5243850000000  0.5426230000000  0.5495320000000 1.0
C      1  0.5338980000000  0.5495440000000  0.5016360000000 1.0
END
