TITL C-105671-526-2 49.2226510554245 125000 -375.958755439964 0 0 56 (C1) n - 1
REM
REM in /rds/project/t2_vol4/rds-t2-cs072/BORA/CARBON/from-Arr/AIRSS/Generating-Clusters/GAP-ML-2020/Only-C1/SD-CG/HFTN-CG
REM
REM
REM
REM
REM
REM ./C.cell (11c1c37f851c82e70ff6c80c92926a4b)
REM AIRSS Version 0.9.1 bugfix July 2018 build 013d7b7c2542+ Fri, 06 Jul 2018 19:26:36 +0100
REM compiler GCC version 9.3.0
REM options -cpp -mtune=generic -march=x86-64 -g -O0
REM seed -773306343 625880387 -607050917 -1608043826 1907682458 1120511792 766370092 160537250 -1556114536 -1582469334 -5961214 1140255983 405808331 -2052543545 -2076026332 252250745 -665203703 -205022939 640032745 1313013717 1218952712 1546322470 616204435 -1097387017 -1417603581 -857158743 1207914439 1324430341 -1077141950 1063301130 1336587988 110556194 16034835
REM
CELL 1.54180   50.00000   50.00000   50.00000   90.00000   90.00000   90.00000
LATT -1
SFAC C  
C      1  0.5519650000000  0.4621630000000  0.4908490000000 1.0
C      1  0.4954760000000  0.4986320000000  0.5336560000000 1.0
C      1  0.5228990000000  0.5247890000000  0.5599000000000 1.0
C      1  0.5299940000000  0.4614140000000  0.4479830000000 1.0
C      1  0.4390980000000  0.5226750000000  0.4672770000000 1.0
C      1  0.4476590000000  0.5143990000000  0.5390420000000 1.0
C      1  0.5195190000000  0.5524400000000  0.4622340000000 1.0
C      1  0.5208300000000  0.4711530000000  0.5580910000000 1.0
C      1  0.5286630000000  0.4895760000000  0.4455590000000 1.0
C      1  0.5116130000000  0.4992090000000  0.5583810000000 1.0
C      1  0.5571260000000  0.5341140000000  0.4976830000000 1.0
C      1  0.4705210000000  0.4598020000000  0.5135730000000 1.0
C      1  0.4882990000000  0.5239560000000  0.4802860000000 1.0
C      1  0.4969180000000  0.4553090000000  0.5514240000000 1.0
C      1  0.5441280000000  0.4622450000000  0.5455600000000 1.0
C      1  0.4328150000000  0.4809780000000  0.5006720000000 1.0
C      1  0.5350860000000  0.4475570000000  0.4728330000000 1.0
C      1  0.4754580000000  0.5505770000000  0.4860240000000 1.0
C      1  0.4828700000000  0.4776360000000  0.4916720000000 1.0
C      1  0.4443740000000  0.4555990000000  0.4995540000000 1.0
C      1  0.4847340000000  0.4735810000000  0.4441560000000 1.0
C      1  0.5014120000000  0.4968590000000  0.4414480000000 1.0
C      1  0.4646980000000  0.4719190000000  0.4649520000000 1.0
C      1  0.5381240000000  0.5756630000000  0.5099530000000 1.0
C      1  0.5515280000000  0.4666620000000  0.5203100000000 1.0
C      1  0.4462330000000  0.4964370000000  0.4786090000000 1.0
C      1  0.5356350000000  0.5304250000000  0.4771270000000 1.0
C      1  0.4975090000000  0.5600420000000  0.5274740000000 1.0
C      1  0.4838800000000  0.4327530000000  0.5132080000000 1.0
C      1  0.4327060000000  0.4908860000000  0.5276430000000 1.0
C      1  0.4772130000000  0.4745620000000  0.5392590000000 1.0
C      1  0.4511280000000  0.5420540000000  0.5366200000000 1.0
C      1  0.5466450000000  0.4951140000000  0.5210080000000 1.0
C      1  0.4498770000000  0.5459210000000  0.4705270000000 1.0
C      1  0.4572370000000  0.4459360000000  0.4750490000000 1.0
C      1  0.5639320000000  0.5075920000000  0.5027910000000 1.0
C      1  0.5030390000000  0.4518650000000  0.4460530000000 1.0
C      1  0.5117080000000  0.5715710000000  0.5053960000000 1.0
C      1  0.4957460000000  0.4306920000000  0.5375080000000 1.0
C      1  0.4737150000000  0.5474140000000  0.5184990000000 1.0
C      1  0.5168190000000  0.4987410000000  0.5119080000000 1.0
C      1  0.5500340000000  0.5516940000000  0.5185120000000 1.0
C      1  0.4711380000000  0.5044520000000  0.4937440000000 1.0
C      1  0.4743660000000  0.5163830000000  0.5208700000000 1.0
C      1  0.5129660000000  0.5228460000000  0.4961760000000 1.0
C      1  0.5093740000000  0.5445930000000  0.4384600000000 1.0
C      1  0.4835070000000  0.4308520000000  0.4842890000000 1.0
C      1  0.5002270000000  0.5653910000000  0.4803420000000 1.0
C      1  0.4511200000000  0.4867360000000  0.5483300000000 1.0
C      1  0.5440600000000  0.5051680000000  0.4630130000000 1.0
C      1  0.5103070000000  0.4817090000000  0.4910410000000 1.0
C      1  0.5064950000000  0.4361510000000  0.4699640000000 1.0
C      1  0.4951050000000  0.5231380000000  0.4495700000000 1.0
C      1  0.5406190000000  0.5424650000000  0.5441550000000 1.0
C      1  0.5134100000000  0.5478090000000  0.5479550000000 1.0
C      1  0.5584440000000  0.4896980000000  0.4818270000000 1.0
END
