TITL C-102199-7113-9 -0.109324641582273 125000 -222.392181813887 0 0 33 (C1) n - 1
REM
REM in /rds/project/t2_vol4/rds-t2-cs072/BORA/CARBON/from-Arr/AIRSS/Generating-Clusters/GAP-ML-2020/Only-C1/SD-CG/HFTN-CG
REM
REM
REM
REM
REM
REM ./C.cell (11c1c37f851c82e70ff6c80c92926a4b)
REM AIRSS Version 0.9.1 bugfix July 2018 build 013d7b7c2542+ Fri, 06 Jul 2018 19:26:36 +0100
REM compiler GCC version 9.3.0
REM options -cpp -mtune=generic -march=x86-64 -g -O0
REM seed 1750268297 -254174245 -881140497 280002018 281839195 831031125 315724172 249708281 1068736205 973135049 1420371869 -1866587929 237922561 -615469262 -2021363895 -254404037 1312305981 1343413196 -934220483 -1761861701 -62430689 -758735571 -149648074 1002428275 -1333807821 -1899718639 -1116934288 -206363661 1996007077 477590472 1897170633 484776622 1374880932
REM
CELL 1.54180   50.00000   50.00000   50.00000   90.00000   90.00000   90.00000
LATT -1
SFAC C  
C      1  0.4805450000000  0.5124630000000  0.4521070000000 1.0
C      1  0.4566860000000  0.5067500000000  0.4683610000000 1.0
C      1  0.4517690000000  0.4901060000000  0.5150340000000 1.0
C      1  0.4819770000000  0.4559790000000  0.5125750000000 1.0
C      1  0.5391140000000  0.5215310000000  0.5415020000000 1.0
C      1  0.4943580000000  0.5308440000000  0.5024590000000 1.0
C      1  0.4559890000000  0.4851880000000  0.4872280000000 1.0
C      1  0.4818260000000  0.5400380000000  0.4623800000000 1.0
C      1  0.5132860000000  0.4808350000000  0.5514600000000 1.0
C      1  0.4552720000000  0.5343370000000  0.4774600000000 1.0
C      1  0.5098380000000  0.4525110000000  0.5131360000000 1.0
C      1  0.5025130000000  0.5048980000000  0.5044790000000 1.0
C      1  0.4730660000000  0.5326040000000  0.5451740000000 1.0
C      1  0.4883920000000  0.5138850000000  0.5553520000000 1.0
C      1  0.5299550000000  0.5341250000000  0.4717500000000 1.0
C      1  0.5500130000000  0.5105100000000  0.5175680000000 1.0
C      1  0.5046800000000  0.5457740000000  0.4785700000000 1.0
C      1  0.5203940000000  0.4563660000000  0.4866010000000 1.0
C      1  0.5285750000000  0.5091640000000  0.4548830000000 1.0
C      1  0.5465080000000  0.4814240000000  0.5162090000000 1.0
C      1  0.5189480000000  0.5096420000000  0.5548550000000 1.0
C      1  0.5037360000000  0.4961750000000  0.4474610000000 1.0
C      1  0.4981060000000  0.4613070000000  0.4686820000000 1.0
C      1  0.5426970000000  0.4739610000000  0.4887430000000 1.0
C      1  0.4848000000000  0.4847250000000  0.5517950000000 1.0
C      1  0.5497310000000  0.5206460000000  0.4897570000000 1.0
C      1  0.5266550000000  0.4668800000000  0.5317480000000 1.0
C      1  0.4487600000000  0.5441270000000  0.5014940000000 1.0
C      1  0.5011360000000  0.4684570000000  0.4425450000000 1.0
C      1  0.4744470000000  0.4630120000000  0.4856490000000 1.0
C      1  0.4706440000000  0.5409980000000  0.5189810000000 1.0
C      1  0.4689230000000  0.4742960000000  0.5310290000000 1.0
C      1  0.5466590000000  0.4964420000000  0.4729730000000 1.0
END
