TITL C-101230-5618-8 97.2910097281295 125000 -425.60098740648 0 0 63 (C1) n - 1
REM
REM in /rds/project/t2_vol4/rds-t2-cs072/BORA/CARBON/from-Arr/AIRSS/Generating-Clusters/GAP-ML-2020/Only-C1/SD-CG/HFTN-CG
REM
REM
REM
REM
REM
REM ./C.cell (11c1c37f851c82e70ff6c80c92926a4b)
REM AIRSS Version 0.9.1 bugfix July 2018 build 013d7b7c2542+ Fri, 06 Jul 2018 19:26:36 +0100
REM compiler GCC version 9.3.0
REM options -cpp -mtune=generic -march=x86-64 -g -O0
REM seed -86194215 -1979610371 117494104 -335006402 2133996520 598254613 -1806133256 1833558222 -510029735 1589756889 1792126975 -110704222 543272766 -1374733767 213139964 1786037206 1406629002 83413428 -1131575429 1015284649 1596910064 1385115811 1004801121 787120446 -1300444719 -238384995 1795690338 1542298381 1293797979 -963935654 -1886421603 25294871 59278393
REM
CELL 1.54180   50.00000   50.00000   50.00000   90.00000   90.00000   90.00000
LATT -1
SFAC C  
C      1  0.4770720000000  0.4970640000000  0.4299430000000 1.0
C      1  0.5457800000000  0.4405660000000  0.5154750000000 1.0
C      1  0.4270850000000  0.4873100000000  0.5153020000000 1.0
C      1  0.5506380000000  0.4891690000000  0.5170770000000 1.0
C      1  0.4744830000000  0.4689390000000  0.4697260000000 1.0
C      1  0.5118360000000  0.5592450000000  0.4941950000000 1.0
C      1  0.4502850000000  0.4472530000000  0.5039000000000 1.0
C      1  0.4808560000000  0.4716330000000  0.4410880000000 1.0
C      1  0.5454570000000  0.4312370000000  0.4900500000000 1.0
C      1  0.5183790000000  0.5370170000000  0.4228290000000 1.0
C      1  0.4444620000000  0.5120260000000  0.4790390000000 1.0
C      1  0.5673250000000  0.5432860000000  0.5006090000000 1.0
C      1  0.4991590000000  0.5327090000000  0.5346940000000 1.0
C      1  0.5570690000000  0.4632230000000  0.5286340000000 1.0
C      1  0.5461500000000  0.4940120000000  0.4878560000000 1.0
C      1  0.5455530000000  0.5346840000000  0.5169000000000 1.0
C      1  0.5216220000000  0.4946930000000  0.4493000000000 1.0
C      1  0.5253250000000  0.4407100000000  0.5360540000000 1.0
C      1  0.4627890000000  0.5554530000000  0.4780670000000 1.0
C      1  0.4343770000000  0.4694870000000  0.4947940000000 1.0
C      1  0.5028260000000  0.4847340000000  0.4294990000000 1.0
C      1  0.4988250000000  0.4816650000000  0.4873840000000 1.0
C      1  0.4977950000000  0.4747970000000  0.5160710000000 1.0
C      1  0.5207900000000  0.4867860000000  0.5284640000000 1.0
C      1  0.4382560000000  0.4759350000000  0.5386150000000 1.0
C      1  0.5231810000000  0.4453870000000  0.4821920000000 1.0
C      1  0.5001370000000  0.5106850000000  0.4897760000000 1.0
C      1  0.4809540000000  0.4740390000000  0.5613050000000 1.0
C      1  0.5299220000000  0.5191560000000  0.4937440000000 1.0
C      1  0.5544070000000  0.5127540000000  0.5353160000000 1.0
C      1  0.4745510000000  0.4914560000000  0.5217320000000 1.0
C      1  0.4597110000000  0.4922010000000  0.5509400000000 1.0
C      1  0.4934370000000  0.5392910000000  0.4212970000000 1.0
C      1  0.4608190000000  0.5654000000000  0.5040830000000 1.0
C      1  0.4830580000000  0.5176880000000  0.5121720000000 1.0
C      1  0.5253050000000  0.4754220000000  0.4748850000000 1.0
C      1  0.5483080000000  0.5467030000000  0.4574250000000 1.0
C      1  0.4334760000000  0.5140460000000  0.5069400000000 1.0
C      1  0.5041160000000  0.4878040000000  0.5682030000000 1.0
C      1  0.5417540000000  0.5087200000000  0.5598470000000 1.0
C      1  0.4737740000000  0.5423350000000  0.5471610000000 1.0
C      1  0.5345820000000  0.4651490000000  0.5485570000000 1.0
C      1  0.4857100000000  0.5669560000000  0.4911030000000 1.0
C      1  0.4392310000000  0.5304000000000  0.5295900000000 1.0
C      1  0.5438500000000  0.5331740000000  0.4323770000000 1.0
C      1  0.4989610000000  0.4436270000000  0.5251070000000 1.0
C      1  0.5191380000000  0.5492590000000  0.5200550000000 1.0
C      1  0.5332220000000  0.4812330000000  0.5709670000000 1.0
C      1  0.4774420000000  0.4498550000000  0.5442040000000 1.0
C      1  0.5045130000000  0.5194670000000  0.4609880000000 1.0
C      1  0.5692970000000  0.5347230000000  0.4750480000000 1.0
C      1  0.4480030000000  0.4836260000000  0.4748880000000 1.0
C      1  0.4523810000000  0.4515920000000  0.5315160000000 1.0
C      1  0.5474540000000  0.5068760000000  0.4439120000000 1.0
C      1  0.4720040000000  0.4432970000000  0.4863390000000 1.0
C      1  0.5241380000000  0.5419250000000  0.4723250000000 1.0
C      1  0.4550050000000  0.5545000000000  0.5285310000000 1.0
C      1  0.4785800000000  0.5237930000000  0.4432880000000 1.0
C      1  0.4548140000000  0.5203620000000  0.5520010000000 1.0
C      1  0.4967970000000  0.4350720000000  0.4965190000000 1.0
C      1  0.5131460000000  0.5098410000000  0.5491980000000 1.0
C      1  0.5632890000000  0.5064640000000  0.4676820000000 1.0
C      1  0.4573410000000  0.5320880000000  0.4632230000000 1.0
END
