TITL C-107212-8260-6 77.3505772052178 125000 -677.987690710585 0 0 98 (C1) n - 1
REM
REM in /rds/project/t2_vol4/rds-t2-cs072/BORA/CARBON/from-Arr/AIRSS/Generating-Clusters/GAP-ML-2020/Only-C1/SD-CG/HFTN-CG
REM
REM
REM
REM
REM
REM ./C.cell (11c1c37f851c82e70ff6c80c92926a4b)
REM AIRSS Version 0.9.1 bugfix July 2018 build 013d7b7c2542+ Fri, 06 Jul 2018 19:26:36 +0100
REM compiler GCC version 9.3.0
REM options -cpp -mtune=generic -march=x86-64 -g -O0
REM seed 704176587 582694547 -50051501 -1004283006 411809482 -1517094001 -1684111185 190181964 -778219977 -731689 692871489 1567785894 -295565389 726047603 -1788339718 1953236567 -948070044 -1810317491 1343699355 1424858001 -1998261700 -1741452027 1714443799 -529743090 1278402083 -2136731790 1496115998 -777147900 -1311157790 -1003525303 1672770211 820692478 -954836356
REM
CELL 1.54180   50.00000   50.00000   50.00000   90.00000   90.00000   90.00000
LATT -1
SFAC C  
C      1  0.5006610000000  0.4513920000000  0.5724890000000 1.0
C      1  0.5665530000000  0.5602090000000  0.4915620000000 1.0
C      1  0.5133390000000  0.4532930000000  0.4279790000000 1.0
C      1  0.4154870000000  0.5099340000000  0.4659740000000 1.0
C      1  0.5190300000000  0.4957500000000  0.5239730000000 1.0
C      1  0.5646280000000  0.4715330000000  0.4551030000000 1.0
C      1  0.5260850000000  0.5448210000000  0.5049750000000 1.0
C      1  0.4959600000000  0.5764740000000  0.4752120000000 1.0
C      1  0.4777440000000  0.4340120000000  0.4522450000000 1.0
C      1  0.4358920000000  0.5602720000000  0.4997660000000 1.0
C      1  0.5768320000000  0.5474420000000  0.5152440000000 1.0
C      1  0.4112090000000  0.4863020000000  0.5054240000000 1.0
C      1  0.5045470000000  0.4266520000000  0.5305280000000 1.0
C      1  0.4272370000000  0.5253180000000  0.5387180000000 1.0
C      1  0.4572720000000  0.4338190000000  0.4736580000000 1.0
C      1  0.4769170000000  0.4245110000000  0.5245280000000 1.0
C      1  0.5254660000000  0.5001760000000  0.4793480000000 1.0
C      1  0.5416370000000  0.5359280000000  0.5578290000000 1.0
C      1  0.5253990000000  0.4413310000000  0.4513420000000 1.0
C      1  0.4900970000000  0.5041720000000  0.4503070000000 1.0
C      1  0.5270600000000  0.5651810000000  0.4506340000000 1.0
C      1  0.4429680000000  0.4605490000000  0.5246420000000 1.0
C      1  0.5591610000000  0.4231160000000  0.5379290000000 1.0
C      1  0.5161010000000  0.4487770000000  0.5104260000000 1.0
C      1  0.5321550000000  0.5213620000000  0.4330690000000 1.0
C      1  0.4398330000000  0.4967920000000  0.4548140000000 1.0
C      1  0.5451070000000  0.5292120000000  0.5212690000000 1.0
C      1  0.5464080000000  0.5098330000000  0.5689170000000 1.0
C      1  0.5137890000000  0.5416120000000  0.5639980000000 1.0
C      1  0.4451460000000  0.5212880000000  0.4372780000000 1.0
C      1  0.4732410000000  0.4302870000000  0.4973430000000 1.0
C      1  0.4848670000000  0.4747510000000  0.5388910000000 1.0
C      1  0.4668510000000  0.4810490000000  0.5182580000000 1.0
C      1  0.4642330000000  0.4714230000000  0.4282560000000 1.0
C      1  0.4276470000000  0.5512870000000  0.5265730000000 1.0
C      1  0.5599240000000  0.4894450000000  0.5513800000000 1.0
C      1  0.5224180000000  0.4708080000000  0.5788920000000 1.0
C      1  0.4587630000000  0.5761850000000  0.5104380000000 1.0
C      1  0.4890410000000  0.5451770000000  0.4216900000000 1.0
C      1  0.4850010000000  0.5718700000000  0.5007270000000 1.0
C      1  0.4811040000000  0.4803150000000  0.4922310000000 1.0
C      1  0.5043010000000  0.5204200000000  0.5826320000000 1.0
C      1  0.5268950000000  0.4776260000000  0.4265910000000 1.0
C      1  0.4508050000000  0.5676100000000  0.5364380000000 1.0
C      1  0.4687700000000  0.4980360000000  0.4714780000000 1.0
C      1  0.4674140000000  0.5245970000000  0.4213880000000 1.0
C      1  0.5609770000000  0.5453850000000  0.5389670000000 1.0
C      1  0.5463690000000  0.4642300000000  0.5650400000000 1.0
C      1  0.4370270000000  0.4535290000000  0.4725020000000 1.0
C      1  0.5681860000000  0.5418770000000  0.4699820000000 1.0
C      1  0.4972260000000  0.5578150000000  0.4482010000000 1.0
C      1  0.4173750000000  0.4981760000000  0.5323510000000 1.0
C      1  0.5178000000000  0.4967800000000  0.4499400000000 1.0
C      1  0.4687750000000  0.5082570000000  0.5275920000000 1.0
C      1  0.4669990000000  0.5507640000000  0.5509370000000 1.0
C      1  0.5448880000000  0.4532920000000  0.4963510000000 1.0
C      1  0.5453840000000  0.4995590000000  0.4174020000000 1.0
C      1  0.4709230000000  0.5271640000000  0.4823860000000 1.0
C      1  0.5418130000000  0.5406110000000  0.4550020000000 1.0
C      1  0.4504380000000  0.4784230000000  0.5670290000000 1.0
C      1  0.4951050000000  0.5529000000000  0.5464700000000 1.0
C      1  0.5140290000000  0.4315220000000  0.5570110000000 1.0
C      1  0.5038470000000  0.4993790000000  0.4997730000000 1.0
C      1  0.4313590000000  0.4771510000000  0.5461760000000 1.0
C      1  0.4414360000000  0.4696060000000  0.4472280000000 1.0
C      1  0.4948770000000  0.4495720000000  0.4900050000000 1.0
C      1  0.5822440000000  0.5177570000000  0.4790220000000 1.0
C      1  0.4271540000000  0.4626990000000  0.4991620000000 1.0
C      1  0.4726830000000  0.4587510000000  0.5605450000000 1.0
C      1  0.5565740000000  0.4350700000000  0.5157070000000 1.0
C      1  0.5138570000000  0.5346810000000  0.4158120000000 1.0
C      1  0.5472870000000  0.4996700000000  0.5219500000000 1.0
C      1  0.3988260000000  0.4993700000000  0.4839870000000 1.0
C      1  0.5023740000000  0.4346550000000  0.4657930000000 1.0
C      1  0.5918850000000  0.5236310000000  0.5058370000000 1.0
C      1  0.4288100000000  0.5347030000000  0.4573920000000 1.0
C      1  0.4576240000000  0.5050520000000  0.5752840000000 1.0
C      1  0.5114000000000  0.4706330000000  0.5302120000000 1.0
C      1  0.5568730000000  0.4775720000000  0.4287780000000 1.0
C      1  0.4763300000000  0.4980240000000  0.4247770000000 1.0
C      1  0.5504640000000  0.4858290000000  0.4947530000000 1.0
C      1  0.4949030000000  0.5324500000000  0.4640320000000 1.0
C      1  0.5241800000000  0.5799280000000  0.4748130000000 1.0
C      1  0.4544040000000  0.5232020000000  0.5511110000000 1.0
C      1  0.5719490000000  0.4907820000000  0.4754410000000 1.0
C      1  0.4987310000000  0.5495950000000  0.5169260000000 1.0
C      1  0.4840050000000  0.4516510000000  0.4306690000000 1.0
C      1  0.5423430000000  0.4378430000000  0.5544610000000 1.0
C      1  0.5245080000000  0.4996980000000  0.5831090000000 1.0
C      1  0.5477880000000  0.4507200000000  0.4660320000000 1.0
C      1  0.4788750000000  0.5132900000000  0.5896830000000 1.0
C      1  0.5888630000000  0.4937410000000  0.5460220000000 1.0
C      1  0.5221700000000  0.5293770000000  0.4783500000000 1.0
C      1  0.4598730000000  0.4404170000000  0.5404060000000 1.0
C      1  0.4842090000000  0.5227970000000  0.5084310000000 1.0
C      1  0.4448980000000  0.5440510000000  0.4786000000000 1.0
C      1  0.5980370000000  0.5048060000000  0.5248330000000 1.0
C      1  0.5400460000000  0.5696190000000  0.4953330000000 1.0
END
