TITL C-107239-8590-1 -0.0944205479739422 125000 -670.402202406395 0 0 96 (C1) n - 1
REM
REM in /rds/project/t2_vol4/rds-t2-cs072/BORA/CARBON/from-Arr/AIRSS/Generating-Clusters/GAP-ML-2020/Only-C1/SD-CG/HFTN-CG
REM
REM
REM
REM
REM
REM ./C.cell (11c1c37f851c82e70ff6c80c92926a4b)
REM AIRSS Version 0.9.1 bugfix July 2018 build 013d7b7c2542+ Fri, 06 Jul 2018 19:26:36 +0100
REM compiler GCC version 9.3.0
REM options -cpp -mtune=generic -march=x86-64 -g -O0
REM seed 405917597 -1793825827 1768056478 1707665973 -348516509 51056997 -2026038171 -2011164007 1365766354 -447072824 877958311 -156783768 1184529848 -1472256589 1317867204 237499260 -1011859416 635167590 -1644592011 -549041093 -129312480 -2061243293 -64184489 392113948 -343779401 -531013566 -185139281 734309709 -1856937029 -1293890326 1223025690 1625557952 1773475186
REM
CELL 1.54180   50.00000   50.00000   50.00000   90.00000   90.00000   90.00000
LATT -1
SFAC C  
C      1  0.4982490000000  0.5175600000000  0.4248660000000 1.0
C      1  0.4705770000000  0.5145200000000  0.5285290000000 1.0
C      1  0.5259120000000  0.5184370000000  0.5699760000000 1.0
C      1  0.5558510000000  0.4690220000000  0.5610580000000 1.0
C      1  0.4276170000000  0.5490970000000  0.4807300000000 1.0
C      1  0.5773750000000  0.5369660000000  0.4761780000000 1.0
C      1  0.5450070000000  0.5714170000000  0.5084220000000 1.0
C      1  0.5735880000000  0.4569780000000  0.5424380000000 1.0
C      1  0.4337180000000  0.5489780000000  0.5090030000000 1.0
C      1  0.4249960000000  0.5212110000000  0.5494090000000 1.0
C      1  0.4486080000000  0.5354360000000  0.4390750000000 1.0
C      1  0.5292690000000  0.4733970000000  0.4301760000000 1.0
C      1  0.4313730000000  0.4583720000000  0.4686740000000 1.0
C      1  0.5681760000000  0.5142630000000  0.5433240000000 1.0
C      1  0.4702050000000  0.5208820000000  0.4246720000000 1.0
C      1  0.5159000000000  0.5386450000000  0.4342470000000 1.0
C      1  0.5124160000000  0.5007570000000  0.4731620000000 1.0
C      1  0.4665180000000  0.4304850000000  0.4817410000000 1.0
C      1  0.4947640000000  0.4793430000000  0.4597320000000 1.0
C      1  0.4633390000000  0.4743360000000  0.4989070000000 1.0
C      1  0.5230110000000  0.4336250000000  0.5523000000000 1.0
C      1  0.4622310000000  0.5421730000000  0.5130030000000 1.0
C      1  0.4131670000000  0.4875350000000  0.5046500000000 1.0
C      1  0.5493530000000  0.4268020000000  0.5079890000000 1.0
C      1  0.4064690000000  0.5151530000000  0.5053440000000 1.0
C      1  0.4575020000000  0.4705060000000  0.4238970000000 1.0
C      1  0.5444030000000  0.5363210000000  0.4417250000000 1.0
C      1  0.4605860000000  0.4854290000000  0.5260990000000 1.0
C      1  0.4479870000000  0.4964960000000  0.5729780000000 1.0
C      1  0.4495570000000  0.5525640000000  0.4613710000000 1.0
C      1  0.5560930000000  0.5516580000000  0.4637160000000 1.0
C      1  0.5374990000000  0.5145130000000  0.5393950000000 1.0
C      1  0.5505390000000  0.4263180000000  0.4805070000000 1.0
C      1  0.5844140000000  0.4876130000000  0.4733150000000 1.0
C      1  0.4145720000000  0.5055490000000  0.4606650000000 1.0
C      1  0.4964710000000  0.5790150000000  0.5112770000000 1.0
C      1  0.4938230000000  0.4357710000000  0.4877120000000 1.0
C      1  0.4782300000000  0.5629540000000  0.5259490000000 1.0
C      1  0.5505830000000  0.4443610000000  0.4598520000000 1.0
C      1  0.4934730000000  0.5797300000000  0.4835130000000 1.0
C      1  0.5419720000000  0.5703450000000  0.4795570000000 1.0
C      1  0.5036700000000  0.4877330000000  0.4262610000000 1.0
C      1  0.5329910000000  0.5051330000000  0.4923990000000 1.0
C      1  0.4154650000000  0.4808230000000  0.4762510000000 1.0
C      1  0.4835220000000  0.4710460000000  0.4157200000000 1.0
C      1  0.5357520000000  0.5458600000000  0.5605610000000 1.0
C      1  0.4896170000000  0.5536960000000  0.5493290000000 1.0
C      1  0.4293270000000  0.4767650000000  0.5278260000000 1.0
C      1  0.4316900000000  0.5120770000000  0.4390250000000 1.0
C      1  0.4754760000000  0.5379940000000  0.4868840000000 1.0
C      1  0.5609090000000  0.5127550000000  0.4403460000000 1.0
C      1  0.5258380000000  0.4498090000000  0.4457400000000 1.0
C      1  0.5839950000000  0.5121870000000  0.5177650000000 1.0
C      1  0.5603920000000  0.5425790000000  0.5460300000000 1.0
C      1  0.5076350000000  0.4772350000000  0.5192880000000 1.0
C      1  0.4458170000000  0.4488700000000  0.4928280000000 1.0
C      1  0.5464080000000  0.5062850000000  0.5847850000000 1.0
C      1  0.5167990000000  0.5755580000000  0.4679070000000 1.0
C      1  0.4104130000000  0.5270120000000  0.4787860000000 1.0
C      1  0.5722960000000  0.4399850000000  0.5206950000000 1.0
C      1  0.5030510000000  0.5585720000000  0.4492400000000 1.0
C      1  0.4706240000000  0.4371870000000  0.4545580000000 1.0
C      1  0.4727380000000  0.4848770000000  0.5739690000000 1.0
C      1  0.4263250000000  0.4922930000000  0.5532760000000 1.0
C      1  0.4519880000000  0.4981170000000  0.4240620000000 1.0
C      1  0.4967340000000  0.5050210000000  0.5679090000000 1.0
C      1  0.5801190000000  0.5129420000000  0.4617240000000 1.0
C      1  0.4167170000000  0.5325800000000  0.5254400000000 1.0
C      1  0.5545630000000  0.4850320000000  0.4360620000000 1.0
C      1  0.5007670000000  0.4451860000000  0.5145140000000 1.0
C      1  0.4780380000000  0.5596600000000  0.4673960000000 1.0
C      1  0.4489760000000  0.4531760000000  0.4460220000000 1.0
C      1  0.4717820000000  0.4886120000000  0.4766550000000 1.0
C      1  0.4954010000000  0.5072590000000  0.5143760000000 1.0
C      1  0.5284810000000  0.4609030000000  0.5609610000000 1.0
C      1  0.4976460000000  0.4251510000000  0.5586330000000 1.0
C      1  0.5166020000000  0.5627430000000  0.5493860000000 1.0
C      1  0.5800650000000  0.5369290000000  0.5044070000000 1.0
C      1  0.5645680000000  0.4957370000000  0.5674510000000 1.0
C      1  0.5645820000000  0.5547860000000  0.5206130000000 1.0
C      1  0.4520690000000  0.4310920000000  0.5347990000000 1.0
C      1  0.4872950000000  0.5117620000000  0.4856870000000 1.0
C      1  0.5251340000000  0.4301300000000  0.5233870000000 1.0
C      1  0.5303090000000  0.4797800000000  0.5019600000000 1.0
C      1  0.4771330000000  0.4693110000000  0.5493600000000 1.0
C      1  0.4779010000000  0.5264120000000  0.5567820000000 1.0
C      1  0.5893670000000  0.4881420000000  0.5024110000000 1.0
C      1  0.5063470000000  0.4786050000000  0.5498770000000 1.0
C      1  0.4988310000000  0.4487560000000  0.4599280000000 1.0
C      1  0.5217210000000  0.5766190000000  0.5242140000000 1.0
C      1  0.4491100000000  0.5244040000000  0.5669160000000 1.0
C      1  0.4794720000000  0.4393830000000  0.5405060000000 1.0
C      1  0.5227660000000  0.5201520000000  0.5148720000000 1.0
C      1  0.5859650000000  0.4646270000000  0.5182910000000 1.0
C      1  0.4353240000000  0.4469520000000  0.5209130000000 1.0
C      1  0.5680860000000  0.4691730000000  0.4558820000000 1.0
END
