TITL C-102222-7184-6 -78.6357080827372 125000 -1162.92336656676 0 0 166 (C1) n - 1
REM
REM in /rds/project/t2_vol4/rds-t2-cs072/BORA/CARBON/from-Arr/AIRSS/Generating-Clusters/GAP-ML-2020/Only-C1/SD-CG/HFTN-CG
REM
REM
REM
REM
REM
REM ./C.cell (11c1c37f851c82e70ff6c80c92926a4b)
REM AIRSS Version 0.9.1 bugfix July 2018 build 013d7b7c2542+ Fri, 06 Jul 2018 19:26:36 +0100
REM compiler GCC version 9.3.0
REM options -cpp -mtune=generic -march=x86-64 -g -O0
REM seed 788355421 -603163854 -555099726 279980645 -265358851 2043122843 180599324 171643300 419112626 1750218752 -800033159 -688272752 -1860712880 -1868889523 -1300219950 -1692835992 1745611589 1095519962 90438118 -1213723848 -1924820905 1513376150 -1012408111 -1237215554 -2096094817 1695795858 838385740 1587609760 -144566716 -430412237 1133854948 810875565 250843489
REM
CELL 1.54180   50.00000   50.00000   50.00000   90.00000   90.00000   90.00000
LATT -1
SFAC C  
C      1  0.4008060000000  0.4518740000000  0.4884620000000 1.0
C      1  0.5052460000000  0.4549560000000  0.5055700000000 1.0
C      1  0.5305480000000  0.4458160000000  0.4219070000000 1.0
C      1  0.4741680000000  0.5522290000000  0.4653220000000 1.0
C      1  0.4753860000000  0.4163100000000  0.5671190000000 1.0
C      1  0.5657130000000  0.4471570000000  0.5466770000000 1.0
C      1  0.5255880000000  0.5676840000000  0.5978190000000 1.0
C      1  0.4135860000000  0.5031270000000  0.5110300000000 1.0
C      1  0.4663840000000  0.5794710000000  0.5684370000000 1.0
C      1  0.4463640000000  0.5192670000000  0.4346780000000 1.0
C      1  0.4317160000000  0.5852380000000  0.4499980000000 1.0
C      1  0.4161060000000  0.4376870000000  0.5056740000000 1.0
C      1  0.5218940000000  0.4540570000000  0.5309400000000 1.0
C      1  0.4341320000000  0.4513390000000  0.4298290000000 1.0
C      1  0.4384380000000  0.5744440000000  0.5202510000000 1.0
C      1  0.5137010000000  0.5578970000000  0.4190040000000 1.0
C      1  0.4988010000000  0.5630870000000  0.4466590000000 1.0
C      1  0.5041730000000  0.4345140000000  0.4211870000000 1.0
C      1  0.5340210000000  0.4079790000000  0.5239030000000 1.0
C      1  0.4117240000000  0.4920670000000  0.4577000000000 1.0
C      1  0.4572540000000  0.4118790000000  0.5210570000000 1.0
C      1  0.5229880000000  0.5550770000000  0.4911260000000 1.0
C      1  0.5733790000000  0.5610410000000  0.5408980000000 1.0
C      1  0.4349130000000  0.5890250000000  0.4778400000000 1.0
C      1  0.4207590000000  0.4876690000000  0.5602390000000 1.0
C      1  0.5034130000000  0.6009160000000  0.4789190000000 1.0
C      1  0.5683200000000  0.5433410000000  0.4665590000000 1.0
C      1  0.4599890000000  0.4772100000000  0.4593100000000 1.0
C      1  0.5378670000000  0.5311420000000  0.5691590000000 1.0
C      1  0.4816520000000  0.4676130000000  0.5217900000000 1.0
C      1  0.4693050000000  0.4981040000000  0.4372230000000 1.0
C      1  0.5971720000000  0.5454280000000  0.5786880000000 1.0
C      1  0.5719370000000  0.5329290000000  0.4057720000000 1.0
C      1  0.5649940000000  0.4929160000000  0.5761800000000 1.0
C      1  0.5034460000000  0.5767040000000  0.4996300000000 1.0
C      1  0.4966640000000  0.4577910000000  0.5471200000000 1.0
C      1  0.5499210000000  0.4908750000000  0.5106770000000 1.0
C      1  0.4102190000000  0.4657310000000  0.4674730000000 1.0
C      1  0.4293720000000  0.4573720000000  0.5249430000000 1.0
C      1  0.5654780000000  0.4237310000000  0.4888210000000 1.0
C      1  0.4560990000000  0.5970480000000  0.5221650000000 1.0
C      1  0.5041720000000  0.4106440000000  0.4365090000000 1.0
C      1  0.5119860000000  0.4996580000000  0.5442520000000 1.0
C      1  0.5451940000000  0.5946010000000  0.5144960000000 1.0
C      1  0.5482640000000  0.5191750000000  0.4695410000000 1.0
C      1  0.5071710000000  0.4015560000000  0.5320760000000 1.0
C      1  0.5628600000000  0.4396280000000  0.4635690000000 1.0
C      1  0.5098560000000  0.5368520000000  0.3992420000000 1.0
C      1  0.5447560000000  0.4058440000000  0.4974990000000 1.0
C      1  0.4752700000000  0.4324780000000  0.5897540000000 1.0
C      1  0.4841870000000  0.5244430000000  0.3939730000000 1.0
C      1  0.5358550000000  0.4815210000000  0.5346950000000 1.0
C      1  0.4463530000000  0.5408700000000  0.4567090000000 1.0
C      1  0.5015720000000  0.5062960000000  0.5019310000000 1.0
C      1  0.4539860000000  0.4323260000000  0.4256100000000 1.0
C      1  0.4551700000000  0.4640370000000  0.5043660000000 1.0
C      1  0.4525790000000  0.4410790000000  0.4829630000000 1.0
C      1  0.5969230000000  0.5053940000000  0.4818950000000 1.0
C      1  0.4687500000000  0.3875490000000  0.4720600000000 1.0
C      1  0.5256220000000  0.5306930000000  0.5110440000000 1.0
C      1  0.4376300000000  0.4759380000000  0.4179800000000 1.0
C      1  0.4316650000000  0.5319120000000  0.4809680000000 1.0
C      1  0.6024290000000  0.4734290000000  0.5219890000000 1.0
C      1  0.4395870000000  0.4465620000000  0.5509260000000 1.0
C      1  0.5997890000000  0.5248250000000  0.5252700000000 1.0
C      1  0.4968640000000  0.4297780000000  0.4936780000000 1.0
C      1  0.4660760000000  0.5133990000000  0.5394010000000 1.0
C      1  0.5121130000000  0.5420040000000  0.4663040000000 1.0
C      1  0.5119420000000  0.5885490000000  0.4553110000000 1.0
C      1  0.4805700000000  0.6154020000000  0.4817760000000 1.0
C      1  0.5852270000000  0.4875580000000  0.4609880000000 1.0
C      1  0.4869430000000  0.4943190000000  0.3956520000000 1.0
C      1  0.4721170000000  0.5424530000000  0.5421330000000 1.0
C      1  0.4990970000000  0.5621850000000  0.6008170000000 1.0
C      1  0.5244960000000  0.4233100000000  0.5679640000000 1.0
C      1  0.4605590000000  0.5986080000000  0.4926400000000 1.0
C      1  0.5035110000000  0.5789740000000  0.5314780000000 1.0
C      1  0.5874620000000  0.4501650000000  0.5273440000000 1.0
C      1  0.4795510000000  0.4343410000000  0.4716640000000 1.0
C      1  0.5277030000000  0.5149060000000  0.3934310000000 1.0
C      1  0.4171740000000  0.5359880000000  0.5375640000000 1.0
C      1  0.4365930000000  0.4558710000000  0.4594800000000 1.0
C      1  0.5307260000000  0.4683160000000  0.5787710000000 1.0
C      1  0.5727380000000  0.5432680000000  0.5899460000000 1.0
C      1  0.5254330000000  0.5194380000000  0.4530170000000 1.0
C      1  0.4874430000000  0.4972250000000  0.5264060000000 1.0
C      1  0.5045110000000  0.4779470000000  0.4612030000000 1.0
C      1  0.5453880000000  0.4751350000000  0.4883540000000 1.0
C      1  0.5885460000000  0.5225650000000  0.4270350000000 1.0
C      1  0.4833770000000  0.4585360000000  0.4552690000000 1.0
C      1  0.4243580000000  0.5126500000000  0.5743240000000 1.0
C      1  0.5000260000000  0.5505780000000  0.5439680000000 1.0
C      1  0.4575520000000  0.4834120000000  0.5887520000000 1.0
C      1  0.4365260000000  0.5626250000000  0.4367280000000 1.0
C      1  0.6032050000000  0.4985220000000  0.5111600000000 1.0
C      1  0.4854740000000  0.4049020000000  0.5121740000000 1.0
C      1  0.5467070000000  0.5161180000000  0.4996920000000 1.0
C      1  0.5302710000000  0.3937400000000  0.4756810000000 1.0
C      1  0.5006530000000  0.5098960000000  0.6006080000000 1.0
C      1  0.5330340000000  0.5874990000000  0.5372240000000 1.0
C      1  0.5632160000000  0.5818510000000  0.4987290000000 1.0
C      1  0.4100840000000  0.5478840000000  0.4939370000000 1.0
C      1  0.4445050000000  0.5438380000000  0.4158800000000 1.0
C      1  0.4462150000000  0.5096390000000  0.5916880000000 1.0
C      1  0.4535300000000  0.5509750000000  0.5679450000000 1.0
C      1  0.5201290000000  0.4429550000000  0.5875680000000 1.0
C      1  0.4154840000000  0.4826870000000  0.5324000000000 1.0
C      1  0.4611010000000  0.5338560000000  0.5916940000000 1.0
C      1  0.4529620000000  0.4105740000000  0.4425820000000 1.0
C      1  0.5860900000000  0.5351020000000  0.5500480000000 1.0
C      1  0.4751660000000  0.5683700000000  0.4920760000000 1.0
C      1  0.5599100000000  0.4883870000000  0.4140480000000 1.0
C      1  0.4389670000000  0.4185970000000  0.4972100000000 1.0
C      1  0.5117910000000  0.3754150000000  0.4839690000000 1.0
C      1  0.4803240000000  0.4067670000000  0.4520900000000 1.0
C      1  0.5158140000000  0.4894060000000  0.3964140000000 1.0
C      1  0.5390440000000  0.5813930000000  0.4515320000000 1.0
C      1  0.4608060000000  0.5546370000000  0.5150570000000 1.0
C      1  0.4546770000000  0.4885620000000  0.4856810000000 1.0
C      1  0.4017800000000  0.5315880000000  0.5149860000000 1.0
C      1  0.5362730000000  0.4713310000000  0.4098390000000 1.0
C      1  0.5970250000000  0.5449610000000  0.5059410000000 1.0
C      1  0.5519700000000  0.5733720000000  0.5542060000000 1.0
C      1  0.5537200000000  0.4716830000000  0.5583550000000 1.0
C      1  0.5831720000000  0.4323800000000  0.5071690000000 1.0
C      1  0.4871030000000  0.4823370000000  0.5913760000000 1.0
C      1  0.4866570000000  0.3818750000000  0.4926150000000 1.0
C      1  0.4394780000000  0.4683210000000  0.5705170000000 1.0
C      1  0.4872760000000  0.5254720000000  0.4704540000000 1.0
C      1  0.4618990000000  0.5408220000000  0.3954720000000 1.0
C      1  0.5020640000000  0.4089810000000  0.5585450000000 1.0
C      1  0.4981790000000  0.5039360000000  0.4507290000000 1.0
C      1  0.5454650000000  0.5598830000000  0.5797640000000 1.0
C      1  0.4247580000000  0.5023190000000  0.4823890000000 1.0
C      1  0.5288420000000  0.4079670000000  0.4501410000000 1.0
C      1  0.4790350000000  0.4505740000000  0.4246520000000 1.0
C      1  0.4870850000000  0.5349880000000  0.6018770000000 1.0
C      1  0.5810810000000  0.4957890000000  0.4336180000000 1.0
C      1  0.5513320000000  0.5673370000000  0.4760640000000 1.0
C      1  0.4437490000000  0.4011700000000  0.4714710000000 1.0
C      1  0.5807490000000  0.5665950000000  0.5148870000000 1.0
C      1  0.5815050000000  0.5466550000000  0.4412240000000 1.0
C      1  0.5549860000000  0.5121250000000  0.3989980000000 1.0
C      1  0.4737370000000  0.5119920000000  0.4919520000000 1.0
C      1  0.5158040000000  0.4768520000000  0.4872350000000 1.0
C      1  0.5203110000000  0.5294040000000  0.5427460000000 1.0
C      1  0.4933760000000  0.4507720000000  0.5964070000000 1.0
C      1  0.4544070000000  0.4218650000000  0.5477380000000 1.0
C      1  0.4521970000000  0.5298040000000  0.5032320000000 1.0
C      1  0.5662270000000  0.5207030000000  0.5683740000000 1.0
C      1  0.5408310000000  0.4303400000000  0.5424320000000 1.0
C      1  0.5452150000000  0.4304800000000  0.4430490000000 1.0
C      1  0.4249120000000  0.5393680000000  0.5632500000000 1.0
C      1  0.4390490000000  0.5153660000000  0.5247840000000 1.0
C      1  0.4689200000000  0.4785330000000  0.4137640000000 1.0
C      1  0.4755450000000  0.5916410000000  0.5419450000000 1.0
C      1  0.4801160000000  0.5813210000000  0.5914050000000 1.0
C      1  0.5045930000000  0.4794120000000  0.5661080000000 1.0
C      1  0.4254060000000  0.4975150000000  0.4333920000000 1.0
C      1  0.5429180000000  0.4900580000000  0.5942310000000 1.0
C      1  0.4212480000000  0.5740460000000  0.4973830000000 1.0
C      1  0.5398550000000  0.5682110000000  0.4258530000000 1.0
C      1  0.5278710000000  0.5136390000000  0.5941450000000 1.0
C      1  0.5657280000000  0.4677510000000  0.4690810000000 1.0
C      1  0.5647140000000  0.5569380000000  0.4196000000000 1.0
C      1  0.5927920000000  0.5334000000000  0.4810500000000 1.0
END
