TITL C-105652-7160-5 -157.938621044788 125000 -453.619063367957 0 0 65 (C1) n - 1
REM
REM in /rds/project/t2_vol4/rds-t2-cs072/BORA/CARBON/from-Arr/AIRSS/Generating-Clusters/GAP-ML-2020/Only-C1/SD-CG/HFTN-CG
REM
REM
REM
REM
REM
REM ./C.cell (11c1c37f851c82e70ff6c80c92926a4b)
REM AIRSS Version 0.9.1 bugfix July 2018 build 013d7b7c2542+ Fri, 06 Jul 2018 19:26:36 +0100
REM compiler GCC version 9.3.0
REM options -cpp -mtune=generic -march=x86-64 -g -O0
REM seed 1382794964 485988494 -1415793411 -258058339 -1550901919 -482071878 1781803709 1930561688 983364601 1033227639 1922392313 -1367833339 1134432853 -523982497 -421523520 145819574 -552155347 -1043648062 1022986343 1884074003 -169115517 1547650894 -569347300 2047420282 -1381119855 1421128631 171106760 1676352653 -2006293281 -1670410393 -856466080 -377644107 1912008677
REM
CELL 1.54180   50.00000   50.00000   50.00000   90.00000   90.00000   90.00000
LATT -1
SFAC C  
C      1  0.5091470000000  0.4475580000000  0.5515920000000 1.0
C      1  0.4840550000000  0.4724370000000  0.4457660000000 1.0
C      1  0.5273180000000  0.4867850000000  0.4297820000000 1.0
C      1  0.5494480000000  0.4752860000000  0.5503430000000 1.0
C      1  0.5247360000000  0.4691590000000  0.5621710000000 1.0
C      1  0.4392260000000  0.5339570000000  0.4708470000000 1.0
C      1  0.4731380000000  0.5217680000000  0.4379110000000 1.0
C      1  0.4794520000000  0.5040940000000  0.4841780000000 1.0
C      1  0.4992460000000  0.4882980000000  0.4667870000000 1.0
C      1  0.4451230000000  0.4656400000000  0.4711020000000 1.0
C      1  0.5668240000000  0.5233160000000  0.5028270000000 1.0
C      1  0.4357940000000  0.5196300000000  0.5144410000000 1.0
C      1  0.4757070000000  0.5596960000000  0.4650520000000 1.0
C      1  0.5065410000000  0.4804230000000  0.5113150000000 1.0
C      1  0.4349700000000  0.4714220000000  0.4976230000000 1.0
C      1  0.4396420000000  0.5096020000000  0.5406440000000 1.0
C      1  0.5223480000000  0.5253080000000  0.4936930000000 1.0
C      1  0.4956210000000  0.5329920000000  0.5496110000000 1.0
C      1  0.5353960000000  0.5464950000000  0.5349670000000 1.0
C      1  0.5561740000000  0.4600160000000  0.5266290000000 1.0
C      1  0.5516380000000  0.4596360000000  0.4665270000000 1.0
C      1  0.5070530000000  0.4909150000000  0.5693070000000 1.0
C      1  0.5709410000000  0.4778200000000  0.5098040000000 1.0
C      1  0.4584760000000  0.5412910000000  0.4520880000000 1.0
C      1  0.5093410000000  0.4656420000000  0.4851090000000 1.0
C      1  0.5206510000000  0.5697510000000  0.4693530000000 1.0
C      1  0.5147340000000  0.5177560000000  0.5653240000000 1.0
C      1  0.5398630000000  0.5681880000000  0.4911040000000 1.0
C      1  0.5373080000000  0.4647270000000  0.4423600000000 1.0
C      1  0.4878570000000  0.4449460000000  0.4856000000000 1.0
C      1  0.4289430000000  0.5081780000000  0.4693840000000 1.0
C      1  0.4556670000000  0.4950940000000  0.5596830000000 1.0
C      1  0.4816230000000  0.4550240000000  0.5534010000000 1.0
C      1  0.4675450000000  0.4465020000000  0.5301890000000 1.0
C      1  0.4875240000000  0.4353990000000  0.5122480000000 1.0
C      1  0.5019500000000  0.5561510000000  0.4537940000000 1.0
C      1  0.4384330000000  0.4816260000000  0.5426790000000 1.0
C      1  0.5668510000000  0.4797800000000  0.4813960000000 1.0
C      1  0.5180920000000  0.5077150000000  0.4495260000000 1.0
C      1  0.5007190000000  0.5295470000000  0.4410770000000 1.0
C      1  0.4440160000000  0.4616250000000  0.5231040000000 1.0
C      1  0.5140940000000  0.5772580000000  0.4956610000000 1.0
C      1  0.4698730000000  0.4536140000000  0.4657070000000 1.0
C      1  0.5615840000000  0.5079470000000  0.4785050000000 1.0
C      1  0.4647400000000  0.4940860000000  0.4380720000000 1.0
C      1  0.4798690000000  0.4814780000000  0.5645910000000 1.0
C      1  0.5197860000000  0.5047590000000  0.5163370000000 1.0
C      1  0.4799040000000  0.4928160000000  0.5118920000000 1.0
C      1  0.4942310000000  0.5668960000000  0.5128810000000 1.0
C      1  0.4739230000000  0.5541940000000  0.4949020000000 1.0
C      1  0.5366060000000  0.5169020000000  0.4692950000000 1.0
C      1  0.4919050000000  0.5295450000000  0.4957570000000 1.0
C      1  0.5133410000000  0.4357610000000  0.5260970000000 1.0
C      1  0.5399690000000  0.5246620000000  0.5534410000000 1.0
C      1  0.5453900000000  0.5439300000000  0.5073940000000 1.0
C      1  0.4923030000000  0.5181470000000  0.5240520000000 1.0
C      1  0.5718410000000  0.5045180000000  0.5223450000000 1.0
C      1  0.5578700000000  0.5030390000000  0.5474530000000 1.0
C      1  0.4465470000000  0.5412640000000  0.4977660000000 1.0
C      1  0.5069440000000  0.5543110000000  0.5354130000000 1.0
C      1  0.5341600000000  0.4496970000000  0.4860630000000 1.0
C      1  0.5380770000000  0.4421440000000  0.5133460000000 1.0
C      1  0.5096370000000  0.4644030000000  0.4323510000000 1.0
C      1  0.4263530000000  0.4987460000000  0.4964150000000 1.0
C      1  0.4419230000000  0.4886900000000  0.4539250000000 1.0
END
