TITL C-101221-5812-10 -265.590078698139 125000 -888.505083839802 0 0 125 (C1) n - 1
REM
REM in /rds/project/t2_vol4/rds-t2-cs072/BORA/CARBON/from-Arr/AIRSS/Generating-Clusters/GAP-ML-2020/Only-C1/SD-CG/HFTN-CG
REM
REM
REM
REM
REM
REM ./C.cell (11c1c37f851c82e70ff6c80c92926a4b)
REM AIRSS Version 0.9.1 bugfix July 2018 build 013d7b7c2542+ Fri, 06 Jul 2018 19:26:36 +0100
REM compiler GCC version 9.3.0
REM options -cpp -mtune=generic -march=x86-64 -g -O0
REM seed 351027006 214279368 324405112 1413274035 1535921752 -738319297 -1499329253 1264517457 -1468629365 -1065557326 -63120151 1198703179 879068767 1605552566 -550604083 -561403783 1038945485 -593880394 -1739487598 911574113 1491205141 -1039227520 -557280599 -609945053 1917573242 -1958803240 -1401783413 -1736516309 -416152079 -1939762592 1766376913 1751616740 2043615655
REM
CELL 1.54180   50.00000   50.00000   50.00000   90.00000   90.00000   90.00000
LATT -1
SFAC C  
C      1  0.5513130000000  0.5808080000000  0.4899110000000 1.0
C      1  0.4657510000000  0.5361860000000  0.5149700000000 1.0
C      1  0.4290990000000  0.4494310000000  0.5313890000000 1.0
C      1  0.5058270000000  0.5565860000000  0.5471020000000 1.0
C      1  0.5064360000000  0.4795250000000  0.5293910000000 1.0
C      1  0.4827260000000  0.5133210000000  0.5883180000000 1.0
C      1  0.5498510000000  0.5647100000000  0.4458940000000 1.0
C      1  0.4855950000000  0.4624440000000  0.5222980000000 1.0
C      1  0.5740880000000  0.5547910000000  0.4578160000000 1.0
C      1  0.5772190000000  0.4603160000000  0.5223050000000 1.0
C      1  0.4241050000000  0.5596010000000  0.5034510000000 1.0
C      1  0.4679620000000  0.4090610000000  0.5272810000000 1.0
C      1  0.4358950000000  0.4401680000000  0.5034770000000 1.0
C      1  0.4611160000000  0.5506480000000  0.4302280000000 1.0
C      1  0.5744250000000  0.5286540000000  0.5671440000000 1.0
C      1  0.5812560000000  0.4662960000000  0.4948040000000 1.0
C      1  0.4461480000000  0.5776340000000  0.4957030000000 1.0
C      1  0.5593580000000  0.5509650000000  0.5542210000000 1.0
C      1  0.4900730000000  0.4937390000000  0.5671510000000 1.0
C      1  0.5314130000000  0.5148090000000  0.5492760000000 1.0
C      1  0.5581290000000  0.5242500000000  0.4267040000000 1.0
C      1  0.5291780000000  0.4820300000000  0.5149380000000 1.0
C      1  0.4404660000000  0.4942610000000  0.5683370000000 1.0
C      1  0.4155520000000  0.5114120000000  0.5002280000000 1.0
C      1  0.4976190000000  0.4249090000000  0.4419350000000 1.0
C      1  0.5648640000000  0.5650740000000  0.5307510000000 1.0
C      1  0.4836290000000  0.5782650000000  0.4574570000000 1.0
C      1  0.5881230000000  0.4855190000000  0.5352750000000 1.0
C      1  0.4921530000000  0.5855230000000  0.5130700000000 1.0
C      1  0.5837090000000  0.5543590000000  0.5104250000000 1.0
C      1  0.5320590000000  0.5335850000000  0.5897090000000 1.0
C      1  0.5259920000000  0.4147290000000  0.4837400000000 1.0
C      1  0.5946570000000  0.4905870000000  0.4871390000000 1.0
C      1  0.4878630000000  0.5030390000000  0.5359870000000 1.0
C      1  0.4910340000000  0.5216820000000  0.4776240000000 1.0
C      1  0.5358410000000  0.5808810000000  0.4653300000000 1.0
C      1  0.5384310000000  0.5460300000000  0.4271290000000 1.0
C      1  0.4986550000000  0.4468760000000  0.4224280000000 1.0
C      1  0.5363470000000  0.4327100000000  0.5491410000000 1.0
C      1  0.4151650000000  0.4587510000000  0.4871990000000 1.0
C      1  0.4999470000000  0.4929990000000  0.4132930000000 1.0
C      1  0.4542950000000  0.4136160000000  0.5031340000000 1.0
C      1  0.5102410000000  0.5168480000000  0.5946440000000 1.0
C      1  0.5624520000000  0.4916750000000  0.5820120000000 1.0
C      1  0.4176660000000  0.4653150000000  0.4592440000000 1.0
C      1  0.4424090000000  0.5078480000000  0.4833550000000 1.0
C      1  0.5407440000000  0.4336520000000  0.5019640000000 1.0
C      1  0.4645070000000  0.5244960000000  0.4198300000000 1.0
C      1  0.5372230000000  0.5165010000000  0.4741360000000 1.0
C      1  0.5379030000000  0.4758570000000  0.5801480000000 1.0
C      1  0.5789880000000  0.5286360000000  0.4464350000000 1.0
C      1  0.4137430000000  0.5404090000000  0.4855650000000 1.0
C      1  0.4103870000000  0.4904600000000  0.4543470000000 1.0
C      1  0.5016490000000  0.4033950000000  0.4948160000000 1.0
C      1  0.5724190000000  0.4819160000000  0.4388110000000 1.0
C      1  0.4753070000000  0.4071330000000  0.4824190000000 1.0
C      1  0.5575150000000  0.5196290000000  0.5884130000000 1.0
C      1  0.4298570000000  0.5108610000000  0.4525590000000 1.0
C      1  0.5139110000000  0.5201170000000  0.4552340000000 1.0
C      1  0.4477530000000  0.5037540000000  0.4295780000000 1.0
C      1  0.4859500000000  0.4498440000000  0.4974020000000 1.0
C      1  0.5305570000000  0.5441670000000  0.5606930000000 1.0
C      1  0.4917900000000  0.5204810000000  0.4131230000000 1.0
C      1  0.4866350000000  0.5614000000000  0.4347220000000 1.0
C      1  0.4681650000000  0.4865170000000  0.5194230000000 1.0
C      1  0.4211690000000  0.4976310000000  0.5465430000000 1.0
C      1  0.5257140000000  0.4543350000000  0.4208090000000 1.0
C      1  0.5559230000000  0.4386040000000  0.5270240000000 1.0
C      1  0.4570520000000  0.5441380000000  0.5692070000000 1.0
C      1  0.4562060000000  0.5761350000000  0.4686270000000 1.0
C      1  0.5615840000000  0.4574410000000  0.4505510000000 1.0
C      1  0.5282350000000  0.4502260000000  0.5719410000000 1.0
C      1  0.5240510000000  0.4224830000000  0.4553650000000 1.0
C      1  0.4988800000000  0.4769230000000  0.4604300000000 1.0
C      1  0.5085220000000  0.5408300000000  0.4287260000000 1.0
C      1  0.5084720000000  0.5813020000000  0.4705550000000 1.0
C      1  0.4906260000000  0.4246530000000  0.5627700000000 1.0
C      1  0.4964590000000  0.4044070000000  0.5230870000000 1.0
C      1  0.4791040000000  0.5629110000000  0.5609370000000 1.0
C      1  0.5329590000000  0.4615190000000  0.4935210000000 1.0
C      1  0.4798990000000  0.4681970000000  0.5775690000000 1.0
C      1  0.5410810000000  0.4408290000000  0.4404270000000 1.0
C      1  0.4607560000000  0.4857020000000  0.4909820000000 1.0
C      1  0.4406120000000  0.4578780000000  0.4428060000000 1.0
C      1  0.4229810000000  0.5399880000000  0.4589120000000 1.0
C      1  0.5969850000000  0.5037840000000  0.5127180000000 1.0
C      1  0.4558560000000  0.5178400000000  0.5798220000000 1.0
C      1  0.5570450000000  0.4668740000000  0.4781510000000 1.0
C      1  0.4816230000000  0.4700310000000  0.4158040000000 1.0
C      1  0.5190360000000  0.4968730000000  0.5725490000000 1.0
C      1  0.4452430000000  0.4443430000000  0.5544040000000 1.0
C      1  0.5812370000000  0.4988150000000  0.5602220000000 1.0
C      1  0.5750700000000  0.5656940000000  0.4849370000000 1.0
C      1  0.5835340000000  0.5014940000000  0.4596030000000 1.0
C      1  0.5573310000000  0.4966210000000  0.4713200000000 1.0
C      1  0.4390940000000  0.5583310000000  0.5507600000000 1.0
C      1  0.4576930000000  0.4541810000000  0.4864100000000 1.0
C      1  0.4552670000000  0.4408510000000  0.4590770000000 1.0
C      1  0.5023200000000  0.5674190000000  0.4943040000000 1.0
C      1  0.4631930000000  0.5292130000000  0.4873870000000 1.0
C      1  0.5067930000000  0.4608560000000  0.4807980000000 1.0
C      1  0.5551290000000  0.4962460000000  0.4208430000000 1.0
C      1  0.4599580000000  0.5767150000000  0.5436810000000 1.0
C      1  0.5135190000000  0.4931250000000  0.4425110000000 1.0
C      1  0.4916930000000  0.5321440000000  0.5267310000000 1.0
C      1  0.5970320000000  0.5309440000000  0.5136380000000 1.0
C      1  0.5152630000000  0.5784830000000  0.5283060000000 1.0
C      1  0.4166640000000  0.5198460000000  0.5283960000000 1.0
C      1  0.4642370000000  0.4230010000000  0.5517170000000 1.0
C      1  0.5428400000000  0.5793720000000  0.5180870000000 1.0
C      1  0.4522190000000  0.4673690000000  0.5710060000000 1.0
C      1  0.4422830000000  0.5586400000000  0.4503210000000 1.0
C      1  0.4223990000000  0.5481340000000  0.5301740000000 1.0
C      1  0.4080120000000  0.4807240000000  0.5040120000000 1.0
C      1  0.5114960000000  0.4160500000000  0.5448880000000 1.0
C      1  0.4847550000000  0.4935220000000  0.4769900000000 1.0
C      1  0.4741010000000  0.4194910000000  0.4567350000000 1.0
C      1  0.4547930000000  0.4763600000000  0.4255030000000 1.0
C      1  0.5285070000000  0.4832460000000  0.4184900000000 1.0
C      1  0.4993370000000  0.4468030000000  0.5771960000000 1.0
C      1  0.5329620000000  0.5252680000000  0.4999520000000 1.0
C      1  0.5385680000000  0.5076920000000  0.5211660000000 1.0
C      1  0.4147290000000  0.4740410000000  0.5307330000000 1.0
C      1  0.5064180000000  0.5364900000000  0.5004560000000 1.0
C      1  0.4643430000000  0.5852540000000  0.5174370000000 1.0
END
