TITL C-105666-579-6 0.067447965486329 125000 -222.881642061866 0 0 34 (C1) n - 1
REM
REM in /rds/project/t2_vol4/rds-t2-cs072/BORA/CARBON/from-Arr/AIRSS/Generating-Clusters/GAP-ML-2020/Only-C1/SD-CG/HFTN-CG
REM
REM
REM
REM
REM
REM ./C.cell (11c1c37f851c82e70ff6c80c92926a4b)
REM AIRSS Version 0.9.1 bugfix July 2018 build 013d7b7c2542+ Fri, 06 Jul 2018 19:26:36 +0100
REM compiler GCC version 9.3.0
REM options -cpp -mtune=generic -march=x86-64 -g -O0
REM seed 254081144 -1017871296 -314501320 691894897 -1183356004 314989786 894445600 -1478015290 -1487646689 1893302320 745938116 1969051584 2130689416 -1188614306 763160670 2034890785 -2010812208 -933717899 -1809038774 313117929 -76276046 1617893874 81625979 -953760223 1060866333 -1229446991 -275266141 -1096285602 1245407536 -1729560475 -350923802 1170706458 -764877861
REM
CELL 1.54180   50.00000   50.00000   50.00000   90.00000   90.00000   90.00000
LATT -1
SFAC C  
C      1  0.5012770000000  0.4567130000000  0.4919180000000 1.0
C      1  0.4866850000000  0.5539610000000  0.5052720000000 1.0
C      1  0.5582520000000  0.4687890000000  0.4793710000000 1.0
C      1  0.4707950000000  0.4841070000000  0.4746170000000 1.0
C      1  0.5162600000000  0.4828420000000  0.5375520000000 1.0
C      1  0.4969490000000  0.5598370000000  0.4801870000000 1.0
C      1  0.5063990000000  0.5513680000000  0.5266680000000 1.0
C      1  0.5426790000000  0.5325120000000  0.5432240000000 1.0
C      1  0.5321480000000  0.5403060000000  0.5186490000000 1.0
C      1  0.5337740000000  0.4803320000000  0.4678190000000 1.0
C      1  0.5219100000000  0.4928660000000  0.5625160000000 1.0
C      1  0.4669690000000  0.5327190000000  0.5107620000000 1.0
C      1  0.5282960000000  0.5260600000000  0.4936490000000 1.0
C      1  0.5026150000000  0.5004650000000  0.4397070000000 1.0
C      1  0.4350930000000  0.4738300000000  0.4956420000000 1.0
C      1  0.5105570000000  0.4618870000000  0.4650410000000 1.0
C      1  0.4763190000000  0.4476150000000  0.5020280000000 1.0
C      1  0.4467490000000  0.5223130000000  0.4959730000000 1.0
C      1  0.5156110000000  0.5404870000000  0.4721210000000 1.0
C      1  0.4427430000000  0.4737420000000  0.5233000000000 1.0
C      1  0.4904410000000  0.4793360000000  0.4533140000000 1.0
C      1  0.5164330000000  0.5225570000000  0.4494720000000 1.0
C      1  0.5220340000000  0.5191010000000  0.5562420000000 1.0
C      1  0.4974340000000  0.5329590000000  0.5463890000000 1.0
C      1  0.5321130000000  0.4994500000000  0.4461520000000 1.0
C      1  0.4578900000000  0.4587860000000  0.4845190000000 1.0
C      1  0.4794280000000  0.5162480000000  0.5321310000000 1.0
C      1  0.5349990000000  0.4829390000000  0.5160190000000 1.0
C      1  0.4955860000000  0.4870280000000  0.4970240000000 1.0
C      1  0.5555030000000  0.4675040000000  0.5053440000000 1.0
C      1  0.4686350000000  0.4662030000000  0.5253440000000 1.0
C      1  0.4458830000000  0.4988990000000  0.4829790000000 1.0
C      1  0.5229790000000  0.4979200000000  0.4929260000000 1.0
C      1  0.4885610000000  0.4883180000000  0.5261300000000 1.0
END
