TITL C-107210-9581-6 -19.1337528048981 125000 -391.099223250082 0 0 58 (C1) n - 1
REM
REM in /rds/project/t2_vol4/rds-t2-cs072/BORA/CARBON/from-Arr/AIRSS/Generating-Clusters/GAP-ML-2020/Only-C1/SD-CG/HFTN-CG
REM
REM
REM
REM
REM
REM ./C.cell (11c1c37f851c82e70ff6c80c92926a4b)
REM AIRSS Version 0.9.1 bugfix July 2018 build 013d7b7c2542+ Fri, 06 Jul 2018 19:26:36 +0100
REM compiler GCC version 9.3.0
REM options -cpp -mtune=generic -march=x86-64 -g -O0
REM seed 1194890448 2129999071 -462299583 1327072091 2039629340 -1288016087 986830687 1792046038 1821970537 -289051278 -1926251483 -397924979 501358843 -1975542798 1021575373 1303897271 -1443534681 1326740819 -1403705304 -195427489 -1648452121 1636610992 173874654 -699588975 -1855370370 1804528104 -546226069 -516790192 1440444129 1181479902 -938362419 -571434258 895035014
REM
CELL 1.54180   50.00000   50.00000   50.00000   90.00000   90.00000   90.00000
LATT -1
SFAC C  
C      1  0.5255940000000  0.4735350000000  0.5659570000000 1.0
C      1  0.4836880000000  0.5409520000000  0.5353640000000 1.0
C      1  0.4563000000000  0.5302530000000  0.5358420000000 1.0
C      1  0.5085580000000  0.4427570000000  0.5258680000000 1.0
C      1  0.5398700000000  0.4883580000000  0.5466970000000 1.0
C      1  0.4647490000000  0.4683790000000  0.4694120000000 1.0
C      1  0.5308310000000  0.5637350000000  0.4516610000000 1.0
C      1  0.5547200000000  0.4833660000000  0.5231530000000 1.0
C      1  0.5129640000000  0.5616060000000  0.4735220000000 1.0
C      1  0.5297860000000  0.4596150000000  0.4582070000000 1.0
C      1  0.4346500000000  0.4854100000000  0.5353570000000 1.0
C      1  0.5116780000000  0.4468770000000  0.4758090000000 1.0
C      1  0.4896600000000  0.5627290000000  0.5154250000000 1.0
C      1  0.5400820000000  0.5596190000000  0.5084340000000 1.0
C      1  0.5090360000000  0.4650080000000  0.5442730000000 1.0
C      1  0.5278110000000  0.4912950000000  0.4930770000000 1.0
C      1  0.4487400000000  0.5069920000000  0.5496830000000 1.0
C      1  0.4242940000000  0.5129440000000  0.5025380000000 1.0
C      1  0.4736160000000  0.5606820000000  0.4909960000000 1.0
C      1  0.5025540000000  0.5266410000000  0.4347130000000 1.0
C      1  0.4450860000000  0.5298490000000  0.5090460000000 1.0
C      1  0.5633510000000  0.5051980000000  0.4652580000000 1.0
C      1  0.4791290000000  0.4938930000000  0.4620980000000 1.0
C      1  0.5239850000000  0.4448920000000  0.5021530000000 1.0
C      1  0.5554720000000  0.4632360000000  0.4734860000000 1.0
C      1  0.5014280000000  0.5175110000000  0.5320570000000 1.0
C      1  0.5299690000000  0.5142150000000  0.5366850000000 1.0
C      1  0.5084100000000  0.4825910000000  0.5856910000000 1.0
C      1  0.5230730000000  0.4841970000000  0.4468240000000 1.0
C      1  0.5274280000000  0.5407260000000  0.4343100000000 1.0
C      1  0.5635680000000  0.5326860000000  0.4706660000000 1.0
C      1  0.4293930000000  0.4866590000000  0.5071080000000 1.0
C      1  0.5515230000000  0.5466320000000  0.4486460000000 1.0
C      1  0.4901930000000  0.4882800000000  0.5382020000000 1.0
C      1  0.5150050000000  0.5676630000000  0.5036220000000 1.0
C      1  0.4562960000000  0.4431360000000  0.5325310000000 1.0
C      1  0.4682220000000  0.4869330000000  0.5610420000000 1.0
C      1  0.4975010000000  0.5202890000000  0.4992330000000 1.0
C      1  0.4811500000000  0.5400400000000  0.4477000000000 1.0
C      1  0.4862070000000  0.5625250000000  0.4657100000000 1.0
C      1  0.4429190000000  0.4661900000000  0.4896960000000 1.0
C      1  0.5196030000000  0.5299560000000  0.4802530000000 1.0
C      1  0.5741040000000  0.4808790000000  0.4640990000000 1.0
C      1  0.5449490000000  0.4651560000000  0.5005870000000 1.0
C      1  0.4959650000000  0.4923300000000  0.4924060000000 1.0
C      1  0.4826150000000  0.4317150000000  0.5226960000000 1.0
C      1  0.4797480000000  0.4798650000000  0.5130030000000 1.0
C      1  0.5443480000000  0.5099270000000  0.5113600000000 1.0
C      1  0.4474660000000  0.4430620000000  0.5047460000000 1.0
C      1  0.4996720000000  0.4978830000000  0.4413090000000 1.0
C      1  0.4668310000000  0.5329790000000  0.4902870000000 1.0
C      1  0.4830410000000  0.4461180000000  0.4751130000000 1.0
C      1  0.5471060000000  0.5353990000000  0.4955840000000 1.0
C      1  0.4722970000000  0.4310360000000  0.4960100000000 1.0
C      1  0.4828220000000  0.4863340000000  0.5861990000000 1.0
C      1  0.4679720000000  0.5210080000000  0.4633160000000 1.0
C      1  0.5332890000000  0.5036400000000  0.4670690000000 1.0
C      1  0.4496830000000  0.4646160000000  0.5482090000000 1.0
END
