TITL C-105670-495-1 0.0845648069673715 125000 -771.94791714351 0 0 110 (C1) n - 1
REM
REM in /rds/project/t2_vol4/rds-t2-cs072/BORA/CARBON/from-Arr/AIRSS/Generating-Clusters/GAP-ML-2020/Only-C1/SD-CG/HFTN-CG
REM
REM
REM
REM
REM
REM ./C.cell (11c1c37f851c82e70ff6c80c92926a4b)
REM AIRSS Version 0.9.1 bugfix July 2018 build 013d7b7c2542+ Fri, 06 Jul 2018 19:26:36 +0100
REM compiler GCC version 9.3.0
REM options -cpp -mtune=generic -march=x86-64 -g -O0
REM seed -659770210 -401722202 -1602638383 1451927240 1276973164 -388496838 -1522750468 -609064763 -266267595 515321061 1336311336 739480492 -750279972 -1816407909 -618395293 1172246076 -1022158857 1929438773 898596047 1407193142 1877173514 1594738147 -934378754 190693019 -1325896847 340279978 -65736700 834014174 -1855635858 1771168867 -1555543435 -393402595 -2142200949
REM
CELL 1.54180   50.00000   50.00000   50.00000   90.00000   90.00000   90.00000
LATT -1
SFAC C  
C      1  0.4269380000000  0.4535550000000  0.5070330000000 1.0
C      1  0.4897280000000  0.4923810000000  0.5271510000000 1.0
C      1  0.4971520000000  0.4165420000000  0.4954250000000 1.0
C      1  0.4381370000000  0.5563230000000  0.4646140000000 1.0
C      1  0.4959790000000  0.5823160000000  0.5351400000000 1.0
C      1  0.4886740000000  0.5211460000000  0.5311240000000 1.0
C      1  0.4397770000000  0.4503900000000  0.5652390000000 1.0
C      1  0.5251480000000  0.4223710000000  0.4439250000000 1.0
C      1  0.5268690000000  0.5479340000000  0.4400240000000 1.0
C      1  0.5236270000000  0.5009160000000  0.4456100000000 1.0
C      1  0.5624150000000  0.4920210000000  0.5605000000000 1.0
C      1  0.4027670000000  0.4899710000000  0.5156150000000 1.0
C      1  0.5135950000000  0.4571060000000  0.4611590000000 1.0
C      1  0.5697760000000  0.4610200000000  0.5213020000000 1.0
C      1  0.5384140000000  0.4939150000000  0.5769550000000 1.0
C      1  0.5477510000000  0.5410550000000  0.4588630000000 1.0
C      1  0.5023610000000  0.5606630000000  0.4419600000000 1.0
C      1  0.4573580000000  0.5036140000000  0.5768670000000 1.0
C      1  0.5511090000000  0.4721790000000  0.4993380000000 1.0
C      1  0.4274240000000  0.4721170000000  0.5538370000000 1.0
C      1  0.4404880000000  0.4794860000000  0.4413970000000 1.0
C      1  0.4381270000000  0.4562320000000  0.4615720000000 1.0
C      1  0.4882650000000  0.4201770000000  0.5222340000000 1.0
C      1  0.4175460000000  0.4606440000000  0.4812790000000 1.0
C      1  0.5144370000000  0.5660990000000  0.5188950000000 1.0
C      1  0.5982290000000  0.5549520000000  0.5413530000000 1.0
C      1  0.5425480000000  0.4236770000000  0.5163430000000 1.0
C      1  0.5731000000000  0.4725500000000  0.4369990000000 1.0
C      1  0.5223350000000  0.4726970000000  0.5036540000000 1.0
C      1  0.5329420000000  0.5172720000000  0.5174320000000 1.0
C      1  0.5155470000000  0.5374580000000  0.5344860000000 1.0
C      1  0.4954720000000  0.5155840000000  0.5835380000000 1.0
C      1  0.5886030000000  0.5302210000000  0.4750510000000 1.0
C      1  0.5650980000000  0.5688280000000  0.4980700000000 1.0
C      1  0.4082870000000  0.4866780000000  0.4874340000000 1.0
C      1  0.4698710000000  0.5295790000000  0.5765810000000 1.0
C      1  0.4983870000000  0.4964970000000  0.4626430000000 1.0
C      1  0.4826350000000  0.4896150000000  0.5831880000000 1.0
C      1  0.5250020000000  0.4201130000000  0.4939940000000 1.0
C      1  0.4979660000000  0.5341620000000  0.4879160000000 1.0
C      1  0.4075770000000  0.5370660000000  0.5071530000000 1.0
C      1  0.5230720000000  0.4723250000000  0.4352630000000 1.0
C      1  0.4826310000000  0.4953470000000  0.4144490000000 1.0
C      1  0.4956240000000  0.4200850000000  0.4455920000000 1.0
C      1  0.4849750000000  0.5819170000000  0.4817500000000 1.0
C      1  0.4802970000000  0.4281540000000  0.4242440000000 1.0
C      1  0.5725970000000  0.4689210000000  0.4650200000000 1.0
C      1  0.4339670000000  0.4987890000000  0.5620950000000 1.0
C      1  0.5228270000000  0.5185850000000  0.5784570000000 1.0
C      1  0.4617480000000  0.5063860000000  0.4910330000000 1.0
C      1  0.4622860000000  0.5838820000000  0.4990040000000 1.0
C      1  0.5027540000000  0.5627320000000  0.4926680000000 1.0
C      1  0.5886800000000  0.4967370000000  0.4338630000000 1.0
C      1  0.4829650000000  0.5776380000000  0.4540360000000 1.0
C      1  0.4905590000000  0.5216660000000  0.4189360000000 1.0
C      1  0.4562610000000  0.4506720000000  0.5039780000000 1.0
C      1  0.4154000000000  0.4685390000000  0.5281310000000 1.0
C      1  0.5562950000000  0.5742600000000  0.5391780000000 1.0
C      1  0.4309110000000  0.5041690000000  0.4808870000000 1.0
C      1  0.5421380000000  0.4505630000000  0.5594260000000 1.0
C      1  0.4639810000000  0.4326880000000  0.5258650000000 1.0
C      1  0.4228790000000  0.5329440000000  0.4565390000000 1.0
C      1  0.4696760000000  0.5865460000000  0.5262540000000 1.0
C      1  0.4749880000000  0.4800750000000  0.5015380000000 1.0
C      1  0.5408760000000  0.4337080000000  0.4238520000000 1.0
C      1  0.5337630000000  0.4339480000000  0.4703780000000 1.0
C      1  0.4605360000000  0.4774870000000  0.4216150000000 1.0
C      1  0.4818370000000  0.4228460000000  0.4715760000000 1.0
C      1  0.4615860000000  0.4400090000000  0.5536370000000 1.0
C      1  0.4604840000000  0.5599300000000  0.4482000000000 1.0
C      1  0.5638430000000  0.4657350000000  0.5488670000000 1.0
C      1  0.5419350000000  0.5124130000000  0.4672110000000 1.0
C      1  0.5177450000000  0.4902670000000  0.5242920000000 1.0
C      1  0.4231560000000  0.5207080000000  0.5473690000000 1.0
C      1  0.5041350000000  0.4275180000000  0.5449640000000 1.0
C      1  0.4816470000000  0.5187700000000  0.4673190000000 1.0
C      1  0.5184490000000  0.5231500000000  0.4265160000000 1.0
C      1  0.5259110000000  0.4680480000000  0.5763730000000 1.0
C      1  0.5016430000000  0.4755590000000  0.4825890000000 1.0
C      1  0.4747110000000  0.5727570000000  0.5504290000000 1.0
C      1  0.5318550000000  0.4296660000000  0.5425960000000 1.0
C      1  0.4782890000000  0.4541920000000  0.4191880000000 1.0
C      1  0.4052210000000  0.5157320000000  0.5260780000000 1.0
C      1  0.5908670000000  0.5149230000000  0.4517460000000 1.0
C      1  0.5418060000000  0.5767240000000  0.5146250000000 1.0
C      1  0.5495670000000  0.4597120000000  0.4250550000000 1.0
C      1  0.5795080000000  0.5122820000000  0.4960300000000 1.0
C      1  0.4583430000000  0.4396490000000  0.4755060000000 1.0
C      1  0.4786530000000  0.5375270000000  0.4409870000000 1.0
C      1  0.4974910000000  0.4651730000000  0.5785720000000 1.0
C      1  0.5531790000000  0.5553710000000  0.5598210000000 1.0
C      1  0.4268270000000  0.5556100000000  0.5161790000000 1.0
C      1  0.4753940000000  0.5269770000000  0.5075930000000 1.0
C      1  0.5635880000000  0.4925240000000  0.4811760000000 1.0
C      1  0.4591580000000  0.5514300000000  0.5601900000000 1.0
C      1  0.5808810000000  0.5660530000000  0.5235070000000 1.0
C      1  0.5589960000000  0.4473030000000  0.4795660000000 1.0
C      1  0.4317150000000  0.5046720000000  0.4510300000000 1.0
C      1  0.5008550000000  0.4728570000000  0.4156790000000 1.0
C      1  0.4361390000000  0.5456690000000  0.5430420000000 1.0
C      1  0.4883770000000  0.4428010000000  0.5631800000000 1.0
C      1  0.5737920000000  0.5141050000000  0.5472790000000 1.0
C      1  0.5791430000000  0.5402630000000  0.5573230000000 1.0
C      1  0.5248360000000  0.5219720000000  0.4904080000000 1.0
C      1  0.4396630000000  0.5680190000000  0.4927760000000 1.0
C      1  0.5690710000000  0.5526020000000  0.4746380000000 1.0
C      1  0.5285030000000  0.5409670000000  0.5615430000000 1.0
C      1  0.5644890000000  0.5176050000000  0.5200250000000 1.0
C      1  0.5663130000000  0.4366870000000  0.5069520000000 1.0
C      1  0.4102510000000  0.5273400000000  0.4814240000000 1.0
END
