TITL C-105727-8496-5 0.280840573500283 125000 -478.447561149546 0 0 70 (C1) n - 1
REM
REM in /rds/project/t2_vol4/rds-t2-cs072/BORA/CARBON/from-Arr/AIRSS/Generating-Clusters/GAP-ML-2020/Only-C1/SD-CG/HFTN-CG
REM
REM
REM
REM
REM
REM ./C.cell (11c1c37f851c82e70ff6c80c92926a4b)
REM AIRSS Version 0.9.1 bugfix July 2018 build 013d7b7c2542+ Fri, 06 Jul 2018 19:26:36 +0100
REM compiler GCC version 9.3.0
REM options -cpp -mtune=generic -march=x86-64 -g -O0
REM seed 2012836576 -88291894 -1639641631 -2132869338 -1648421344 -61503283 -1906125337 -623626042 533285968 -758665745 -196414806 -106030396 -1929122647 568914198 444260864 1669737706 -2058474071 -1423391245 1690580072 1705950725 -52142387 1269778018 -1743111369 840979706 436052967 1817675444 714552998 -1040732940 2125065501 -1679792350 2009338090 1772790896 -776259639
REM
CELL 1.54180   50.00000   50.00000   50.00000   90.00000   90.00000   90.00000
LATT -1
SFAC C  
C      1  0.4713040000000  0.4996600000000  0.5516070000000 1.0
C      1  0.4966150000000  0.4766660000000  0.4769100000000 1.0
C      1  0.5034510000000  0.4802260000000  0.5047040000000 1.0
C      1  0.5042680000000  0.5616490000000  0.5293110000000 1.0
C      1  0.5578310000000  0.5119520000000  0.4367730000000 1.0
C      1  0.4309580000000  0.5045310000000  0.5269880000000 1.0
C      1  0.4699720000000  0.4335020000000  0.4666590000000 1.0
C      1  0.5148400000000  0.5132790000000  0.5296300000000 1.0
C      1  0.5081960000000  0.4427160000000  0.5373690000000 1.0
C      1  0.4843860000000  0.4767790000000  0.5611580000000 1.0
C      1  0.5086650000000  0.5196530000000  0.5718270000000 1.0
C      1  0.4833110000000  0.5344430000000  0.5683120000000 1.0
C      1  0.4793930000000  0.5190960000000  0.5003760000000 1.0
C      1  0.4772440000000  0.5207780000000  0.4444160000000 1.0
C      1  0.4814650000000  0.4539510000000  0.5443170000000 1.0
C      1  0.4818310000000  0.5470320000000  0.5416460000000 1.0
C      1  0.4761700000000  0.4215730000000  0.4941910000000 1.0
C      1  0.5193610000000  0.4331490000000  0.5114100000000 1.0
C      1  0.5415200000000  0.5318220000000  0.4341470000000 1.0
C      1  0.5743360000000  0.5423720000000  0.5062710000000 1.0
C      1  0.4560200000000  0.4539180000000  0.5281060000000 1.0
C      1  0.4962940000000  0.5742310000000  0.5055300000000 1.0
C      1  0.5097840000000  0.5767950000000  0.4799090000000 1.0
C      1  0.5673980000000  0.4814280000000  0.4804730000000 1.0
C      1  0.4343430000000  0.4683310000000  0.4711610000000 1.0
C      1  0.5480140000000  0.4987790000000  0.5520280000000 1.0
C      1  0.4254140000000  0.5084290000000  0.4985050000000 1.0
C      1  0.4414090000000  0.5249690000000  0.5438980000000 1.0
C      1  0.4361250000000  0.4753390000000  0.5225710000000 1.0
C      1  0.5628260000000  0.4845850000000  0.5302720000000 1.0
C      1  0.4710170000000  0.5671050000000  0.4910200000000 1.0
C      1  0.5223140000000  0.5473520000000  0.4455720000000 1.0
C      1  0.5310940000000  0.5620700000000  0.4693600000000 1.0
C      1  0.4558930000000  0.5441780000000  0.4994610000000 1.0
C      1  0.4586800000000  0.5190560000000  0.5671560000000 1.0
C      1  0.4916370000000  0.4728100000000  0.4297170000000 1.0
C      1  0.5031960000000  0.4266130000000  0.4897230000000 1.0
C      1  0.4520430000000  0.5137720000000  0.4567090000000 1.0
C      1  0.5494070000000  0.4594130000000  0.4808440000000 1.0
C      1  0.4967660000000  0.4996620000000  0.4385380000000 1.0
C      1  0.5240940000000  0.4992570000000  0.5069070000000 1.0
C      1  0.5525070000000  0.4584250000000  0.5291030000000 1.0
C      1  0.4464540000000  0.4443650000000  0.4782500000000 1.0
C      1  0.5066320000000  0.4900690000000  0.5725260000000 1.0
C      1  0.4463250000000  0.4854980000000  0.4505970000000 1.0
C      1  0.4999520000000  0.5296450000000  0.4832090000000 1.0
C      1  0.4534030000000  0.5461280000000  0.5295280000000 1.0
C      1  0.5596710000000  0.4893300000000  0.4527910000000 1.0
C      1  0.4398010000000  0.5260980000000  0.4813730000000 1.0
C      1  0.5418170000000  0.5411060000000  0.4850970000000 1.0
C      1  0.5483660000000  0.5491440000000  0.5115150000000 1.0
C      1  0.5352450000000  0.4705290000000  0.4548770000000 1.0
C      1  0.5240740000000  0.5148920000000  0.4824470000000 1.0
C      1  0.5763230000000  0.4948980000000  0.5054270000000 1.0
C      1  0.4853130000000  0.5682150000000  0.4661690000000 1.0
C      1  0.5887070000000  0.5204510000000  0.5059300000000 1.0
C      1  0.4869630000000  0.5183520000000  0.5288850000000 1.0
C      1  0.4653780000000  0.4734660000000  0.4346370000000 1.0
C      1  0.4934050000000  0.5431410000000  0.4535350000000 1.0
C      1  0.4787530000000  0.4904620000000  0.4952770000000 1.0
C      1  0.5294690000000  0.5478150000000  0.5331610000000 1.0
C      1  0.5313460000000  0.4554310000000  0.5487510000000 1.0
C      1  0.5306470000000  0.5240910000000  0.5528440000000 1.0
C      1  0.4976440000000  0.4459400000000  0.4660110000000 1.0
C      1  0.5117970000000  0.4551750000000  0.4420340000000 1.0
C      1  0.5442510000000  0.4456560000000  0.5049690000000 1.0
C      1  0.4542740000000  0.4362420000000  0.5054560000000 1.0
C      1  0.4258640000000  0.4798780000000  0.4948200000000 1.0
C      1  0.5154500000000  0.4935470000000  0.4611390000000 1.0
C      1  0.5312840000000  0.4790930000000  0.5641580000000 1.0
END
