TITL C-102215-7071-4 -0.174987354988194 125000 -718.728042199131 0 0 104 (C1) n - 1
REM
REM in /rds/project/t2_vol4/rds-t2-cs072/BORA/CARBON/from-Arr/AIRSS/Generating-Clusters/GAP-ML-2020/Only-C1/SD-CG/HFTN-CG
REM
REM
REM
REM
REM
REM ./C.cell (11c1c37f851c82e70ff6c80c92926a4b)
REM AIRSS Version 0.9.1 bugfix July 2018 build 013d7b7c2542+ Fri, 06 Jul 2018 19:26:36 +0100
REM compiler GCC version 9.3.0
REM options -cpp -mtune=generic -march=x86-64 -g -O0
REM seed -416786285 -486933976 -42670023 -199304024 -1289380505 -1772919525 1728014192 2017153770 -346810170 710777617 -1820614392 1368874263 1889892349 1791052693 114342577 -155509019 1031214707 -1249984432 2066575787 456367815 192375026 177506595 349768626 -1372324449 1490898801 960250900 753031108 -25876072 791851784 1172307900 -156888910 -479016576 1840308881
REM
CELL 1.54180   50.00000   50.00000   50.00000   90.00000   90.00000   90.00000
LATT -1
SFAC C  
C      1  0.5659730000000  0.4483510000000  0.5542490000000 1.0
C      1  0.5403290000000  0.5175160000000  0.4905360000000 1.0
C      1  0.4666080000000  0.5830520000000  0.4885350000000 1.0
C      1  0.4972160000000  0.5324210000000  0.4200850000000 1.0
C      1  0.4951480000000  0.5045930000000  0.4757320000000 1.0
C      1  0.5894630000000  0.4692910000000  0.5203100000000 1.0
C      1  0.5473310000000  0.5044270000000  0.5152530000000 1.0
C      1  0.4839540000000  0.5074970000000  0.4153190000000 1.0
C      1  0.4792950000000  0.5067550000000  0.5695100000000 1.0
C      1  0.4554920000000  0.5511050000000  0.5519940000000 1.0
C      1  0.5205800000000  0.5326110000000  0.4368180000000 1.0
C      1  0.4347970000000  0.5348920000000  0.5365140000000 1.0
C      1  0.5662050000000  0.5415150000000  0.5359020000000 1.0
C      1  0.4842440000000  0.4683900000000  0.5045680000000 1.0
C      1  0.4226510000000  0.5299590000000  0.4912510000000 1.0
C      1  0.5085130000000  0.4276930000000  0.5195530000000 1.0
C      1  0.5554070000000  0.5418820000000  0.5613140000000 1.0
C      1  0.4743250000000  0.5320680000000  0.5142790000000 1.0
C      1  0.5465070000000  0.5472350000000  0.4380350000000 1.0
C      1  0.4315890000000  0.4580980000000  0.4983690000000 1.0
C      1  0.5671330000000  0.5277860000000  0.4788760000000 1.0
C      1  0.5286560000000  0.4990260000000  0.4704050000000 1.0
C      1  0.4786280000000  0.4810320000000  0.4802370000000 1.0
C      1  0.5075670000000  0.4500980000000  0.4988360000000 1.0
C      1  0.4816810000000  0.4160330000000  0.5110500000000 1.0
C      1  0.5600240000000  0.4230030000000  0.5159910000000 1.0
C      1  0.5158370000000  0.4771370000000  0.5373420000000 1.0
C      1  0.5776450000000  0.4436030000000  0.5282830000000 1.0
C      1  0.5275820000000  0.5042020000000  0.5805810000000 1.0
C      1  0.4349590000000  0.4531710000000  0.4712320000000 1.0
C      1  0.5025950000000  0.4644800000000  0.5829070000000 1.0
C      1  0.4687350000000  0.4957400000000  0.5428470000000 1.0
C      1  0.4883620000000  0.4471030000000  0.5648040000000 1.0
C      1  0.5385390000000  0.4375640000000  0.5579670000000 1.0
C      1  0.5837020000000  0.4888900000000  0.5405610000000 1.0
C      1  0.5314100000000  0.4583920000000  0.4471810000000 1.0
C      1  0.4201390000000  0.4814940000000  0.5088570000000 1.0
C      1  0.4502420000000  0.4702390000000  0.5422050000000 1.0
C      1  0.4824580000000  0.5536840000000  0.4297850000000 1.0
C      1  0.4558830000000  0.4566400000000  0.5150110000000 1.0
C      1  0.4535770000000  0.5151150000000  0.5238470000000 1.0
C      1  0.4553150000000  0.5044860000000  0.4185520000000 1.0
C      1  0.5096540000000  0.4462330000000  0.5446430000000 1.0
C      1  0.4363820000000  0.5046370000000  0.4999900000000 1.0
C      1  0.4609260000000  0.5539620000000  0.5781700000000 1.0
C      1  0.4142660000000  0.5176450000000  0.5472630000000 1.0
C      1  0.5597250000000  0.5248150000000  0.4490900000000 1.0
C      1  0.4743430000000  0.5573480000000  0.5293620000000 1.0
C      1  0.4052840000000  0.4945900000000  0.5547600000000 1.0
C      1  0.5548150000000  0.5582270000000  0.5153080000000 1.0
C      1  0.5169570000000  0.5753910000000  0.4625160000000 1.0
C      1  0.5449140000000  0.5730790000000  0.4512470000000 1.0
C      1  0.5853400000000  0.5110400000000  0.4969000000000 1.0
C      1  0.4612980000000  0.5471970000000  0.4502670000000 1.0
C      1  0.5008220000000  0.4928950000000  0.5821630000000 1.0
C      1  0.4147620000000  0.4991710000000  0.4581040000000 1.0
C      1  0.5656570000000  0.5764520000000  0.4693250000000 1.0
C      1  0.4709140000000  0.5183930000000  0.4627180000000 1.0
C      1  0.4175660000000  0.5264830000000  0.4632100000000 1.0
C      1  0.4316690000000  0.5498520000000  0.5096400000000 1.0
C      1  0.5229100000000  0.4798590000000  0.4306700000000 1.0
C      1  0.5360650000000  0.4203420000000  0.5318340000000 1.0
C      1  0.4973220000000  0.5172880000000  0.5044570000000 1.0
C      1  0.4818860000000  0.5355860000000  0.5720990000000 1.0
C      1  0.4532750000000  0.4971620000000  0.4753160000000 1.0
C      1  0.5234410000000  0.5623410000000  0.5124700000000 1.0
C      1  0.5235890000000  0.4307380000000  0.4526760000000 1.0
C      1  0.5569190000000  0.4147240000000  0.4890960000000 1.0
C      1  0.4745210000000  0.4394220000000  0.4441160000000 1.0
C      1  0.5319580000000  0.4637820000000  0.4966210000000 1.0
C      1  0.4559650000000  0.4349000000000  0.4665370000000 1.0
C      1  0.5182180000000  0.5371030000000  0.4937370000000 1.0
C      1  0.5346040000000  0.5065910000000  0.4425490000000 1.0
C      1  0.4958700000000  0.4818540000000  0.4207190000000 1.0
C      1  0.4769760000000  0.4201610000000  0.4817390000000 1.0
C      1  0.5696560000000  0.4756210000000  0.5624670000000 1.0
C      1  0.4692210000000  0.5741100000000  0.4621580000000 1.0
C      1  0.5431940000000  0.4181230000000  0.4683560000000 1.0
C      1  0.4220430000000  0.4795170000000  0.5385280000000 1.0
C      1  0.5883180000000  0.4825320000000  0.4937820000000 1.0
C      1  0.5440640000000  0.4716650000000  0.4711150000000 1.0
C      1  0.5462680000000  0.4814680000000  0.5789610000000 1.0
C      1  0.4951150000000  0.4246770000000  0.4574600000000 1.0
C      1  0.4502510000000  0.4786490000000  0.4299530000000 1.0
C      1  0.4626770000000  0.4304780000000  0.5267520000000 1.0
C      1  0.5670540000000  0.5567850000000  0.4886120000000 1.0
C      1  0.4366470000000  0.5241470000000  0.4183860000000 1.0
C      1  0.4738110000000  0.4633250000000  0.4282330000000 1.0
C      1  0.5130480000000  0.5462730000000  0.4652400000000 1.0
C      1  0.5312230000000  0.5314750000000  0.5699510000000 1.0
C      1  0.5727830000000  0.4718610000000  0.4744030000000 1.0
C      1  0.4903300000000  0.5969340000000  0.4971970000000 1.0
C      1  0.5364970000000  0.4793500000000  0.5190640000000 1.0
C      1  0.5040660000000  0.5599450000000  0.5363740000000 1.0
C      1  0.4927030000000  0.5760560000000  0.4460530000000 1.0
C      1  0.4548320000000  0.5664960000000  0.5087090000000 1.0
C      1  0.5132510000000  0.5836300000000  0.4926430000000 1.0
C      1  0.5748610000000  0.5137230000000  0.5251780000000 1.0
C      1  0.5307750000000  0.4578900000000  0.5807690000000 1.0
C      1  0.4629940000000  0.4444000000000  0.5525360000000 1.0
C      1  0.4934750000000  0.4906340000000  0.5244260000000 1.0
C      1  0.5070930000000  0.5450070000000  0.5602720000000 1.0
C      1  0.4349360000000  0.4792100000000  0.4556190000000 1.0
C      1  0.4337110000000  0.5384930000000  0.4420050000000 1.0
END
