TITL C-105651-488-10 -0.11399993212581 125000 -357.658434272721 0 0 54 (C1) n - 1
REM
REM in /rds/project/t2_vol4/rds-t2-cs072/BORA/CARBON/from-Arr/AIRSS/Generating-Clusters/GAP-ML-2020/Only-C1/SD-CG/HFTN-CG
REM
REM
REM
REM
REM
REM ./C.cell (11c1c37f851c82e70ff6c80c92926a4b)
REM AIRSS Version 0.9.1 bugfix July 2018 build 013d7b7c2542+ Fri, 06 Jul 2018 19:26:36 +0100
REM compiler GCC version 9.3.0
REM options -cpp -mtune=generic -march=x86-64 -g -O0
REM seed 1995337527 -1121160739 -1463545888 -1738169462 1718247219 555162871 -891849414 -1768328260 -1459792049 -1546526351 1013482342 270856670 -376187840 216807255 452372607 -1007264776 -1319132157 -2070325502 1169291885 -1638219047 -2067478729 -966021630 1076430131 706646263 -737684616 -646771955 1119346217 1255499442 -982388492 -1293820322 -936890699 -141667755 -1641686679
REM
CELL 1.54180   50.00000   50.00000   50.00000   90.00000   90.00000   90.00000
LATT -1
SFAC C  
C      1  0.4777140000000  0.4645790000000  0.4634370000000 1.0
C      1  0.5518410000000  0.5501500000000  0.4933180000000 1.0
C      1  0.4463460000000  0.4917670000000  0.4828280000000 1.0
C      1  0.5252590000000  0.4872160000000  0.4316860000000 1.0
C      1  0.4300710000000  0.4987560000000  0.5314910000000 1.0
C      1  0.4891310000000  0.4502390000000  0.5526800000000 1.0
C      1  0.5053310000000  0.4345180000000  0.4827840000000 1.0
C      1  0.5036860000000  0.5419000000000  0.5517560000000 1.0
C      1  0.5283230000000  0.4486630000000  0.4918630000000 1.0
C      1  0.4866870000000  0.4816540000000  0.5098450000000 1.0
C      1  0.4894450000000  0.4768830000000  0.5586990000000 1.0
C      1  0.4717730000000  0.5013850000000  0.5628740000000 1.0
C      1  0.5047710000000  0.4676640000000  0.4321990000000 1.0
C      1  0.5544110000000  0.5073710000000  0.4616720000000 1.0
C      1  0.4711930000000  0.5542480000000  0.5243360000000 1.0
C      1  0.4505390000000  0.5362850000000  0.5330160000000 1.0
C      1  0.5100360000000  0.5502520000000  0.4944410000000 1.0
C      1  0.5114280000000  0.4967520000000  0.5556230000000 1.0
C      1  0.4803690000000  0.4808920000000  0.4379690000000 1.0
C      1  0.5320550000000  0.5526310000000  0.5144570000000 1.0
C      1  0.4875430000000  0.5624640000000  0.5448030000000 1.0
C      1  0.5337660000000  0.4591470000000  0.4654630000000 1.0
C      1  0.4249620000000  0.4752020000000  0.5184640000000 1.0
C      1  0.5703190000000  0.5144980000000  0.4852690000000 1.0
C      1  0.4390920000000  0.4670290000000  0.4962600000000 1.0
C      1  0.4846530000000  0.4369970000000  0.5019750000000 1.0
C      1  0.4615430000000  0.4482270000000  0.4882540000000 1.0
C      1  0.4869210000000  0.5132440000000  0.4856580000000 1.0
C      1  0.4495340000000  0.5117780000000  0.5497950000000 1.0
C      1  0.5146730000000  0.5197820000000  0.4863150000000 1.0
C      1  0.5578740000000  0.4987730000000  0.5048570000000 1.0
C      1  0.5577820000000  0.4881380000000  0.5330210000000 1.0
C      1  0.5448860000000  0.4818970000000  0.4527440000000 1.0
C      1  0.4749530000000  0.4864020000000  0.4818410000000 1.0
C      1  0.4807590000000  0.5543260000000  0.4972350000000 1.0
C      1  0.4330290000000  0.5238420000000  0.5143350000000 1.0
C      1  0.4719340000000  0.5292520000000  0.4515270000000 1.0
C      1  0.4418930000000  0.5195340000000  0.4890670000000 1.0
C      1  0.4947610000000  0.5182630000000  0.5641940000000 1.0
C      1  0.5288820000000  0.5015650000000  0.5054720000000 1.0
C      1  0.4982500000000  0.4408130000000  0.5290580000000 1.0
C      1  0.5309500000000  0.5079780000000  0.5364960000000 1.0
C      1  0.5049770000000  0.4510880000000  0.4574380000000 1.0
C      1  0.5276360000000  0.5366520000000  0.5376710000000 1.0
C      1  0.4666310000000  0.5344910000000  0.4791120000000 1.0
C      1  0.5143200000000  0.4770260000000  0.5070670000000 1.0
C      1  0.5310970000000  0.5511280000000  0.4730290000000 1.0
C      1  0.4850510000000  0.5105750000000  0.4371280000000 1.0
C      1  0.5771800000000  0.5415380000000  0.4894120000000 1.0
C      1  0.5303140000000  0.5245640000000  0.4594760000000 1.0
C      1  0.5145070000000  0.5132840000000  0.4363280000000 1.0
C      1  0.5490020000000  0.4629380000000  0.5360480000000 1.0
C      1  0.4844380000000  0.5092860000000  0.5163100000000 1.0
C      1  0.5254790000000  0.4544750000000  0.5219060000000 1.0
END
