TITL C-101234-5700-6 0.0206123861660588 125000 -613.36186854033 0 0 89 (C1) n - 1
REM
REM in /rds/project/t2_vol4/rds-t2-cs072/BORA/CARBON/from-Arr/AIRSS/Generating-Clusters/GAP-ML-2020/Only-C1/SD-CG/HFTN-CG
REM
REM
REM
REM
REM
REM ./C.cell (11c1c37f851c82e70ff6c80c92926a4b)
REM AIRSS Version 0.9.1 bugfix July 2018 build 013d7b7c2542+ Fri, 06 Jul 2018 19:26:36 +0100
REM compiler GCC version 9.3.0
REM options -cpp -mtune=generic -march=x86-64 -g -O0
REM seed -1257904303 774085009 34788380 -2044257690 -967906990 -1103075600 -100994552 -509630458 1455905056 203878667 -1622036885 1929761531 1153813329 1400257930 -2108638266 -42028525 -814325589 1148582930 -1137886127 -1760790515 -2043692157 -1911897038 51364404 619944159 -230521911 -1925960474 2122481372 -1173449775 1685422978 428772787 -22581228 -779828622 -1150332926
REM
CELL 1.54180   50.00000   50.00000   50.00000   90.00000   90.00000   90.00000
LATT -1
SFAC C  
C      1  0.4090680000000  0.4661130000000  0.4762410000000 1.0
C      1  0.4670620000000  0.4706760000000  0.5185820000000 1.0
C      1  0.5280090000000  0.4266840000000  0.5195560000000 1.0
C      1  0.4468960000000  0.4849680000000  0.5022520000000 1.0
C      1  0.4808920000000  0.4328590000000  0.5397300000000 1.0
C      1  0.4610100000000  0.4259430000000  0.4854690000000 1.0
C      1  0.4806720000000  0.4743750000000  0.4711910000000 1.0
C      1  0.4503570000000  0.4892370000000  0.4125920000000 1.0
C      1  0.4855970000000  0.5154390000000  0.4963850000000 1.0
C      1  0.5098410000000  0.5031760000000  0.4407180000000 1.0
C      1  0.5334170000000  0.5372860000000  0.5395290000000 1.0
C      1  0.5704470000000  0.4834110000000  0.4998870000000 1.0
C      1  0.4937490000000  0.5472730000000  0.5578740000000 1.0
C      1  0.4984680000000  0.4235540000000  0.5207660000000 1.0
C      1  0.4484250000000  0.5179430000000  0.4680040000000 1.0
C      1  0.4720780000000  0.5112030000000  0.4093740000000 1.0
C      1  0.4994460000000  0.5315940000000  0.4492420000000 1.0
C      1  0.4685690000000  0.5365160000000  0.4508680000000 1.0
C      1  0.4667080000000  0.5596810000000  0.5199350000000 1.0
C      1  0.5736570000000  0.5154380000000  0.5301110000000 1.0
C      1  0.4513020000000  0.5550460000000  0.4955850000000 1.0
C      1  0.5599900000000  0.5487040000000  0.4998950000000 1.0
C      1  0.4447360000000  0.4602690000000  0.5524250000000 1.0
C      1  0.5242890000000  0.4097110000000  0.4739730000000 1.0
C      1  0.5085060000000  0.4886650000000  0.5324960000000 1.0
C      1  0.5364150000000  0.4125160000000  0.4967570000000 1.0
C      1  0.4679030000000  0.4570730000000  0.4497930000000 1.0
C      1  0.5751310000000  0.5330840000000  0.4597610000000 1.0
C      1  0.4905550000000  0.4935380000000  0.4208320000000 1.0
C      1  0.5418860000000  0.5682290000000  0.4611010000000 1.0
C      1  0.5413600000000  0.4530620000000  0.4389270000000 1.0
C      1  0.5139000000000  0.5808700000000  0.5230010000000 1.0
C      1  0.4349710000000  0.5104070000000  0.4237510000000 1.0
C      1  0.5825190000000  0.5090860000000  0.5047840000000 1.0
C      1  0.4998370000000  0.5030090000000  0.5785030000000 1.0
C      1  0.4281260000000  0.4810400000000  0.5492910000000 1.0
C      1  0.4695560000000  0.4723630000000  0.4260630000000 1.0
C      1  0.4374610000000  0.5312090000000  0.4940110000000 1.0
C      1  0.4744020000000  0.4964050000000  0.5662850000000 1.0
C      1  0.5157780000000  0.5512800000000  0.4659600000000 1.0
C      1  0.5139630000000  0.5593820000000  0.5417880000000 1.0
C      1  0.5499080000000  0.5755520000000  0.4898660000000 1.0
C      1  0.5079410000000  0.5291720000000  0.5750700000000 1.0
C      1  0.4676500000000  0.5584320000000  0.4716810000000 1.0
C      1  0.4903310000000  0.4515320000000  0.5587510000000 1.0
C      1  0.5536270000000  0.4865930000000  0.4758610000000 1.0
C      1  0.4931010000000  0.5651630000000  0.4808060000000 1.0
C      1  0.4275490000000  0.5056370000000  0.4506500000000 1.0
C      1  0.4803510000000  0.4928670000000  0.5349320000000 1.0
C      1  0.5163280000000  0.5136000000000  0.4971800000000 1.0
C      1  0.4907560000000  0.5708590000000  0.5096230000000 1.0
C      1  0.4123660000000  0.4841830000000  0.4581020000000 1.0
C      1  0.5351350000000  0.5899810000000  0.5073930000000 1.0
C      1  0.5619980000000  0.4934420000000  0.5444150000000 1.0
C      1  0.5226570000000  0.4849290000000  0.5720490000000 1.0
C      1  0.4575310000000  0.5307920000000  0.4231920000000 1.0
C      1  0.5402380000000  0.5023090000000  0.4396960000000 1.0
C      1  0.5522070000000  0.4761080000000  0.4461410000000 1.0
C      1  0.5456290000000  0.4999410000000  0.5669390000000 1.0
C      1  0.4721280000000  0.4302940000000  0.4588600000000 1.0
C      1  0.4410410000000  0.5117120000000  0.5157840000000 1.0
C      1  0.5723870000000  0.5564890000000  0.5559840000000 1.0
C      1  0.4660060000000  0.4977430000000  0.4807700000000 1.0
C      1  0.5347720000000  0.4545420000000  0.5276630000000 1.0
C      1  0.4683720000000  0.4677250000000  0.5674520000000 1.0
C      1  0.5517350000000  0.5155820000000  0.4630650000000 1.0
C      1  0.5339300000000  0.5330230000000  0.4826970000000 1.0
C      1  0.5161060000000  0.4644990000000  0.5533090000000 1.0
C      1  0.5140610000000  0.4703500000000  0.5081740000000 1.0
C      1  0.5591160000000  0.5471450000000  0.5760000000000 1.0
C      1  0.5626900000000  0.5554040000000  0.4506230000000 1.0
C      1  0.4714710000000  0.5178660000000  0.5220750000000 1.0
C      1  0.5166760000000  0.4515870000000  0.4524030000000 1.0
C      1  0.4429780000000  0.4378230000000  0.5033460000000 1.0
C      1  0.4535730000000  0.5187870000000  0.5607920000000 1.0
C      1  0.4880790000000  0.4323020000000  0.4946080000000 1.0
C      1  0.4292730000000  0.4620090000000  0.4947130000000 1.0
C      1  0.5812990000000  0.5328270000000  0.4880050000000 1.0
C      1  0.4335060000000  0.5067230000000  0.5440960000000 1.0
C      1  0.5240820000000  0.5123460000000  0.5248760000000 1.0
C      1  0.4691690000000  0.5402940000000  0.5442360000000 1.0
C      1  0.5078170000000  0.4795670000000  0.4615140000000 1.0
C      1  0.5245190000000  0.4864070000000  0.4852990000000 1.0
C      1  0.5615290000000  0.5423520000000  0.5297000000000 1.0
C      1  0.5028630000000  0.4289060000000  0.4660310000000 1.0
C      1  0.5374740000000  0.5281420000000  0.5684190000000 1.0
C      1  0.4551940000000  0.4440500000000  0.5301560000000 1.0
C      1  0.5587130000000  0.4724950000000  0.5253250000000 1.0
C      1  0.4871840000000  0.4616010000000  0.4983860000000 1.0
END
