TITL C-102216-7232-3 137.116835050677 125000 -683.136292924264 0 0 95 (C1) n - 1
REM
REM in /rds/project/t2_vol4/rds-t2-cs072/BORA/CARBON/from-Arr/AIRSS/Generating-Clusters/GAP-ML-2020/Only-C1/SD-CG/HFTN-CG
REM
REM
REM
REM
REM
REM ./C.cell (11c1c37f851c82e70ff6c80c92926a4b)
REM AIRSS Version 0.9.1 bugfix July 2018 build 013d7b7c2542+ Fri, 06 Jul 2018 19:26:36 +0100
REM compiler GCC version 9.3.0
REM options -cpp -mtune=generic -march=x86-64 -g -O0
REM seed -1285537476 1464478780 -1651833707 1681033882 -474283729 -494754627 -1717183548 2009278078 -1408893633 1483184044 -570316979 2066393331 -2070753999 264534346 -327907542 1169204332 -124457554 1864644675 -118812119 1497552226 -778713404 944389813 1699623727 -924182815 2079058929 1303963255 130181404 1421545215 1909573064 508805919 1442854107 1107184928 -1651892046
REM
CELL 1.54180   50.00000   50.00000   50.00000   90.00000   90.00000   90.00000
LATT -1
SFAC C  
C      1  0.4600380000000  0.4958320000000  0.4268170000000 1.0
C      1  0.4282150000000  0.5379510000000  0.4737980000000 1.0
C      1  0.5169700000000  0.4236380000000  0.5430020000000 1.0
C      1  0.4430830000000  0.5508010000000  0.5208550000000 1.0
C      1  0.4289850000000  0.4670030000000  0.4651130000000 1.0
C      1  0.4401360000000  0.5334480000000  0.4477570000000 1.0
C      1  0.4752400000000  0.4980650000000  0.4747520000000 1.0
C      1  0.5043630000000  0.5165780000000  0.4223390000000 1.0
C      1  0.4349940000000  0.5175390000000  0.5538370000000 1.0
C      1  0.4390900000000  0.4894410000000  0.5584490000000 1.0
C      1  0.5198950000000  0.5372030000000  0.4327320000000 1.0
C      1  0.5081750000000  0.4138310000000  0.5172650000000 1.0
C      1  0.4620090000000  0.4960400000000  0.5750550000000 1.0
C      1  0.5006170000000  0.5826980000000  0.5006890000000 1.0
C      1  0.4438250000000  0.5520730000000  0.4923750000000 1.0
C      1  0.4225620000000  0.4782420000000  0.5154380000000 1.0
C      1  0.4821540000000  0.4173670000000  0.5064760000000 1.0
C      1  0.5330070000000  0.5756660000000  0.4507710000000 1.0
C      1  0.5758430000000  0.5341280000000  0.4764810000000 1.0
C      1  0.4965900000000  0.4433490000000  0.4349710000000 1.0
C      1  0.4655080000000  0.5430550000000  0.4381800000000 1.0
C      1  0.5228240000000  0.4567040000000  0.5737500000000 1.0
C      1  0.4518300000000  0.4541590000000  0.4540160000000 1.0
C      1  0.4754920000000  0.4857230000000  0.5016490000000 1.0
C      1  0.4850530000000  0.5233310000000  0.4849240000000 1.0
C      1  0.5042170000000  0.5483680000000  0.5651940000000 1.0
C      1  0.5465880000000  0.5807460000000  0.5204290000000 1.0
C      1  0.4996510000000  0.4698240000000  0.5017790000000 1.0
C      1  0.5850810000000  0.4899290000000  0.4867610000000 1.0
C      1  0.5524620000000  0.4298470000000  0.5148920000000 1.0
C      1  0.4665120000000  0.5600460000000  0.5363900000000 1.0
C      1  0.4749230000000  0.5456630000000  0.5615040000000 1.0
C      1  0.4420220000000  0.4373650000000  0.4967260000000 1.0
C      1  0.5711250000000  0.4897330000000  0.4617080000000 1.0
C      1  0.5002840000000  0.5179320000000  0.5295650000000 1.0
C      1  0.5620760000000  0.5165890000000  0.4575310000000 1.0
C      1  0.4364400000000  0.5063580000000  0.4379950000000 1.0
C      1  0.5030620000000  0.4390430000000  0.5625240000000 1.0
C      1  0.4585540000000  0.4304380000000  0.5188950000000 1.0
C      1  0.5093410000000  0.5710550000000  0.5486470000000 1.0
C      1  0.5332820000000  0.4710120000000  0.4349270000000 1.0
C      1  0.5155860000000  0.5228410000000  0.4822830000000 1.0
C      1  0.5308160000000  0.4279880000000  0.4738430000000 1.0
C      1  0.5476050000000  0.4561620000000  0.5598280000000 1.0
C      1  0.4843230000000  0.5641480000000  0.4498270000000 1.0
C      1  0.4810550000000  0.4207040000000  0.4779630000000 1.0
C      1  0.5575370000000  0.4828140000000  0.5553140000000 1.0
C      1  0.4711200000000  0.5511150000000  0.4843270000000 1.0
C      1  0.4256090000000  0.4603270000000  0.4932160000000 1.0
C      1  0.5302120000000  0.5319810000000  0.5668590000000 1.0
C      1  0.5294640000000  0.5856020000000  0.4985600000000 1.0
C      1  0.5205270000000  0.4823680000000  0.5147510000000 1.0
C      1  0.4728080000000  0.4676160000000  0.4382060000000 1.0
C      1  0.5194710000000  0.4503360000000  0.4229840000000 1.0
C      1  0.5314540000000  0.5193490000000  0.4544140000000 1.0
C      1  0.5714130000000  0.5428750000000  0.5339570000000 1.0
C      1  0.4558790000000  0.4479140000000  0.5421640000000 1.0
C      1  0.5818190000000  0.5173600000000  0.5247580000000 1.0
C      1  0.5665370000000  0.4483630000000  0.4985510000000 1.0
C      1  0.5796890000000  0.4724200000000  0.5082300000000 1.0
C      1  0.5536340000000  0.4464440000000  0.4725760000000 1.0
C      1  0.4827610000000  0.4777680000000  0.5753940000000 1.0
C      1  0.4928240000000  0.4824970000000  0.4569180000000 1.0
C      1  0.5871970000000  0.5168470000000  0.4964820000000 1.0
C      1  0.4787430000000  0.5113070000000  0.5135620000000 1.0
C      1  0.5036140000000  0.4622280000000  0.4749260000000 1.0
C      1  0.5676330000000  0.5598990000000  0.4854640000000 1.0
C      1  0.5500370000000  0.5484510000000  0.5537970000000 1.0
C      1  0.5441320000000  0.4334860000000  0.5417490000000 1.0
C      1  0.5553830000000  0.4675620000000  0.4535330000000 1.0
C      1  0.4854810000000  0.5739850000000  0.4780260000000 1.0
C      1  0.5120790000000  0.4821430000000  0.5777310000000 1.0
C      1  0.4773460000000  0.4526300000000  0.5616050000000 1.0
C      1  0.4183620000000  0.5066660000000  0.5110480000000 1.0
C      1  0.4764540000000  0.5194270000000  0.4237620000000 1.0
C      1  0.5214560000000  0.5284590000000  0.5105380000000 1.0
C      1  0.4183940000000  0.4908620000000  0.4544470000000 1.0
C      1  0.5166030000000  0.4951850000000  0.4401470000000 1.0
C      1  0.5754490000000  0.4895990000000  0.5332640000000 1.0
C      1  0.5444310000000  0.5760090000000  0.4751530000000 1.0
C      1  0.4362240000000  0.4692150000000  0.5396130000000 1.0
C      1  0.4898510000000  0.5753330000000  0.5277040000000 1.0
C      1  0.4561600000000  0.4326430000000  0.4721170000000 1.0
C      1  0.5369020000000  0.5726690000000  0.5450850000000 1.0
C      1  0.5135120000000  0.4949750000000  0.5402250000000 1.0
C      1  0.5030510000000  0.4335050000000  0.4633140000000 1.0
C      1  0.5316680000000  0.5014320000000  0.5635850000000 1.0
C      1  0.5309420000000  0.4177210000000  0.4999380000000 1.0
C      1  0.4122770000000  0.5158400000000  0.4842090000000 1.0
C      1  0.5113620000000  0.5631480000000  0.4389090000000 1.0
C      1  0.5303470000000  0.5044250000000  0.4993860000000 1.0
C      1  0.4581140000000  0.5248140000000  0.5697040000000 1.0
C      1  0.4282040000000  0.5270300000000  0.5289340000000 1.0
C      1  0.3957890000000  0.5023460000000  0.4664130000000 1.0
C      1  0.5685360000000  0.5633530000000  0.5137510000000 1.0
END
