TITL C-105647-7151-4 29.3046511540556 125000 -774.466489092787 0 0 109 (C1) n - 1
REM
REM in /rds/project/t2_vol4/rds-t2-cs072/BORA/CARBON/from-Arr/AIRSS/Generating-Clusters/GAP-ML-2020/Only-C1/SD-CG/HFTN-CG
REM
REM
REM
REM
REM
REM ./C.cell (11c1c37f851c82e70ff6c80c92926a4b)
REM AIRSS Version 0.9.1 bugfix July 2018 build 013d7b7c2542+ Fri, 06 Jul 2018 19:26:36 +0100
REM compiler GCC version 9.3.0
REM options -cpp -mtune=generic -march=x86-64 -g -O0
REM seed 1173369557 -70423638 1171607601 1056608321 1054557501 925481485 551033486 810799467 -1063411386 -1970925124 630757891 1640450523 339850766 -1375759695 865810276 -27949958 21135292 -1537583965 -763444508 -1039824724 620094309 -1706589568 668898762 2019049595 97427580 1164581748 -1969294788 1080931894 1627921045 2129148028 121220369 -676599878 -1940062208
REM
CELL 1.54180   50.00000   50.00000   50.00000   90.00000   90.00000   90.00000
LATT -1
SFAC C  
C      1  0.5809010000000  0.5300180000000  0.4741970000000 1.0
C      1  0.5862290000000  0.4541670000000  0.5233750000000 1.0
C      1  0.4894360000000  0.4747330000000  0.5464790000000 1.0
C      1  0.4438170000000  0.4145850000000  0.5362310000000 1.0
C      1  0.4398000000000  0.4641380000000  0.5452380000000 1.0
C      1  0.4322240000000  0.5603670000000  0.5590040000000 1.0
C      1  0.5652000000000  0.4628370000000  0.4481650000000 1.0
C      1  0.5899900000000  0.4743910000000  0.5425180000000 1.0
C      1  0.5147760000000  0.5143810000000  0.5806470000000 1.0
C      1  0.3949430000000  0.4809780000000  0.4848100000000 1.0
C      1  0.5140600000000  0.5896300000000  0.4889250000000 1.0
C      1  0.4404210000000  0.4592440000000  0.4802200000000 1.0
C      1  0.5686410000000  0.4485220000000  0.4721990000000 1.0
C      1  0.5527980000000  0.4898920000000  0.5662370000000 1.0
C      1  0.4174210000000  0.5164130000000  0.5256010000000 1.0
C      1  0.5085210000000  0.4775830000000  0.5233600000000 1.0
C      1  0.4565560000000  0.4953630000000  0.5802440000000 1.0
C      1  0.4767980000000  0.4864380000000  0.4858590000000 1.0
C      1  0.5165190000000  0.5732410000000  0.5360630000000 1.0
C      1  0.5094450000000  0.5348450000000  0.5643540000000 1.0
C      1  0.4946950000000  0.4559490000000  0.4320200000000 1.0
C      1  0.4699140000000  0.4503500000000  0.4450670000000 1.0
C      1  0.4756000000000  0.4462200000000  0.5120090000000 1.0
C      1  0.5292370000000  0.5824500000000  0.5124190000000 1.0
C      1  0.5318450000000  0.4585470000000  0.5136970000000 1.0
C      1  0.4926410000000  0.4663070000000  0.4998590000000 1.0
C      1  0.4746360000000  0.5507410000000  0.4323030000000 1.0
C      1  0.4893580000000  0.4211950000000  0.5238580000000 1.0
C      1  0.5417600000000  0.4339050000000  0.5276030000000 1.0
C      1  0.4410500000000  0.5210080000000  0.4528440000000 1.0
C      1  0.4935470000000  0.5308670000000  0.4254400000000 1.0
C      1  0.5270770000000  0.4901350000000  0.5786310000000 1.0
C      1  0.4857450000000  0.5920320000000  0.4888230000000 1.0
C      1  0.5363230000000  0.4112160000000  0.5103370000000 1.0
C      1  0.4777880000000  0.4822210000000  0.5904880000000 1.0
C      1  0.4538870000000  0.4364120000000  0.4931670000000 1.0
C      1  0.5878700000000  0.5029510000000  0.4672090000000 1.0
C      1  0.5471060000000  0.5337060000000  0.4380080000000 1.0
C      1  0.5524380000000  0.5680410000000  0.5038250000000 1.0
C      1  0.5004510000000  0.4781070000000  0.5748210000000 1.0
C      1  0.5205610000000  0.5437460000000  0.4315110000000 1.0
C      1  0.4713810000000  0.4213850000000  0.4727590000000 1.0
C      1  0.4992000000000  0.4815310000000  0.4216920000000 1.0
C      1  0.4290530000000  0.5650410000000  0.5321560000000 1.0
C      1  0.5503020000000  0.4257340000000  0.4744650000000 1.0
C      1  0.4623970000000  0.4236540000000  0.4468780000000 1.0
C      1  0.4502350000000  0.5472080000000  0.4461690000000 1.0
C      1  0.5950210000000  0.4892170000000  0.4907500000000 1.0
C      1  0.5666210000000  0.5491550000000  0.5192780000000 1.0
C      1  0.4245850000000  0.4545700000000  0.5225940000000 1.0
C      1  0.4564760000000  0.4991210000000  0.4436070000000 1.0
C      1  0.5411510000000  0.4588630000000  0.4314610000000 1.0
C      1  0.4717310000000  0.5866940000000  0.5133760000000 1.0
C      1  0.4360120000000  0.4870140000000  0.5616460000000 1.0
C      1  0.4157990000000  0.5433290000000  0.5180970000000 1.0
C      1  0.5194180000000  0.4430410000000  0.4397570000000 1.0
C      1  0.5673000000000  0.4657930000000  0.5584350000000 1.0
C      1  0.5074700000000  0.4092400000000  0.5063870000000 1.0
C      1  0.5151180000000  0.5697360000000  0.4430440000000 1.0
C      1  0.4675460000000  0.4540470000000  0.5412690000000 1.0
C      1  0.4189300000000  0.5462150000000  0.4906610000000 1.0
C      1  0.4231990000000  0.5197770000000  0.4776350000000 1.0
C      1  0.4625800000000  0.5032120000000  0.5082090000000 1.0
C      1  0.5403420000000  0.4999060000000  0.4976710000000 1.0
C      1  0.4876830000000  0.5739840000000  0.4427200000000 1.0
C      1  0.4755430000000  0.4993680000000  0.5365020000000 1.0
C      1  0.5245390000000  0.4897760000000  0.4746470000000 1.0
C      1  0.4730880000000  0.5845300000000  0.4641590000000 1.0
C      1  0.4690040000000  0.4216090000000  0.5441840000000 1.0
C      1  0.5644970000000  0.4423980000000  0.5414920000000 1.0
C      1  0.5841950000000  0.5333320000000  0.5027540000000 1.0
C      1  0.4823840000000  0.5264290000000  0.5532720000000 1.0
C      1  0.5560400000000  0.5072010000000  0.4328200000000 1.0
C      1  0.4317330000000  0.5015750000000  0.5038580000000 1.0
C      1  0.4484040000000  0.5703290000000  0.4635760000000 1.0
C      1  0.5555110000000  0.5400210000000  0.5446980000000 1.0
C      1  0.5088890000000  0.5302650000000  0.5121970000000 1.0
C      1  0.4241190000000  0.5114410000000  0.5523950000000 1.0
C      1  0.4950720000000  0.5300780000000  0.4870620000000 1.0
C      1  0.4340140000000  0.4283230000000  0.5152670000000 1.0
C      1  0.5794670000000  0.4643780000000  0.4961230000000 1.0
C      1  0.4878500000000  0.5716470000000  0.5322350000000 1.0
C      1  0.5290080000000  0.5516640000000  0.5512860000000 1.0
C      1  0.4610930000000  0.5235290000000  0.5743650000000 1.0
C      1  0.5876990000000  0.5020360000000  0.5381060000000 1.0
C      1  0.5652530000000  0.5134440000000  0.5523610000000 1.0
C      1  0.5185100000000  0.4602720000000  0.4853970000000 1.0
C      1  0.5215810000000  0.4334990000000  0.4671870000000 1.0
C      1  0.4436660000000  0.5802690000000  0.5118340000000 1.0
C      1  0.5528840000000  0.4025580000000  0.4892250000000 1.0
C      1  0.5745670000000  0.4903290000000  0.4459570000000 1.0
C      1  0.4814120000000  0.5430050000000  0.5292670000000 1.0
C      1  0.5282000000000  0.5795900000000  0.4661130000000 1.0
C      1  0.3960050000000  0.5037210000000  0.4736960000000 1.0
C      1  0.4709590000000  0.5311700000000  0.5036340000000 1.0
C      1  0.4578410000000  0.4738370000000  0.4612840000000 1.0
C      1  0.5286380000000  0.4823740000000  0.4217970000000 1.0
C      1  0.5512400000000  0.5662420000000  0.4752990000000 1.0
C      1  0.5945440000000  0.5090680000000  0.5119370000000 1.0
C      1  0.4331250000000  0.5701520000000  0.4865920000000 1.0
C      1  0.5618290000000  0.5450130000000  0.4601160000000 1.0
C      1  0.4986350000000  0.5040610000000  0.4753320000000 1.0
C      1  0.5532850000000  0.4775130000000  0.5093270000000 1.0
C      1  0.4220000000000  0.4723270000000  0.4984920000000 1.0
C      1  0.5335460000000  0.4962150000000  0.4456770000000 1.0
C      1  0.5204580000000  0.5051130000000  0.5174620000000 1.0
C      1  0.4362550000000  0.5343330000000  0.5662220000000 1.0
C      1  0.5000180000000  0.4168140000000  0.4796240000000 1.0
C      1  0.4818250000000  0.5038050000000  0.4267880000000 1.0
END
