TITL C-101221-5812-4 0.0403229980033312 125000 -407.322713027425 0 0 58 (C1) n - 1
REM
REM in /rds/project/t2_vol4/rds-t2-cs072/BORA/CARBON/from-Arr/AIRSS/Generating-Clusters/GAP-ML-2020/Only-C1/SD-CG/HFTN-CG
REM
REM
REM
REM
REM
REM ./C.cell (11c1c37f851c82e70ff6c80c92926a4b)
REM AIRSS Version 0.9.1 bugfix July 2018 build 013d7b7c2542+ Fri, 06 Jul 2018 19:26:36 +0100
REM compiler GCC version 9.3.0
REM options -cpp -mtune=generic -march=x86-64 -g -O0
REM seed -1018484633 -1179564270 1172565083 -1129566101 -416826172 -1514472402 -278648758 -2075237850 1225025084 594473764 -675980150 68615846 -1132032712 -21633151 430594669 1947266648 -864494681 1138218556 -649825604 -1632023451 746821187 1248973326 -751748784 1669166648 1991289117 1991635322 1551722441 1169982643 562508886 351892232 1867881382 1266048897 -1779163310
REM
CELL 1.54180   50.00000   50.00000   50.00000   90.00000   90.00000   90.00000
LATT -1
SFAC C  
C      1  0.4603520000000  0.5478020000000  0.5159890000000 1.0
C      1  0.4907210000000  0.4651010000000  0.4480960000000 1.0
C      1  0.5323010000000  0.4421870000000  0.4844440000000 1.0
C      1  0.4962870000000  0.4882440000000  0.5197200000000 1.0
C      1  0.4718690000000  0.4537360000000  0.4670550000000 1.0
C      1  0.4488660000000  0.5221670000000  0.4607590000000 1.0
C      1  0.4350240000000  0.5406120000000  0.5049330000000 1.0
C      1  0.5599750000000  0.4760840000000  0.4695400000000 1.0
C      1  0.4626380000000  0.5334860000000  0.5412390000000 1.0
C      1  0.5347570000000  0.5654420000000  0.4623500000000 1.0
C      1  0.5174760000000  0.4968110000000  0.5710290000000 1.0
C      1  0.5397930000000  0.5069330000000  0.5568560000000 1.0
C      1  0.5249150000000  0.4904670000000  0.4302080000000 1.0
C      1  0.5460510000000  0.4794770000000  0.5457960000000 1.0
C      1  0.5562040000000  0.4694240000000  0.5204500000000 1.0
C      1  0.4298440000000  0.5252280000000  0.4810700000000 1.0
C      1  0.4953360000000  0.4597600000000  0.5569420000000 1.0
C      1  0.5163470000000  0.5302310000000  0.4389920000000 1.0
C      1  0.5154500000000  0.4346500000000  0.5212850000000 1.0
C      1  0.4697390000000  0.4426780000000  0.5171680000000 1.0
C      1  0.4919820000000  0.4406230000000  0.5362100000000 1.0
C      1  0.5404220000000  0.4468640000000  0.5122060000000 1.0
C      1  0.4360780000000  0.4772240000000  0.4954870000000 1.0
C      1  0.5144550000000  0.5039450000000  0.4762890000000 1.0
C      1  0.4800280000000  0.4898850000000  0.4389800000000 1.0
C      1  0.5063770000000  0.5592330000000  0.5197730000000 1.0
C      1  0.4910780000000  0.5050570000000  0.5684600000000 1.0
C      1  0.5463360000000  0.5588700000000  0.4853760000000 1.0
C      1  0.5666450000000  0.4839400000000  0.4969540000000 1.0
C      1  0.5399200000000  0.4575750000000  0.4624560000000 1.0
C      1  0.4557900000000  0.4951870000000  0.4529860000000 1.0
C      1  0.4218160000000  0.5016360000000  0.4971230000000 1.0
C      1  0.5220780000000  0.4698020000000  0.5607020000000 1.0
C      1  0.5110080000000  0.5527780000000  0.4558420000000 1.0
C      1  0.5413140000000  0.5116810000000  0.4398460000000 1.0
C      1  0.5326170000000  0.5629960000000  0.5106960000000 1.0
C      1  0.5357640000000  0.5333400000000  0.5464300000000 1.0
C      1  0.5680960000000  0.5121420000000  0.4872200000000 1.0
C      1  0.4797630000000  0.4370510000000  0.4896240000000 1.0
C      1  0.4523050000000  0.4846830000000  0.5448050000000 1.0
C      1  0.5632400000000  0.5374580000000  0.4987970000000 1.0
C      1  0.4507980000000  0.4732430000000  0.4705970000000 1.0
C      1  0.4864570000000  0.5308810000000  0.5559160000000 1.0
C      1  0.5195350000000  0.4668240000000  0.4442580000000 1.0
C      1  0.4436690000000  0.5115780000000  0.5407490000000 1.0
C      1  0.4761390000000  0.4815850000000  0.5603060000000 1.0
C      1  0.4861940000000  0.5551460000000  0.4728590000000 1.0
C      1  0.5088460000000  0.5447220000000  0.5450800000000 1.0
C      1  0.5498800000000  0.5438070000000  0.5241260000000 1.0
C      1  0.5009800000000  0.5070380000000  0.4295110000000 1.0
C      1  0.4495610000000  0.4680940000000  0.5200270000000 1.0
C      1  0.4681330000000  0.5411700000000  0.4591610000000 1.0
C      1  0.5598340000000  0.5036530000000  0.4600520000000 1.0
C      1  0.4835710000000  0.5580560000000  0.5024420000000 1.0
C      1  0.4247510000000  0.5176440000000  0.5209650000000 1.0
C      1  0.5072800000000  0.4316100000000  0.4931390000000 1.0
C      1  0.4781790000000  0.4696190000000  0.5106650000000 1.0
C      1  0.5051380000000  0.5028380000000  0.4999660000000 1.0
END
