TITL C-105716-8694-5 0.00111209472160567 125000 -800.014500580469 0 0 114 (C1) n - 1
REM
REM in /rds/project/t2_vol4/rds-t2-cs072/BORA/CARBON/from-Arr/AIRSS/Generating-Clusters/GAP-ML-2020/Only-C1/SD-CG/HFTN-CG
REM
REM
REM
REM
REM
REM ./C.cell (11c1c37f851c82e70ff6c80c92926a4b)
REM AIRSS Version 0.9.1 bugfix July 2018 build 013d7b7c2542+ Fri, 06 Jul 2018 19:26:36 +0100
REM compiler GCC version 9.3.0
REM options -cpp -mtune=generic -march=x86-64 -g -O0
REM seed -765196360 172927705 -1410896473 524717311 1414571443 -1688329963 -1376439168 -200884939 382654248 -790946545 -611181052 1889446898 2035374413 1967758583 -1005774130 -2003145075 1001829888 -1812943258 -1140378244 -319184926 762588920 1665048978 1453070496 -849307847 1563727049 -1301800911 564822231 -1523909782 1959038571 -1678053010 1010908898 1094340793 -62323452
REM
CELL 1.54180   50.00000   50.00000   50.00000   90.00000   90.00000   90.00000
LATT -1
SFAC C  
C      1  0.5132910000000  0.5203920000000  0.5377520000000 1.0
C      1  0.5659900000000  0.4594480000000  0.5516460000000 1.0
C      1  0.4380060000000  0.5542790000000  0.4773860000000 1.0
C      1  0.4181790000000  0.5042180000000  0.5246570000000 1.0
C      1  0.5583660000000  0.4211320000000  0.4922420000000 1.0
C      1  0.5100680000000  0.5048760000000  0.4741260000000 1.0
C      1  0.4299050000000  0.4500450000000  0.4776680000000 1.0
C      1  0.4761380000000  0.5561480000000  0.5621650000000 1.0
C      1  0.5705350000000  0.5249990000000  0.4609070000000 1.0
C      1  0.4954620000000  0.4968470000000  0.5325680000000 1.0
C      1  0.5372920000000  0.4238700000000  0.5418750000000 1.0
C      1  0.5701250000000  0.5375120000000  0.4887740000000 1.0
C      1  0.5095490000000  0.5787570000000  0.5407910000000 1.0
C      1  0.4888660000000  0.5706350000000  0.5197570000000 1.0
C      1  0.5741260000000  0.5167870000000  0.5333340000000 1.0
C      1  0.5857640000000  0.5175220000000  0.5064260000000 1.0
C      1  0.5179950000000  0.4411710000000  0.5035950000000 1.0
C      1  0.4997590000000  0.4475570000000  0.5246460000000 1.0
C      1  0.4438750000000  0.4790100000000  0.5633490000000 1.0
C      1  0.5551950000000  0.5360260000000  0.4396210000000 1.0
C      1  0.5308660000000  0.5759490000000  0.4341820000000 1.0
C      1  0.5444320000000  0.4350140000000  0.5145910000000 1.0
C      1  0.5128770000000  0.5544620000000  0.4289030000000 1.0
C      1  0.4767590000000  0.5008050000000  0.5116230000000 1.0
C      1  0.5041480000000  0.5137160000000  0.5864240000000 1.0
C      1  0.4837170000000  0.4607510000000  0.5771570000000 1.0
C      1  0.5701260000000  0.5306230000000  0.5592250000000 1.0
C      1  0.4634930000000  0.5326470000000  0.5728600000000 1.0
C      1  0.4101240000000  0.4911610000000  0.4778630000000 1.0
C      1  0.5078150000000  0.4218230000000  0.5419690000000 1.0
C      1  0.5277630000000  0.5302580000000  0.4311710000000 1.0
C      1  0.5113880000000  0.4350190000000  0.4362700000000 1.0
C      1  0.5680350000000  0.4834370000000  0.5671610000000 1.0
C      1  0.4316820000000  0.5382590000000  0.4312460000000 1.0
C      1  0.5463960000000  0.5264500000000  0.5737790000000 1.0
C      1  0.5756240000000  0.4654610000000  0.4943260000000 1.0
C      1  0.5373830000000  0.5755870000000  0.5028260000000 1.0
C      1  0.4431280000000  0.5267510000000  0.5548470000000 1.0
C      1  0.4910010000000  0.4013660000000  0.5293940000000 1.0
C      1  0.5178880000000  0.5345990000000  0.5696880000000 1.0
C      1  0.4894330000000  0.5510530000000  0.4721310000000 1.0
C      1  0.4924990000000  0.5784250000000  0.4875570000000 1.0
C      1  0.5003820000000  0.5409860000000  0.5178790000000 1.0
C      1  0.4650660000000  0.5639830000000  0.5373940000000 1.0
C      1  0.4365250000000  0.4900290000000  0.4394810000000 1.0
C      1  0.5554710000000  0.4343520000000  0.5592250000000 1.0
C      1  0.5466130000000  0.5290530000000  0.5054910000000 1.0
C      1  0.4696980000000  0.4394770000000  0.5635230000000 1.0
C      1  0.5416810000000  0.5100960000000  0.5266230000000 1.0
C      1  0.5196340000000  0.5887980000000  0.4834690000000 1.0
C      1  0.4477030000000  0.6057550000000  0.4792980000000 1.0
C      1  0.4228050000000  0.5302390000000  0.5142580000000 1.0
C      1  0.5512680000000  0.4584370000000  0.4475990000000 1.0
C      1  0.4715810000000  0.5296870000000  0.5108770000000 1.0
C      1  0.5112270000000  0.5335640000000  0.4805090000000 1.0
C      1  0.4908350000000  0.4068290000000  0.4740490000000 1.0
C      1  0.4409090000000  0.5577190000000  0.4472940000000 1.0
C      1  0.4311250000000  0.5014780000000  0.5505710000000 1.0
C      1  0.5096060000000  0.5075540000000  0.4407040000000 1.0
C      1  0.5358360000000  0.4826090000000  0.5185660000000 1.0
C      1  0.4480810000000  0.4530950000000  0.5507670000000 1.0
C      1  0.5109780000000  0.4723710000000  0.5363140000000 1.0
C      1  0.4691820000000  0.5894370000000  0.4712530000000 1.0
C      1  0.5591840000000  0.4618490000000  0.5205560000000 1.0
C      1  0.4815870000000  0.4153450000000  0.5529580000000 1.0
C      1  0.4647910000000  0.5386310000000  0.4828870000000 1.0
C      1  0.5620150000000  0.4337480000000  0.4553330000000 1.0
C      1  0.5432140000000  0.4151590000000  0.4674500000000 1.0
C      1  0.5550370000000  0.4771110000000  0.4708180000000 1.0
C      1  0.4469130000000  0.5416210000000  0.5298520000000 1.0
C      1  0.5278570000000  0.4584020000000  0.4320440000000 1.0
C      1  0.4171780000000  0.5370360000000  0.4875800000000 1.0
C      1  0.4810430000000  0.4934530000000  0.4832990000000 1.0
C      1  0.5247380000000  0.5454720000000  0.5015080000000 1.0
C      1  0.4854500000000  0.4461540000000  0.4319630000000 1.0
C      1  0.4654680000000  0.5710120000000  0.4449400000000 1.0
C      1  0.4825120000000  0.4629440000000  0.4822170000000 1.0
C      1  0.5777770000000  0.4392330000000  0.4806470000000 1.0
C      1  0.5336330000000  0.5905660000000  0.4592420000000 1.0
C      1  0.5319460000000  0.5868810000000  0.5287190000000 1.0
C      1  0.5884980000000  0.4932890000000  0.4913080000000 1.0
C      1  0.4644370000000  0.4935950000000  0.4285440000000 1.0
C      1  0.5038560000000  0.5608280000000  0.5636120000000 1.0
C      1  0.4814450000000  0.4041280000000  0.5023910000000 1.0
C      1  0.4101110000000  0.5172060000000  0.4687110000000 1.0
C      1  0.4678410000000  0.4188500000000  0.4617720000000 1.0
C      1  0.4597210000000  0.4237160000000  0.5023180000000 1.0
C      1  0.4135640000000  0.4841100000000  0.5050550000000 1.0
C      1  0.4462480000000  0.4493850000000  0.5225000000000 1.0
C      1  0.5465420000000  0.4981990000000  0.5800270000000 1.0
C      1  0.4721610000000  0.4460360000000  0.4561360000000 1.0
C      1  0.5577720000000  0.5644200000000  0.4384650000000 1.0
C      1  0.5838460000000  0.5054440000000  0.5574130000000 1.0
C      1  0.4730770000000  0.4493940000000  0.5094920000000 1.0
C      1  0.4431630000000  0.5810860000000  0.4875110000000 1.0
C      1  0.4838350000000  0.4734690000000  0.4229040000000 1.0
C      1  0.4799240000000  0.5177570000000  0.4399740000000 1.0
C      1  0.5096430000000  0.4687950000000  0.5689640000000 1.0
C      1  0.4663590000000  0.4836650000000  0.5804850000000 1.0
C      1  0.4462610000000  0.4267220000000  0.4776500000000 1.0
C      1  0.5285390000000  0.4830440000000  0.4868320000000 1.0
C      1  0.5619470000000  0.5789220000000  0.4624280000000 1.0
C      1  0.4863590000000  0.5508930000000  0.4413970000000 1.0
C      1  0.5200500000000  0.4902330000000  0.5844220000000 1.0
C      1  0.5106920000000  0.4812980000000  0.4268300000000 1.0
C      1  0.5637320000000  0.5671300000000  0.4878240000000 1.0
C      1  0.4260270000000  0.4585780000000  0.5045600000000 1.0
C      1  0.5120540000000  0.4593320000000  0.4841430000000 1.0
C      1  0.4237930000000  0.4731010000000  0.4601990000000 1.0
C      1  0.4229530000000  0.5154700000000  0.4426690000000 1.0
C      1  0.4764010000000  0.5103880000000  0.5855070000000 1.0
C      1  0.5159510000000  0.4145690000000  0.4589110000000 1.0
C      1  0.5754040000000  0.4981100000000  0.4663460000000 1.0
C      1  0.4661810000000  0.5138260000000  0.4670640000000 1.0
END
