TITL C-101234-5700-9 1302.73123346331 125000 -654.196905199509 0 0 94 (C1) n - 1
REM
REM in /rds/project/t2_vol4/rds-t2-cs072/BORA/CARBON/from-Arr/AIRSS/Generating-Clusters/GAP-ML-2020/Only-C1/SD-CG/HFTN-CG
REM
REM
REM
REM
REM
REM ./C.cell (11c1c37f851c82e70ff6c80c92926a4b)
REM AIRSS Version 0.9.1 bugfix July 2018 build 013d7b7c2542+ Fri, 06 Jul 2018 19:26:36 +0100
REM compiler GCC version 9.3.0
REM options -cpp -mtune=generic -march=x86-64 -g -O0
REM seed -1410731272 460955469 -948235718 -51672877 -288461248 2073386330 179230195 120820216 -2091238060 324895376 -883146986 -640300581 -389290909 -1058292837 -272428567 -569017340 1584310548 1884158810 -159156314 784066469 819124490 -1495541066 1852235614 -829173920 -1277198908 -844927617 -889719983 -1861272213 -1476671551 -864133408 -1530120601 2094732255 691711490
REM
CELL 1.54180   50.00000   50.00000   50.00000   90.00000   90.00000   90.00000
LATT -1
SFAC C  
C      1  0.4285070000000  0.5255330000000  0.5501030000000 1.0
C      1  0.4142850000000  0.4563260000000  0.5335130000000 1.0
C      1  0.5340240000000  0.4690720000000  0.5572040000000 1.0
C      1  0.5554240000000  0.4396020000000  0.5183870000000 1.0
C      1  0.5154680000000  0.4735680000000  0.4861160000000 1.0
C      1  0.5150470000000  0.4506070000000  0.5688500000000 1.0
C      1  0.5387100000000  0.4999590000000  0.5195050000000 1.0
C      1  0.4780170000000  0.4966230000000  0.5066610000000 1.0
C      1  0.5018670000000  0.5602570000000  0.4462500000000 1.0
C      1  0.4955810000000  0.4818500000000  0.4639540000000 1.0
C      1  0.4916970000000  0.4653160000000  0.5794150000000 1.0
C      1  0.5659780000000  0.5466000000000  0.4795160000000 1.0
C      1  0.5793170000000  0.5226070000000  0.5166860000000 1.0
C      1  0.4284110000000  0.5415760000000  0.4959490000000 1.0
C      1  0.5197600000000  0.5773600000000  0.4787410000000 1.0
C      1  0.4942410000000  0.5237120000000  0.4998430000000 1.0
C      1  0.4868120000000  0.5826000000000  0.5179180000000 1.0
C      1  0.5093610000000  0.4456980000000  0.4382550000000 1.0
C      1  0.5733020000000  0.4495720000000  0.4646050000000 1.0
C      1  0.4434640000000  0.4774630000000  0.4170210000000 1.0
C      1  0.5484970000000  0.4413700000000  0.4595040000000 1.0
C      1  0.5053970000000  0.5295150000000  0.5265110000000 1.0
C      1  0.5336540000000  0.4260330000000  0.5054660000000 1.0
C      1  0.5660310000000  0.4969220000000  0.4760900000000 1.0
C      1  0.5290750000000  0.4274600000000  0.4767550000000 1.0
C      1  0.4589450000000  0.4486910000000  0.4524890000000 1.0
C      1  0.5329070000000  0.5772470000000  0.5035640000000 1.0
C      1  0.4202900000000  0.4442420000000  0.5120600000000 1.0
C      1  0.5592490000000  0.5112650000000  0.5586740000000 1.0
C      1  0.4275950000000  0.4796470000000  0.5412140000000 1.0
C      1  0.5107470000000  0.5091530000000  0.5745860000000 1.0
C      1  0.5393630000000  0.4957910000000  0.5705190000000 1.0
C      1  0.4652550000000  0.5674460000000  0.5246380000000 1.0
C      1  0.4694710000000  0.5014970000000  0.5388260000000 1.0
C      1  0.4898970000000  0.4658430000000  0.4371420000000 1.0
C      1  0.4271740000000  0.4947560000000  0.4313170000000 1.0
C      1  0.5111220000000  0.5387840000000  0.5777070000000 1.0
C      1  0.4155740000000  0.5165890000000  0.5057380000000 1.0
C      1  0.5333500000000  0.5274180000000  0.5257510000000 1.0
C      1  0.5524230000000  0.5244690000000  0.4376270000000 1.0
C      1  0.5666250000000  0.5458810000000  0.5257210000000 1.0
C      1  0.4923860000000  0.5579870000000  0.5645480000000 1.0
C      1  0.4555320000000  0.5276740000000  0.5497800000000 1.0
C      1  0.5433240000000  0.4829220000000  0.4323870000000 1.0
C      1  0.5164720000000  0.4843670000000  0.5327540000000 1.0
C      1  0.4386190000000  0.4446410000000  0.4916360000000 1.0
C      1  0.5110120000000  0.4255690000000  0.5222010000000 1.0
C      1  0.4687890000000  0.5534190000000  0.5497330000000 1.0
C      1  0.5694890000000  0.4997770000000  0.5333180000000 1.0
C      1  0.5358520000000  0.4562470000000  0.4382470000000 1.0
C      1  0.4127680000000  0.5080790000000  0.4779540000000 1.0
C      1  0.4629300000000  0.5333740000000  0.4552260000000 1.0
C      1  0.5169830000000  0.5178120000000  0.4815160000000 1.0
C      1  0.5066430000000  0.5069650000000  0.4566620000000 1.0
C      1  0.4539300000000  0.4793210000000  0.5511260000000 1.0
C      1  0.4766330000000  0.4324000000000  0.4688420000000 1.0
C      1  0.5066630000000  0.4306940000000  0.5503200000000 1.0
C      1  0.5627650000000  0.4994860000000  0.4471250000000 1.0
C      1  0.4989470000000  0.5053100000000  0.5449760000000 1.0
C      1  0.4867710000000  0.5386370000000  0.4361150000000 1.0
C      1  0.5576670000000  0.5619740000000  0.5030690000000 1.0
C      1  0.4789080000000  0.4376530000000  0.5456010000000 1.0
C      1  0.4722310000000  0.4897100000000  0.4794870000000 1.0
C      1  0.5772330000000  0.5218040000000  0.4884260000000 1.0
C      1  0.4848130000000  0.4407150000000  0.5157480000000 1.0
C      1  0.5133490000000  0.5807470000000  0.5253070000000 1.0
C      1  0.5037170000000  0.5173600000000  0.4295620000000 1.0
C      1  0.5346490000000  0.4959510000000  0.4904780000000 1.0
C      1  0.5043660000000  0.4293550000000  0.4619990000000 1.0
C      1  0.5291210000000  0.5649510000000  0.4540930000000 1.0
C      1  0.4635330000000  0.4631070000000  0.4278640000000 1.0
C      1  0.4689030000000  0.4576910000000  0.5627540000000 1.0
C      1  0.4191550000000  0.5354060000000  0.4692080000000 1.0
C      1  0.5146970000000  0.5718940000000  0.5521860000000 1.0
C      1  0.4739890000000  0.5471700000000  0.4823510000000 1.0
C      1  0.5558780000000  0.4553290000000  0.5433640000000 1.0
C      1  0.5520920000000  0.5478080000000  0.4538990000000 1.0
C      1  0.5767130000000  0.4722000000000  0.5330080000000 1.0
C      1  0.4918170000000  0.5699480000000  0.4720690000000 1.0
C      1  0.4240900000000  0.5217300000000  0.4269790000000 1.0
C      1  0.4340800000000  0.5387020000000  0.4456880000000 1.0
C      1  0.5302510000000  0.5093020000000  0.4251660000000 1.0
C      1  0.5331460000000  0.5534200000000  0.5659920000000 1.0
C      1  0.4290750000000  0.4890290000000  0.4615850000000 1.0
C      1  0.4558420000000  0.5042370000000  0.4628210000000 1.0
C      1  0.5512120000000  0.5381210000000  0.5497110000000 1.0
C      1  0.4371780000000  0.4595960000000  0.4676340000000 1.0
C      1  0.4189970000000  0.5062890000000  0.5322870000000 1.0
C      1  0.4656360000000  0.4333340000000  0.4945630000000 1.0
C      1  0.4990940000000  0.4725060000000  0.5109850000000 1.0
C      1  0.4946990000000  0.4898180000000  0.5897430000000 1.0
C      1  0.5755730000000  0.4578060000000  0.5078270000000 1.0
C      1  0.5770640000000  0.4699340000000  0.4823650000000 1.0
C      1  0.4528050000000  0.5548040000000  0.5013230000000 1.0
END
