TITL C-102202-7137-2 20.5204618528702 125000 -439.755865656925 0 0 65 (C1) n - 1
REM
REM in /rds/project/t2_vol4/rds-t2-cs072/BORA/CARBON/from-Arr/AIRSS/Generating-Clusters/GAP-ML-2020/Only-C1/SD-CG/HFTN-CG
REM
REM
REM
REM
REM
REM ./C.cell (11c1c37f851c82e70ff6c80c92926a4b)
REM AIRSS Version 0.9.1 bugfix July 2018 build 013d7b7c2542+ Fri, 06 Jul 2018 19:26:36 +0100
REM compiler GCC version 9.3.0
REM options -cpp -mtune=generic -march=x86-64 -g -O0
REM seed 988442532 1750750458 541267138 -1371377878 1751214296 991825079 -1878136682 639832987 469505204 -1271581246 1833174306 -601530536 -681710425 1207919414 -1619290591 1556243116 -1735969569 543353105 -1345132442 -1234122001 2057762674 172092868 98531304 -1276776035 -1837213631 1501233818 1285224321 2012049717 1736374448 -336249618 1326635654 1242294254 1384249224
REM
CELL 1.54180   50.00000   50.00000   50.00000   90.00000   90.00000   90.00000
LATT -1
SFAC C  
C      1  0.5330600000000  0.4466630000000  0.5341710000000 1.0
C      1  0.5109360000000  0.5666530000000  0.5367610000000 1.0
C      1  0.4857530000000  0.4827940000000  0.5620900000000 1.0
C      1  0.4791290000000  0.4784180000000  0.4820570000000 1.0
C      1  0.4636490000000  0.4381300000000  0.5164210000000 1.0
C      1  0.4723940000000  0.5371870000000  0.4613610000000 1.0
C      1  0.5399240000000  0.5350340000000  0.5621410000000 1.0
C      1  0.5494210000000  0.4742160000000  0.4725340000000 1.0
C      1  0.5213050000000  0.4764030000000  0.4407980000000 1.0
C      1  0.4844570000000  0.4366010000000  0.5369150000000 1.0
C      1  0.5062040000000  0.4663310000000  0.4867190000000 1.0
C      1  0.5500880000000  0.5162350000000  0.4965130000000 1.0
C      1  0.4849460000000  0.5130750000000  0.4503440000000 1.0
C      1  0.5247590000000  0.5024710000000  0.4295740000000 1.0
C      1  0.5040950000000  0.4538050000000  0.4460550000000 1.0
C      1  0.4721340000000  0.5074900000000  0.5570620000000 1.0
C      1  0.4414560000000  0.4865340000000  0.5238820000000 1.0
C      1  0.5652490000000  0.4900380000000  0.4908040000000 1.0
C      1  0.5329170000000  0.5024630000000  0.5173620000000 1.0
C      1  0.5380160000000  0.5552750000000  0.4875890000000 1.0
C      1  0.5338600000000  0.5295980000000  0.4722880000000 1.0
C      1  0.4697440000000  0.4885650000000  0.4531220000000 1.0
C      1  0.4614690000000  0.5600750000000  0.5333150000000 1.0
C      1  0.4805550000000  0.5768030000000  0.4987170000000 1.0
C      1  0.4918120000000  0.5564890000000  0.4539490000000 1.0
C      1  0.5174240000000  0.5213660000000  0.5328220000000 1.0
C      1  0.4585170000000  0.4499700000000  0.4712420000000 1.0
C      1  0.5510900000000  0.4866610000000  0.5337430000000 1.0
C      1  0.5349860000000  0.5474550000000  0.5369100000000 1.0
C      1  0.5207490000000  0.5769370000000  0.4891100000000 1.0
C      1  0.5220600000000  0.4843900000000  0.4680150000000 1.0
C      1  0.4911130000000  0.5020000000000  0.4970690000000 1.0
C      1  0.4726910000000  0.5201660000000  0.5106190000000 1.0
C      1  0.5117000000000  0.5445270000000  0.4357980000000 1.0
C      1  0.5163160000000  0.5174560000000  0.5636320000000 1.0
C      1  0.4371400000000  0.4694620000000  0.4772580000000 1.0
C      1  0.5100590000000  0.4130040000000  0.5075800000000 1.0
C      1  0.5339190000000  0.4705580000000  0.5505690000000 1.0
C      1  0.4753950000000  0.4599490000000  0.4482650000000 1.0
C      1  0.4742640000000  0.4600300000000  0.5498820000000 1.0
C      1  0.4858920000000  0.5527890000000  0.5458840000000 1.0
C      1  0.4421000000000  0.4934390000000  0.4609870000000 1.0
C      1  0.5428250000000  0.4472860000000  0.4821870000000 1.0
C      1  0.5058530000000  0.5812090000000  0.5137840000000 1.0
C      1  0.4316020000000  0.4890200000000  0.4977940000000 1.0
C      1  0.4967310000000  0.4210870000000  0.4851300000000 1.0
C      1  0.4886570000000  0.5292620000000  0.5630010000000 1.0
C      1  0.5110520000000  0.4284000000000  0.5301370000000 1.0
C      1  0.4571860000000  0.5346730000000  0.4877910000000 1.0
C      1  0.5079150000000  0.5114040000000  0.4732470000000 1.0
C      1  0.4690410000000  0.4304520000000  0.4893990000000 1.0
C      1  0.5350140000000  0.5285270000000  0.4425480000000 1.0
C      1  0.5499220000000  0.5434860000000  0.5102590000000 1.0
C      1  0.4372290000000  0.5131760000000  0.4813160000000 1.0
C      1  0.5145150000000  0.4398380000000  0.4708420000000 1.0
C      1  0.4568110000000  0.5088500000000  0.5333200000000 1.0
C      1  0.4957880000000  0.5748000000000  0.4741390000000 1.0
C      1  0.4944700000000  0.5348110000000  0.5221810000000 1.0
C      1  0.4528320000000  0.4616480000000  0.5304400000000 1.0
C      1  0.5097980000000  0.4845560000000  0.5105170000000 1.0
C      1  0.5017360000000  0.5192520000000  0.4270460000000 1.0
C      1  0.4585870000000  0.5609550000000  0.5055940000000 1.0
C      1  0.5141290000000  0.4872730000000  0.5635250000000 1.0
C      1  0.5656330000000  0.4731350000000  0.5136970000000 1.0
C      1  0.5499290000000  0.4493980000000  0.5101790000000 1.0
END
