TITL C-105733-8564-8 -162.941161155116 125000 -242.309543908225 0 0 37 (C1) n - 1
REM
REM in /rds/project/t2_vol4/rds-t2-cs072/BORA/CARBON/from-Arr/AIRSS/Generating-Clusters/GAP-ML-2020/Only-C1/SD-CG/HFTN-CG
REM
REM
REM
REM
REM
REM ./C.cell (11c1c37f851c82e70ff6c80c92926a4b)
REM AIRSS Version 0.9.1 bugfix July 2018 build 013d7b7c2542+ Fri, 06 Jul 2018 19:26:36 +0100
REM compiler GCC version 9.3.0
REM options -cpp -mtune=generic -march=x86-64 -g -O0
REM seed -1796664282 1017259488 -1796118059 -585110464 -113487295 1002142501 -358586884 1674140631 -1430311382 -1794511476 -1770337785 713636466 -477383524 -191946010 -295202965 -738098284 -326577890 288916460 -1918193605 642876575 146341063 -1380951228 119774485 -806314661 -612759449 -395495161 1284816699 999841756 -84977401 1959153358 -363110182 1250930375 1082484504
REM
CELL 1.54180   50.00000   50.00000   50.00000   90.00000   90.00000   90.00000
LATT -1
SFAC C  
C      1  0.4567240000000  0.5072230000000  0.5358110000000 1.0
C      1  0.4808370000000  0.4695740000000  0.4597870000000 1.0
C      1  0.5578230000000  0.5169230000000  0.4794260000000 1.0
C      1  0.4597420000000  0.4635300000000  0.5108340000000 1.0
C      1  0.4771610000000  0.4429910000000  0.5209470000000 1.0
C      1  0.4573570000000  0.5230350000000  0.5130200000000 1.0
C      1  0.5460880000000  0.5361490000000  0.4609900000000 1.0
C      1  0.4826600000000  0.5357150000000  0.4847570000000 1.0
C      1  0.4794850000000  0.4846260000000  0.5019630000000 1.0
C      1  0.4649220000000  0.4964740000000  0.4617470000000 1.0
C      1  0.4993350000000  0.5239780000000  0.5311620000000 1.0
C      1  0.5032130000000  0.5235510000000  0.4438040000000 1.0
C      1  0.4888090000000  0.4763920000000  0.4340230000000 1.0
C      1  0.5304750000000  0.5149350000000  0.4473690000000 1.0
C      1  0.4997970000000  0.5441700000000  0.4643460000000 1.0
C      1  0.4320310000000  0.4663200000000  0.5174250000000 1.0
C      1  0.5278150000000  0.4835660000000  0.5148100000000 1.0
C      1  0.4678790000000  0.5091240000000  0.4872790000000 1.0
C      1  0.5594820000000  0.5223030000000  0.5067990000000 1.0
C      1  0.4392110000000  0.4867030000000  0.5312550000000 1.0
C      1  0.5265470000000  0.5541340000000  0.4724470000000 1.0
C      1  0.4966430000000  0.4846580000000  0.5520180000000 1.0
C      1  0.4815040000000  0.5085950000000  0.5514360000000 1.0
C      1  0.5320150000000  0.5631780000000  0.4979530000000 1.0
C      1  0.4823300000000  0.5045110000000  0.4400580000000 1.0
C      1  0.5010810000000  0.4473520000000  0.5059020000000 1.0
C      1  0.5205820000000  0.4566230000000  0.5245750000000 1.0
C      1  0.4817290000000  0.5387640000000  0.5129020000000 1.0
C      1  0.5425400000000  0.5469510000000  0.5164760000000 1.0
C      1  0.5045140000000  0.4577900000000  0.5522900000000 1.0
C      1  0.5443910000000  0.5056260000000  0.5248790000000 1.0
C      1  0.5400860000000  0.4960020000000  0.4673880000000 1.0
C      1  0.5277920000000  0.5283470000000  0.5334940000000 1.0
C      1  0.4844010000000  0.4388070000000  0.5486000000000 1.0
C      1  0.5250460000000  0.4802250000000  0.4851250000000 1.0
C      1  0.4979790000000  0.4683710000000  0.4839830000000 1.0
C      1  0.4999760000000  0.4927840000000  0.5229220000000 1.0
END
