TITL C-102205-7239-6 -66.6565316740096 125000 -202.315247191751 0 0 31 (C1) n - 1
REM
REM in /rds/project/t2_vol4/rds-t2-cs072/BORA/CARBON/from-Arr/AIRSS/Generating-Clusters/GAP-ML-2020/Only-C1/SD-CG/HFTN-CG
REM
REM
REM
REM
REM
REM ./C.cell (11c1c37f851c82e70ff6c80c92926a4b)
REM AIRSS Version 0.9.1 bugfix July 2018 build 013d7b7c2542+ Fri, 06 Jul 2018 19:26:36 +0100
REM compiler GCC version 9.3.0
REM options -cpp -mtune=generic -march=x86-64 -g -O0
REM seed 286436928 1762943852 -399777596 804933766 -957154188 1399769169 -382392351 -1228305294 -863351323 -1590836138 -1458038877 1701627384 1724896617 -524229324 -1250704289 1213588768 -2056660287 -31899777 432354922 1695996777 1105959237 -2090962862 -1508917525 -991451202 -2108311702 27842007 -1741180197 -340734043 -268921851 -2078887067 1970568016 1657392429 2117754911
REM
CELL 1.54180   50.00000   50.00000   50.00000   90.00000   90.00000   90.00000
LATT -1
SFAC C  
C      1  0.5445900000000  0.5287210000000  0.4719660000000 1.0
C      1  0.5182140000000  0.5004510000000  0.5078020000000 1.0
C      1  0.4414240000000  0.5111780000000  0.5363160000000 1.0
C      1  0.4939530000000  0.4341820000000  0.5280430000000 1.0
C      1  0.4918240000000  0.4987660000000  0.5082220000000 1.0
C      1  0.4625500000000  0.4827220000000  0.4724520000000 1.0
C      1  0.4761930000000  0.4820810000000  0.5239090000000 1.0
C      1  0.4524170000000  0.5225830000000  0.4933920000000 1.0
C      1  0.4710290000000  0.5460650000000  0.5465980000000 1.0
C      1  0.4453770000000  0.4960370000000  0.4915870000000 1.0
C      1  0.4803810000000  0.4982410000000  0.4576630000000 1.0
C      1  0.5550740000000  0.5300660000000  0.4995660000000 1.0
C      1  0.4879730000000  0.5410430000000  0.5266970000000 1.0
C      1  0.4479100000000  0.4909280000000  0.5195010000000 1.0
C      1  0.5525480000000  0.5015930000000  0.4687240000000 1.0
C      1  0.5643320000000  0.5007790000000  0.4962170000000 1.0
C      1  0.5061680000000  0.5043050000000  0.4571790000000 1.0
C      1  0.4754190000000  0.4591310000000  0.4771780000000 1.0
C      1  0.5023000000000  0.4307210000000  0.5035480000000 1.0
C      1  0.5129610000000  0.5492940000000  0.5123880000000 1.0
C      1  0.4487420000000  0.5308510000000  0.5510910000000 1.0
C      1  0.5332950000000  0.4766620000000  0.5079210000000 1.0
C      1  0.4794700000000  0.5254260000000  0.5004490000000 1.0
C      1  0.5284950000000  0.4861830000000  0.4626380000000 1.0
C      1  0.5399690000000  0.5461590000000  0.5158950000000 1.0
C      1  0.5162810000000  0.5304220000000  0.4669540000000 1.0
C      1  0.5610730000000  0.4796350000000  0.5125690000000 1.0
C      1  0.5011270000000  0.5410930000000  0.4869150000000 1.0
C      1  0.5229080000000  0.4661680000000  0.4817760000000 1.0
C      1  0.4852090000000  0.4585460000000  0.5322080000000 1.0
C      1  0.5007960000000  0.4499690000000  0.4826370000000 1.0
END
