TITL C-107212-8260-3 -37.4268216535811 125000 -650.256368719287 0 0 93 (C1) n - 1
REM
REM in /rds/project/t2_vol4/rds-t2-cs072/BORA/CARBON/from-Arr/AIRSS/Generating-Clusters/GAP-ML-2020/Only-C1/SD-CG/HFTN-CG
REM
REM
REM
REM
REM
REM ./C.cell (11c1c37f851c82e70ff6c80c92926a4b)
REM AIRSS Version 0.9.1 bugfix July 2018 build 013d7b7c2542+ Fri, 06 Jul 2018 19:26:36 +0100
REM compiler GCC version 9.3.0
REM options -cpp -mtune=generic -march=x86-64 -g -O0
REM seed -1660643225 -2079620366 -698141959 118681117 728892777 614294462 398689688 1940502466 -1796909281 -1132250118 -1233262276 91853969 610896780 -750792640 -1353094579 744058559 -185387162 118370832 -722879317 122769748 -125446416 297784487 1574350304 -1543238805 520723558 -1564556841 993656412 -356067798 -1868662472 -706152891 -1280738533 -1003708784 1993050886
REM
CELL 1.54180   50.00000   50.00000   50.00000   90.00000   90.00000   90.00000
LATT -1
SFAC C  
C      1  0.4495090000000  0.4476410000000  0.4634380000000 1.0
C      1  0.5051420000000  0.4843650000000  0.5344060000000 1.0
C      1  0.5148590000000  0.5438330000000  0.5715590000000 1.0
C      1  0.4335710000000  0.5424320000000  0.4769590000000 1.0
C      1  0.4885830000000  0.5274000000000  0.5294070000000 1.0
C      1  0.5697450000000  0.4393970000000  0.5433250000000 1.0
C      1  0.4306310000000  0.5234740000000  0.4286780000000 1.0
C      1  0.4808150000000  0.4305740000000  0.5304680000000 1.0
C      1  0.5084470000000  0.4368050000000  0.5396300000000 1.0
C      1  0.5187640000000  0.5018390000000  0.4190030000000 1.0
C      1  0.5559450000000  0.5482090000000  0.4627770000000 1.0
C      1  0.5899710000000  0.4873200000000  0.4869140000000 1.0
C      1  0.4293280000000  0.5343230000000  0.5216430000000 1.0
C      1  0.5456200000000  0.5053730000000  0.4292760000000 1.0
C      1  0.5617720000000  0.4584310000000  0.4577540000000 1.0
C      1  0.5381400000000  0.4418690000000  0.4509220000000 1.0
C      1  0.5037640000000  0.5752740000000  0.5328750000000 1.0
C      1  0.5402970000000  0.4714710000000  0.5645290000000 1.0
C      1  0.4557560000000  0.4687130000000  0.4858670000000 1.0
C      1  0.4425300000000  0.5336760000000  0.5465360000000 1.0
C      1  0.5247390000000  0.5779880000000  0.5124460000000 1.0
C      1  0.5132700000000  0.4628820000000  0.5561010000000 1.0
C      1  0.5228300000000  0.5608410000000  0.5502590000000 1.0
C      1  0.4228810000000  0.4643780000000  0.4698340000000 1.0
C      1  0.4150640000000  0.5036830000000  0.4347520000000 1.0
C      1  0.5650440000000  0.5352120000000  0.4862210000000 1.0
C      1  0.5560770000000  0.4291870000000  0.5215680000000 1.0
C      1  0.4506360000000  0.4630550000000  0.5556700000000 1.0
C      1  0.5522320000000  0.4711880000000  0.5164530000000 1.0
C      1  0.4540740000000  0.5370610000000  0.4354640000000 1.0
C      1  0.4832020000000  0.4281160000000  0.5007170000000 1.0
C      1  0.5115640000000  0.4226130000000  0.4954800000000 1.0
C      1  0.5466200000000  0.4988790000000  0.5709630000000 1.0
C      1  0.5563370000000  0.5370210000000  0.5156660000000 1.0
C      1  0.4812210000000  0.5002060000000  0.4552630000000 1.0
C      1  0.5118820000000  0.5270350000000  0.4890620000000 1.0
C      1  0.4870170000000  0.5287340000000  0.5018600000000 1.0
C      1  0.5259310000000  0.5166530000000  0.5804590000000 1.0
C      1  0.4217810000000  0.5104640000000  0.5075030000000 1.0
C      1  0.4826920000000  0.4586900000000  0.4933280000000 1.0
C      1  0.5637220000000  0.4497150000000  0.5023450000000 1.0
C      1  0.5157040000000  0.5681640000000  0.4469110000000 1.0
C      1  0.4374600000000  0.5536250000000  0.5026340000000 1.0
C      1  0.4755500000000  0.5701310000000  0.5294020000000 1.0
C      1  0.4594150000000  0.4415390000000  0.5418940000000 1.0
C      1  0.4705500000000  0.4485170000000  0.4431480000000 1.0
C      1  0.5469490000000  0.5333200000000  0.4388030000000 1.0
C      1  0.5430620000000  0.5614600000000  0.5279870000000 1.0
C      1  0.4219140000000  0.4845280000000  0.5188780000000 1.0
C      1  0.4605230000000  0.4972780000000  0.4787080000000 1.0
C      1  0.4673990000000  0.4246880000000  0.4748850000000 1.0
C      1  0.5311260000000  0.5176010000000  0.5117370000000 1.0
C      1  0.4967750000000  0.5787810000000  0.4676390000000 1.0
C      1  0.5784450000000  0.4603570000000  0.4806350000000 1.0
C      1  0.4799800000000  0.5182500000000  0.5860220000000 1.0
C      1  0.4696050000000  0.5465850000000  0.5473510000000 1.0
C      1  0.5677070000000  0.5061500000000  0.4844500000000 1.0
C      1  0.4332120000000  0.4839160000000  0.5451420000000 1.0
C      1  0.5117830000000  0.5113620000000  0.5341670000000 1.0
C      1  0.4608410000000  0.5703950000000  0.5037180000000 1.0
C      1  0.4398750000000  0.5084290000000  0.5589040000000 1.0
C      1  0.5031140000000  0.4615330000000  0.4709800000000 1.0
C      1  0.4672060000000  0.4752900000000  0.5760370000000 1.0
C      1  0.4956170000000  0.4744540000000  0.5784080000000 1.0
C      1  0.5542830000000  0.4783810000000  0.4364930000000 1.0
C      1  0.5381780000000  0.5707670000000  0.4650600000000 1.0
C      1  0.4515120000000  0.5549750000000  0.4591900000000 1.0
C      1  0.4582770000000  0.5020220000000  0.5793450000000 1.0
C      1  0.4858870000000  0.5424010000000  0.5728650000000 1.0
C      1  0.4887930000000  0.4722950000000  0.4440310000000 1.0
C      1  0.5207110000000  0.5825770000000  0.4852930000000 1.0
C      1  0.5681420000000  0.4988810000000  0.5515340000000 1.0
C      1  0.4309920000000  0.5121770000000  0.4794960000000 1.0
C      1  0.5031690000000  0.5254250000000  0.4210650000000 1.0
C      1  0.5622400000000  0.4691280000000  0.5447310000000 1.0
C      1  0.4866390000000  0.4272100000000  0.4548330000000 1.0
C      1  0.5167920000000  0.4847360000000  0.4858960000000 1.0
C      1  0.5428360000000  0.4927580000000  0.4994970000000 1.0
C      1  0.4779790000000  0.5211030000000  0.4337580000000 1.0
C      1  0.4694260000000  0.5723900000000  0.4748080000000 1.0
C      1  0.5092430000000  0.4756380000000  0.4237920000000 1.0
C      1  0.5263740000000  0.4256570000000  0.5198860000000 1.0
C      1  0.4188400000000  0.4920240000000  0.4600750000000 1.0
C      1  0.5891630000000  0.5022520000000  0.5096410000000 1.0
C      1  0.5322810000000  0.4604310000000  0.4296090000000 1.0
C      1  0.5217930000000  0.5454150000000  0.4304610000000 1.0
C      1  0.4755240000000  0.5033540000000  0.5027590000000 1.0
C      1  0.5756280000000  0.5163060000000  0.5298550000000 1.0
C      1  0.4950240000000  0.4816840000000  0.5078640000000 1.0
C      1  0.4284000000000  0.4664480000000  0.4980050000000 1.0
C      1  0.5086810000000  0.5070040000000  0.4696520000000 1.0
C      1  0.5144390000000  0.4332420000000  0.4669340000000 1.0
C      1  0.5029340000000  0.5009430000000  0.5877520000000 1.0
END
