TITL C-105715-9896-2 228.876070130988 125000 -944.888567975487 0 0 135 (C1) n - 1
REM
REM in /rds/project/t2_vol4/rds-t2-cs072/BORA/CARBON/from-Arr/AIRSS/Generating-Clusters/GAP-ML-2020/Only-C1/SD-CG/HFTN-CG
REM
REM
REM
REM
REM
REM ./C.cell (11c1c37f851c82e70ff6c80c92926a4b)
REM AIRSS Version 0.9.1 bugfix July 2018 build 013d7b7c2542+ Fri, 06 Jul 2018 19:26:36 +0100
REM compiler GCC version 9.3.0
REM options -cpp -mtune=generic -march=x86-64 -g -O0
REM seed -1565687608 -1282615212 -1513678542 1224888152 -573204192 1433700295 -2007716797 -683369752 -964031154 2026442134 -1453726477 -2138228154 -1664468672 -1437170644 1278896362 -131329953 159588799 -1775455852 -46426832 1153876147 1988467432 1856670003 -136207985 -537523458 613422555 -1548238914 -40682867 -1171431116 348683881 1714948915 -573795453 1263781433 -421723346
REM
CELL 1.54180   50.00000   50.00000   50.00000   90.00000   90.00000   90.00000
LATT -1
SFAC C  
C      1  0.5836590000000  0.5304610000000  0.4950620000000 1.0
C      1  0.4295980000000  0.4678230000000  0.5545780000000 1.0
C      1  0.4335350000000  0.4318250000000  0.5227110000000 1.0
C      1  0.5347640000000  0.4290660000000  0.4329050000000 1.0
C      1  0.5324610000000  0.5386290000000  0.4716150000000 1.0
C      1  0.4421200000000  0.4256220000000  0.4665490000000 1.0
C      1  0.4855250000000  0.4697050000000  0.4086340000000 1.0
C      1  0.4821470000000  0.4644840000000  0.5296140000000 1.0
C      1  0.5799580000000  0.5578720000000  0.5097250000000 1.0
C      1  0.5579390000000  0.4757540000000  0.4367390000000 1.0
C      1  0.4936370000000  0.5359010000000  0.4974450000000 1.0
C      1  0.5392920000000  0.5034140000000  0.5014970000000 1.0
C      1  0.4822170000000  0.5358140000000  0.6037170000000 1.0
C      1  0.5638390000000  0.5262960000000  0.4326690000000 1.0
C      1  0.4858090000000  0.5777010000000  0.4432420000000 1.0
C      1  0.5313120000000  0.4542480000000  0.5620180000000 1.0
C      1  0.5423570000000  0.5280260000000  0.5958250000000 1.0
C      1  0.5050990000000  0.5624270000000  0.5659030000000 1.0
C      1  0.4473140000000  0.5782030000000  0.4702680000000 1.0
C      1  0.4193740000000  0.5204150000000  0.5461870000000 1.0
C      1  0.5203140000000  0.4556880000000  0.4733190000000 1.0
C      1  0.4610840000000  0.5062630000000  0.5356760000000 1.0
C      1  0.4397950000000  0.5297700000000  0.5012930000000 1.0
C      1  0.4971270000000  0.4909850000000  0.4986730000000 1.0
C      1  0.5646990000000  0.5589820000000  0.5341930000000 1.0
C      1  0.5294950000000  0.5529810000000  0.5994790000000 1.0
C      1  0.5828840000000  0.4865270000000  0.5496570000000 1.0
C      1  0.5487230000000  0.4295080000000  0.5237150000000 1.0
C      1  0.5608720000000  0.5562190000000  0.5622450000000 1.0
C      1  0.4072150000000  0.5407430000000  0.4746650000000 1.0
C      1  0.4038130000000  0.4972100000000  0.4998250000000 1.0
C      1  0.5033420000000  0.5626710000000  0.4273520000000 1.0
C      1  0.5350700000000  0.5654490000000  0.5736090000000 1.0
C      1  0.4736410000000  0.4065830000000  0.5267370000000 1.0
C      1  0.5214850000000  0.5123510000000  0.4601050000000 1.0
C      1  0.4963440000000  0.5806860000000  0.4698470000000 1.0
C      1  0.5426760000000  0.5847840000000  0.4866790000000 1.0
C      1  0.5299860000000  0.5693360000000  0.4387040000000 1.0
C      1  0.4756400000000  0.5774900000000  0.5149760000000 1.0
C      1  0.5349490000000  0.4777600000000  0.5166840000000 1.0
C      1  0.4977990000000  0.5382680000000  0.5458770000000 1.0
C      1  0.5737880000000  0.5601120000000  0.4629910000000 1.0
C      1  0.5405760000000  0.4952600000000  0.4740890000000 1.0
C      1  0.4589800000000  0.5358490000000  0.4214900000000 1.0
C      1  0.4345490000000  0.4613640000000  0.4851740000000 1.0
C      1  0.5148070000000  0.4704310000000  0.4098240000000 1.0
C      1  0.4911470000000  0.4246720000000  0.5645450000000 1.0
C      1  0.4530250000000  0.5079530000000  0.4169040000000 1.0
C      1  0.5098750000000  0.4179110000000  0.4423680000000 1.0
C      1  0.5699260000000  0.4576330000000  0.4828640000000 1.0
C      1  0.4368200000000  0.4970380000000  0.5565930000000 1.0
C      1  0.5244750000000  0.5715270000000  0.5074410000000 1.0
C      1  0.4344330000000  0.5457060000000  0.5445670000000 1.0
C      1  0.4781820000000  0.5118610000000  0.5872890000000 1.0
C      1  0.5962540000000  0.4923200000000  0.5260180000000 1.0
C      1  0.4791450000000  0.4788630000000  0.4645010000000 1.0
C      1  0.4454000000000  0.4331000000000  0.4959320000000 1.0
C      1  0.4646740000000  0.5836480000000  0.5430760000000 1.0
C      1  0.4053650000000  0.5112810000000  0.4724630000000 1.0
C      1  0.4834660000000  0.4329930000000  0.4397980000000 1.0
C      1  0.4745610000000  0.4223650000000  0.5014090000000 1.0
C      1  0.5650070000000  0.5310640000000  0.5766410000000 1.0
C      1  0.4423730000000  0.5550480000000  0.4354960000000 1.0
C      1  0.5401380000000  0.5484720000000  0.5212430000000 1.0
C      1  0.4873790000000  0.5407670000000  0.4155890000000 1.0
C      1  0.5200580000000  0.4193930000000  0.5186470000000 1.0
C      1  0.4954830000000  0.4566960000000  0.4590630000000 1.0
C      1  0.5197050000000  0.4984400000000  0.4082250000000 1.0
C      1  0.4142570000000  0.4712890000000  0.5049370000000 1.0
C      1  0.4491470000000  0.5117430000000  0.4798330000000 1.0
C      1  0.5523970000000  0.5020960000000  0.4238380000000 1.0
C      1  0.4816160000000  0.4074670000000  0.4771140000000 1.0
C      1  0.5251560000000  0.4068740000000  0.4909220000000 1.0
C      1  0.5025050000000  0.4935540000000  0.5936490000000 1.0
C      1  0.4414350000000  0.5711310000000  0.5509370000000 1.0
C      1  0.5262560000000  0.5866970000000  0.4624500000000 1.0
C      1  0.4985830000000  0.4102450000000  0.5402200000000 1.0
C      1  0.5503740000000  0.4194730000000  0.4527340000000 1.0
C      1  0.5629780000000  0.4334260000000  0.4981840000000 1.0
C      1  0.4969020000000  0.4826640000000  0.5475660000000 1.0
C      1  0.4932160000000  0.4667670000000  0.5903290000000 1.0
C      1  0.4708710000000  0.4854680000000  0.5131930000000 1.0
C      1  0.4845220000000  0.5109010000000  0.5542690000000 1.0
C      1  0.5361330000000  0.5046850000000  0.5567200000000 1.0
C      1  0.4684660000000  0.4516160000000  0.4217900000000 1.0
C      1  0.4269560000000  0.5573970000000  0.4612540000000 1.0
C      1  0.4967740000000  0.5152130000000  0.4053530000000 1.0
C      1  0.4566000000000  0.4823380000000  0.4860670000000 1.0
C      1  0.5261530000000  0.4792270000000  0.5458330000000 1.0
C      1  0.4474160000000  0.4522520000000  0.5716240000000 1.0
C      1  0.4437540000000  0.4626330000000  0.4334020000000 1.0
C      1  0.4759940000000  0.5243000000000  0.4750240000000 1.0
C      1  0.4632620000000  0.4693420000000  0.5873840000000 1.0
C      1  0.4659820000000  0.4164160000000  0.4556100000000 1.0
C      1  0.5225940000000  0.5272670000000  0.5356040000000 1.0
C      1  0.5470320000000  0.4679940000000  0.4660030000000 1.0
C      1  0.4613610000000  0.4285960000000  0.5638950000000 1.0
C      1  0.5126620000000  0.5144540000000  0.5096900000000 1.0
C      1  0.4279230000000  0.5045210000000  0.4571170000000 1.0
C      1  0.4131130000000  0.5404210000000  0.5020540000000 1.0
C      1  0.4706560000000  0.5834830000000  0.4864350000000 1.0
C      1  0.5076200000000  0.4449260000000  0.5765730000000 1.0
C      1  0.4078510000000  0.5183060000000  0.5194220000000 1.0
C      1  0.5271320000000  0.5057220000000  0.5866190000000 1.0
C      1  0.5103960000000  0.5558920000000  0.4846500000000 1.0
C      1  0.5033490000000  0.5848860000000  0.5234390000000 1.0
C      1  0.5499110000000  0.4153840000000  0.4797720000000 1.0
C      1  0.4936100000000  0.5851660000000  0.5508300000000 1.0
C      1  0.4541770000000  0.4954110000000  0.5825060000000 1.0
C      1  0.5681000000000  0.5730990000000  0.4876140000000 1.0
C      1  0.5854520000000  0.5168470000000  0.4480460000000 1.0
C      1  0.5370140000000  0.4563200000000  0.4222750000000 1.0
C      1  0.4760090000000  0.4963410000000  0.4050640000000 1.0
C      1  0.4584210000000  0.5773640000000  0.4430100000000 1.0
C      1  0.4375400000000  0.4908650000000  0.4335660000000 1.0
C      1  0.4512530000000  0.4172220000000  0.5403550000000 1.0
C      1  0.4802110000000  0.5472050000000  0.5213920000000 1.0
C      1  0.4938410000000  0.5029470000000  0.4682880000000 1.0
C      1  0.5843480000000  0.4892680000000  0.4533620000000 1.0
C      1  0.5936380000000  0.5016510000000  0.5008950000000 1.0
C      1  0.4332180000000  0.4502330000000  0.4567280000000 1.0
C      1  0.5076490000000  0.4048630000000  0.4685300000000 1.0
C      1  0.5004200000000  0.5534050000000  0.5956890000000 1.0
C      1  0.5890970000000  0.5366810000000  0.4679340000000 1.0
C      1  0.5551200000000  0.4421630000000  0.5496560000000 1.0
C      1  0.5750580000000  0.4601020000000  0.5542710000000 1.0
C      1  0.4542080000000  0.5334360000000  0.5251100000000 1.0
C      1  0.4971090000000  0.4438260000000  0.5129970000000 1.0
C      1  0.4201660000000  0.4568220000000  0.5298120000000 1.0
C      1  0.5654390000000  0.5064360000000  0.5619920000000 1.0
C      1  0.5496990000000  0.5309220000000  0.4970420000000 1.0
C      1  0.5882400000000  0.4806750000000  0.4803480000000 1.0
C      1  0.5277970000000  0.5123260000000  0.4306530000000 1.0
C      1  0.5518510000000  0.5507940000000  0.4461850000000 1.0
C      1  0.5135080000000  0.4648390000000  0.4998850000000 1.0
END
