TITL C-107224-8428-6 0.138791819564489 125000 -222.185339357496 0 0 32 (C1) n - 1
REM
REM in /rds/project/t2_vol4/rds-t2-cs072/BORA/CARBON/from-Arr/AIRSS/Generating-Clusters/GAP-ML-2020/Only-C1/SD-CG/HFTN-CG
REM
REM
REM
REM
REM
REM ./C.cell (11c1c37f851c82e70ff6c80c92926a4b)
REM AIRSS Version 0.9.1 bugfix July 2018 build 013d7b7c2542+ Fri, 06 Jul 2018 19:26:36 +0100
REM compiler GCC version 9.3.0
REM options -cpp -mtune=generic -march=x86-64 -g -O0
REM seed -612465604 -1073558405 -458099491 552561016 -1040414776 791101162 -449003334 -1652070850 -737014661 -1744370513 -1753391904 -319267089 612859964 -1677701272 -1509040259 1485372897 926607321 -1429024582 18722998 1878496261 463758484 305014372 -47814622 -592304699 -170238113 -5036144 -1011908542 -506989571 1160131242 -1473761364 2092824652 -1074730403 -597884930
REM
CELL 1.54180   50.00000   50.00000   50.00000   90.00000   90.00000   90.00000
LATT -1
SFAC C  
C      1  0.4828970000000  0.4904840000000  0.5576320000000 1.0
C      1  0.5000950000000  0.5163520000000  0.4450480000000 1.0
C      1  0.5480170000000  0.4779610000000  0.4930500000000 1.0
C      1  0.4478530000000  0.5322110000000  0.5071680000000 1.0
C      1  0.4800370000000  0.4578190000000  0.4819620000000 1.0
C      1  0.5454640000000  0.4975660000000  0.4713680000000 1.0
C      1  0.4624240000000  0.5032930000000  0.4707480000000 1.0
C      1  0.5163460000000  0.5346080000000  0.4602220000000 1.0
C      1  0.5138000000000  0.5486270000000  0.5160980000000 1.0
C      1  0.4777870000000  0.4793150000000  0.4633870000000 1.0
C      1  0.4904460000000  0.5530450000000  0.4996100000000 1.0
C      1  0.5364410000000  0.5325310000000  0.5053510000000 1.0
C      1  0.4633050000000  0.5516270000000  0.5103960000000 1.0
C      1  0.4511270000000  0.4823180000000  0.5144530000000 1.0
C      1  0.4918240000000  0.5463740000000  0.4723760000000 1.0
C      1  0.5068680000000  0.4504490000000  0.4923030000000 1.0
C      1  0.4501230000000  0.5053440000000  0.4972740000000 1.0
C      1  0.4757190000000  0.5261050000000  0.4587150000000 1.0
C      1  0.5423230000000  0.5133020000000  0.5255680000000 1.0
C      1  0.5372650000000  0.5244480000000  0.4773040000000 1.0
C      1  0.4776980000000  0.4534140000000  0.5285390000000 1.0
C      1  0.5224930000000  0.4716320000000  0.5352210000000 1.0
C      1  0.5103890000000  0.4917750000000  0.5529910000000 1.0
C      1  0.5017710000000  0.4882330000000  0.4490870000000 1.0
C      1  0.4665440000000  0.4768560000000  0.5409180000000 1.0
C      1  0.4626410000000  0.4582790000000  0.5041290000000 1.0
C      1  0.5291720000000  0.4600470000000  0.4792480000000 1.0
C      1  0.5270470000000  0.4790760000000  0.4571850000000 1.0
C      1  0.5052690000000  0.4529400000000  0.5218780000000 1.0
C      1  0.5106110000000  0.5415120000000  0.5440290000000 1.0
C      1  0.5232070000000  0.5172290000000  0.5473080000000 1.0
C      1  0.5429990000000  0.4852290000000  0.5194350000000 1.0
END
