TITL C-105732-8630-2 -0.0583129184802013 125000 -402.838349497272 0 0 59 (C1) n - 1
REM
REM in /rds/project/t2_vol4/rds-t2-cs072/BORA/CARBON/from-Arr/AIRSS/Generating-Clusters/GAP-ML-2020/Only-C1/SD-CG/HFTN-CG
REM
REM
REM
REM
REM
REM ./C.cell (11c1c37f851c82e70ff6c80c92926a4b)
REM AIRSS Version 0.9.1 bugfix July 2018 build 013d7b7c2542+ Fri, 06 Jul 2018 19:26:36 +0100
REM compiler GCC version 9.3.0
REM options -cpp -mtune=generic -march=x86-64 -g -O0
REM seed -1262247698 -392450796 1089411373 -824547800 105302932 -1672430119 -725202096 8054413 -1971395035 -1235671186 1252450541 526825851 -1989403434 311070845 -512017713 362952156 -785083625 -1262220925 276618536 -402384852 21553054 1146076205 -2126191089 -1823366861 -1745956181 814642295 1159035696 15452026 1975984784 -1164830288 -98708610 -1518971682 2112861504
REM
CELL 1.54180   50.00000   50.00000   50.00000   90.00000   90.00000   90.00000
LATT -1
SFAC C  
C      1  0.5015280000000  0.5587950000000  0.5076350000000 1.0
C      1  0.5797200000000  0.5074260000000  0.5028170000000 1.0
C      1  0.4686270000000  0.4819230000000  0.5675620000000 1.0
C      1  0.4954680000000  0.4905240000000  0.4385370000000 1.0
C      1  0.5369510000000  0.5204140000000  0.4446630000000 1.0
C      1  0.5014020000000  0.4858720000000  0.4893730000000 1.0
C      1  0.4660200000000  0.4544400000000  0.5638230000000 1.0
C      1  0.4999220000000  0.5003650000000  0.5288360000000 1.0
C      1  0.5186120000000  0.4521980000000  0.4511500000000 1.0
C      1  0.5685420000000  0.5006300000000  0.4778780000000 1.0
C      1  0.4880970000000  0.4469490000000  0.5494140000000 1.0
C      1  0.4840270000000  0.5547160000000  0.5302730000000 1.0
C      1  0.5038590000000  0.5141740000000  0.5559990000000 1.0
C      1  0.5397440000000  0.5435310000000  0.4781520000000 1.0
C      1  0.4579650000000  0.5719830000000  0.4962000000000 1.0
C      1  0.5595830000000  0.5115450000000  0.5196710000000 1.0
C      1  0.5698710000000  0.4560290000000  0.5187440000000 1.0
C      1  0.5081640000000  0.4670280000000  0.5575530000000 1.0
C      1  0.5178350000000  0.4327690000000  0.4711400000000 1.0
C      1  0.4247560000000  0.4935840000000  0.5022370000000 1.0
C      1  0.4567040000000  0.5234040000000  0.5471650000000 1.0
C      1  0.4930060000000  0.4381920000000  0.5220450000000 1.0
C      1  0.5111830000000  0.4596950000000  0.5091180000000 1.0
C      1  0.4715640000000  0.4897580000000  0.4936590000000 1.0
C      1  0.5647340000000  0.4675850000000  0.5413000000000 1.0
C      1  0.5066000000000  0.5637850000000  0.4441590000000 1.0
C      1  0.4620030000000  0.5252570000000  0.4572150000000 1.0
C      1  0.5453680000000  0.4919820000000  0.5386680000000 1.0
C      1  0.4419530000000  0.5654910000000  0.4746560000000 1.0
C      1  0.5235100000000  0.5393350000000  0.5026750000000 1.0
C      1  0.5567360000000  0.4550600000000  0.4929980000000 1.0
C      1  0.5326320000000  0.5171010000000  0.5501020000000 1.0
C      1  0.4960840000000  0.4897240000000  0.5704970000000 1.0
C      1  0.4569360000000  0.5592080000000  0.5208880000000 1.0
C      1  0.4564200000000  0.4957290000000  0.5465100000000 1.0
C      1  0.4849480000000  0.5687170000000  0.4598170000000 1.0
C      1  0.4308220000000  0.4706320000000  0.4922120000000 1.0
C      1  0.5408120000000  0.5317270000000  0.5267390000000 1.0
C      1  0.4740810000000  0.4498010000000  0.4655920000000 1.0
C      1  0.4422520000000  0.5356710000000  0.5260430000000 1.0
C      1  0.5250080000000  0.4956010000000  0.4396680000000 1.0
C      1  0.5381600000000  0.4728700000000  0.4508630000000 1.0
C      1  0.5247820000000  0.5462160000000  0.4526790000000 1.0
C      1  0.5310080000000  0.4437200000000  0.4932460000000 1.0
C      1  0.5120960000000  0.5080150000000  0.5023620000000 1.0
C      1  0.4831410000000  0.5352480000000  0.5509670000000 1.0
C      1  0.4893800000000  0.4284560000000  0.4778070000000 1.0
C      1  0.4924790000000  0.4628040000000  0.4473140000000 1.0
C      1  0.4575880000000  0.5146340000000  0.4836260000000 1.0
C      1  0.4731400000000  0.4925320000000  0.5234330000000 1.0
C      1  0.5559360000000  0.5225930000000  0.4663200000000 1.0
C      1  0.5189240000000  0.4767750000000  0.5325450000000 1.0
C      1  0.4777070000000  0.5102980000000  0.4410540000000 1.0
C      1  0.4861970000000  0.5727560000000  0.4882420000000 1.0
C      1  0.4853180000000  0.4196380000000  0.5035930000000 1.0
C      1  0.5583290000000  0.4744850000000  0.4714230000000 1.0
C      1  0.4354490000000  0.5193180000000  0.5025970000000 1.0
C      1  0.4567470000000  0.4669520000000  0.4822120000000 1.0
C      1  0.4595690000000  0.5543420000000  0.4563340000000 1.0
END
