TITL C-102218-7107-5 -0.0485286419535114 125000 -242.666397628407 0 0 37 (C1) n - 1
REM
REM in /rds/project/t2_vol4/rds-t2-cs072/BORA/CARBON/from-Arr/AIRSS/Generating-Clusters/GAP-ML-2020/Only-C1/SD-CG/HFTN-CG
REM
REM
REM
REM
REM
REM ./C.cell (11c1c37f851c82e70ff6c80c92926a4b)
REM AIRSS Version 0.9.1 bugfix July 2018 build 013d7b7c2542+ Fri, 06 Jul 2018 19:26:36 +0100
REM compiler GCC version 9.3.0
REM options -cpp -mtune=generic -march=x86-64 -g -O0
REM seed -990629919 -292011477 -874907485 -1915138083 1949393026 -848631973 -1687554573 -1191789026 -1841391294 -1239102903 -158976194 1988387284 -851616664 1802778051 -1674325179 -1391282035 -1460039451 803220809 370868077 1051950974 -910291467 1563987584 1883653854 -172316334 -59405700 1833095944 857582369 706376303 -1354897911 2139822391 -1849274584 -289067320 1858823276
REM
CELL 1.54180   50.00000   50.00000   50.00000   90.00000   90.00000   90.00000
LATT -1
SFAC C  
C      1  0.5533440000000  0.4912810000000  0.5233450000000 1.0
C      1  0.4705390000000  0.5381780000000  0.4551350000000 1.0
C      1  0.4779170000000  0.4864380000000  0.5654400000000 1.0
C      1  0.5097480000000  0.5099520000000  0.4694760000000 1.0
C      1  0.4989070000000  0.5269840000000  0.5521300000000 1.0
C      1  0.5169260000000  0.5485150000000  0.5525190000000 1.0
C      1  0.4803200000000  0.4953160000000  0.4330270000000 1.0
C      1  0.4862440000000  0.4650900000000  0.5472240000000 1.0
C      1  0.5150870000000  0.4626230000000  0.4818020000000 1.0
C      1  0.4603160000000  0.5032370000000  0.5495800000000 1.0
C      1  0.5207330000000  0.4444760000000  0.5011020000000 1.0
C      1  0.5029020000000  0.5007840000000  0.5620330000000 1.0
C      1  0.4929560000000  0.4936610000000  0.5169090000000 1.0
C      1  0.4408930000000  0.4922530000000  0.5344020000000 1.0
C      1  0.4750970000000  0.4681990000000  0.5205180000000 1.0
C      1  0.5694410000000  0.5059030000000  0.4798510000000 1.0
C      1  0.4753970000000  0.4761880000000  0.4743040000000 1.0
C      1  0.5155090000000  0.4674120000000  0.4530760000000 1.0
C      1  0.5191470000000  0.5346280000000  0.4843490000000 1.0
C      1  0.4828070000000  0.5613440000000  0.4656300000000 1.0
C      1  0.5350170000000  0.4450540000000  0.5226510000000 1.0
C      1  0.4504690000000  0.4837630000000  0.4843840000000 1.0
C      1  0.5561460000000  0.4976480000000  0.4598820000000 1.0
C      1  0.4445980000000  0.5287210000000  0.4612410000000 1.0
C      1  0.5302490000000  0.4922200000000  0.4533280000000 1.0
C      1  0.5300630000000  0.5441010000000  0.5311410000000 1.0
C      1  0.5104620000000  0.4831400000000  0.5397570000000 1.0
C      1  0.4492290000000  0.4769170000000  0.5129030000000 1.0
C      1  0.4408500000000  0.5061230000000  0.4719100000000 1.0
C      1  0.4796430000000  0.5182040000000  0.5323920000000 1.0
C      1  0.4887940000000  0.5174690000000  0.4483830000000 1.0
C      1  0.5038730000000  0.5564960000000  0.4790060000000 1.0
C      1  0.4871060000000  0.4735930000000  0.4476670000000 1.0
C      1  0.5568510000000  0.5109210000000  0.5055180000000 1.0
C      1  0.5364330000000  0.4726840000000  0.5327010000000 1.0
C      1  0.5365400000000  0.5325610000000  0.5067850000000 1.0
C      1  0.4994470000000  0.4879240000000  0.4884990000000 1.0
END
