TITL C-105738-8576-4 -0.0625075075268229 125000 -314.131712173261 0 0 48 (C1) n - 1
REM
REM in /rds/project/t2_vol4/rds-t2-cs072/BORA/CARBON/from-Arr/AIRSS/Generating-Clusters/GAP-ML-2020/Only-C1/SD-CG/HFTN-CG
REM
REM
REM
REM
REM
REM ./C.cell (11c1c37f851c82e70ff6c80c92926a4b)
REM AIRSS Version 0.9.1 bugfix July 2018 build 013d7b7c2542+ Fri, 06 Jul 2018 19:26:36 +0100
REM compiler GCC version 9.3.0
REM options -cpp -mtune=generic -march=x86-64 -g -O0
REM seed -117879794 -399096037 959749223 -1717614272 1239929250 -297030063 -2134855538 1868249776 -345465491 1700800731 1135247428 950679262 842500480 1101610465 1889484422 -1989895875 -227786254 -249983581 16301792 1380672323 -1452730729 1971094059 -699420061 -418058972 32007288 1229074383 1332223908 -1512256592 431190035 1446251462 -306120130 1155754413 854919184
REM
CELL 1.54180   50.00000   50.00000   50.00000   90.00000   90.00000   90.00000
LATT -1
SFAC C  
C      1  0.5234570000000  0.5069200000000  0.4438990000000 1.0
C      1  0.4699440000000  0.4362200000000  0.5036680000000 1.0
C      1  0.5021540000000  0.4506520000000  0.5409950000000 1.0
C      1  0.5792460000000  0.4996580000000  0.5165220000000 1.0
C      1  0.4798720000000  0.5620240000000  0.5005730000000 1.0
C      1  0.4947940000000  0.5491780000000  0.5214360000000 1.0
C      1  0.5229280000000  0.5430370000000  0.5182140000000 1.0
C      1  0.5472850000000  0.5017100000000  0.4587620000000 1.0
C      1  0.4424680000000  0.5180620000000  0.4736420000000 1.0
C      1  0.5473680000000  0.4808390000000  0.4791670000000 1.0
C      1  0.4988200000000  0.5228370000000  0.5124610000000 1.0
C      1  0.5197770000000  0.5524410000000  0.4704280000000 1.0
C      1  0.4951680000000  0.4412210000000  0.4658650000000 1.0
C      1  0.4984340000000  0.4970140000000  0.5266370000000 1.0
C      1  0.4919590000000  0.5599400000000  0.4749770000000 1.0
C      1  0.4731400000000  0.4291510000000  0.4765270000000 1.0
C      1  0.5271790000000  0.5123190000000  0.5564790000000 1.0
C      1  0.4542570000000  0.5536330000000  0.4995990000000 1.0
C      1  0.5081980000000  0.4838290000000  0.4385380000000 1.0
C      1  0.5642650000000  0.5229090000000  0.5214100000000 1.0
C      1  0.5608710000000  0.5354610000000  0.4938990000000 1.0
C      1  0.4444630000000  0.4589560000000  0.5406940000000 1.0
C      1  0.5367170000000  0.5499820000000  0.4932800000000 1.0
C      1  0.4892820000000  0.4720720000000  0.5568550000000 1.0
C      1  0.4924920000000  0.4629790000000  0.4455740000000 1.0
C      1  0.4540610000000  0.5007310000000  0.4548630000000 1.0
C      1  0.5228560000000  0.4816830000000  0.5190150000000 1.0
C      1  0.4746920000000  0.5149610000000  0.5641120000000 1.0
C      1  0.5262130000000  0.4593180000000  0.5353720000000 1.0
C      1  0.4529220000000  0.5075660000000  0.5197160000000 1.0
C      1  0.5397020000000  0.5274450000000  0.5374960000000 1.0
C      1  0.4564220000000  0.4580740000000  0.5162970000000 1.0
C      1  0.5000500000000  0.5013120000000  0.5571320000000 1.0
C      1  0.4735560000000  0.4853640000000  0.5107910000000 1.0
C      1  0.4566610000000  0.5292250000000  0.4520020000000 1.0
C      1  0.5118390000000  0.4459510000000  0.4897540000000 1.0
C      1  0.4756820000000  0.4824880000000  0.4590020000000 1.0
C      1  0.4608660000000  0.4762820000000  0.5539470000000 1.0
C      1  0.4896360000000  0.5164180000000  0.4861000000000 1.0
C      1  0.4835410000000  0.5361400000000  0.4599010000000 1.0
C      1  0.4884860000000  0.4878180000000  0.4844750000000 1.0
C      1  0.4451870000000  0.5276210000000  0.5014330000000 1.0
C      1  0.5201770000000  0.4741760000000  0.4908480000000 1.0
C      1  0.5717680000000  0.4910810000000  0.4917510000000 1.0
C      1  0.4969530000000  0.4400770000000  0.5138160000000 1.0
C      1  0.5673650000000  0.5161070000000  0.4737380000000 1.0
C      1  0.4551440000000  0.5045650000000  0.5482370000000 1.0
C      1  0.5116830000000  0.5325550000000  0.4501040000000 1.0
END
