TITL C-105652-7160-7 157.919569907532 125000 -728.507819023413 0 0 104 (C1) n - 1
REM
REM in /rds/project/t2_vol4/rds-t2-cs072/BORA/CARBON/from-Arr/AIRSS/Generating-Clusters/GAP-ML-2020/Only-C1/SD-CG/HFTN-CG
REM
REM
REM
REM
REM
REM ./C.cell (11c1c37f851c82e70ff6c80c92926a4b)
REM AIRSS Version 0.9.1 bugfix July 2018 build 013d7b7c2542+ Fri, 06 Jul 2018 19:26:36 +0100
REM compiler GCC version 9.3.0
REM options -cpp -mtune=generic -march=x86-64 -g -O0
REM seed -68350906 530787469 -1695762870 -33756740 984519022 1088457231 -1947448205 -322726575 1576033344 -1384687880 -1694501281 -410451026 566929083 -427498388 -631728293 -1356720589 1554311118 392130042 -521418105 -653996399 -1960668095 743877584 1431738797 29734861 479664911 -133287532 -621338566 -82535813 -1435203161 -1141995816 -415933675 1169578000 1151724982
REM
CELL 1.54180   50.00000   50.00000   50.00000   90.00000   90.00000   90.00000
LATT -1
SFAC C  
C      1  0.5245510000000  0.4766600000000  0.4491350000000 1.0
C      1  0.4319990000000  0.4618850000000  0.5526970000000 1.0
C      1  0.5261080000000  0.5382160000000  0.4953830000000 1.0
C      1  0.5808050000000  0.4741410000000  0.4786260000000 1.0
C      1  0.4067350000000  0.4943760000000  0.4900090000000 1.0
C      1  0.4190250000000  0.4627890000000  0.5274920000000 1.0
C      1  0.5462880000000  0.5539930000000  0.5561000000000 1.0
C      1  0.4953680000000  0.4304080000000  0.5188580000000 1.0
C      1  0.4941540000000  0.4489380000000  0.4079170000000 1.0
C      1  0.4344620000000  0.4676880000000  0.4473580000000 1.0
C      1  0.5718570000000  0.4976990000000  0.4633680000000 1.0
C      1  0.5368560000000  0.5255180000000  0.4461260000000 1.0
C      1  0.5162180000000  0.5341370000000  0.5226310000000 1.0
C      1  0.5399300000000  0.5170240000000  0.5337550000000 1.0
C      1  0.5637310000000  0.4461630000000  0.5304570000000 1.0
C      1  0.4792290000000  0.5724980000000  0.5418200000000 1.0
C      1  0.4983590000000  0.4703450000000  0.4875610000000 1.0
C      1  0.5107310000000  0.4826300000000  0.5283560000000 1.0
C      1  0.5647990000000  0.4575730000000  0.4401490000000 1.0
C      1  0.5015370000000  0.5010690000000  0.5492280000000 1.0
C      1  0.4385380000000  0.5108630000000  0.5552070000000 1.0
C      1  0.5822790000000  0.4680280000000  0.5281580000000 1.0
C      1  0.5426330000000  0.4431050000000  0.4828610000000 1.0
C      1  0.5898060000000  0.4807000000000  0.5040430000000 1.0
C      1  0.4873350000000  0.5056430000000  0.4144700000000 1.0
C      1  0.4322350000000  0.4484660000000  0.4840840000000 1.0
C      1  0.5267690000000  0.5079000000000  0.4885350000000 1.0
C      1  0.4193230000000  0.5206530000000  0.4820720000000 1.0
C      1  0.4226070000000  0.5467180000000  0.4986680000000 1.0
C      1  0.5582660000000  0.4749070000000  0.5664940000000 1.0
C      1  0.5292350000000  0.5113640000000  0.5614640000000 1.0
C      1  0.4844670000000  0.5805570000000  0.5148340000000 1.0
C      1  0.4243430000000  0.4761070000000  0.4740580000000 1.0
C      1  0.5019310000000  0.5700120000000  0.5576760000000 1.0
C      1  0.5394480000000  0.5711430000000  0.4646870000000 1.0
C      1  0.4497420000000  0.4270910000000  0.5286660000000 1.0
C      1  0.5095700000000  0.5222080000000  0.4144480000000 1.0
C      1  0.5112420000000  0.4760600000000  0.5840580000000 1.0
C      1  0.4682860000000  0.5578980000000  0.4536400000000 1.0
C      1  0.4405180000000  0.4849390000000  0.5665350000000 1.0
C      1  0.5296950000000  0.5740830000000  0.5458590000000 1.0
C      1  0.5147490000000  0.5647600000000  0.4775850000000 1.0
C      1  0.5018900000000  0.4368160000000  0.4510330000000 1.0
C      1  0.5656240000000  0.4524680000000  0.4681780000000 1.0
C      1  0.5607860000000  0.5387360000000  0.5338390000000 1.0
C      1  0.4976820000000  0.4860080000000  0.4370980000000 1.0
C      1  0.5529120000000  0.5493990000000  0.4574370000000 1.0
C      1  0.5147950000000  0.4418310000000  0.4234700000000 1.0
C      1  0.4519880000000  0.4417880000000  0.5536320000000 1.0
C      1  0.4429850000000  0.5576210000000  0.5171400000000 1.0
C      1  0.4598390000000  0.5082540000000  0.4244620000000 1.0
C      1  0.4799240000000  0.5279410000000  0.5772460000000 1.0
C      1  0.5340520000000  0.5761020000000  0.5181210000000 1.0
C      1  0.4554460000000  0.5553170000000  0.5435500000000 1.0
C      1  0.5327600000000  0.4948110000000  0.5144270000000 1.0
C      1  0.4262020000000  0.5614690000000  0.4732090000000 1.0
C      1  0.4556750000000  0.4990300000000  0.5064470000000 1.0
C      1  0.4527690000000  0.5717410000000  0.4733960000000 1.0
C      1  0.4799210000000  0.5132960000000  0.5036650000000 1.0
C      1  0.4641120000000  0.4734840000000  0.5170850000000 1.0
C      1  0.5513570000000  0.4900630000000  0.4164460000000 1.0
C      1  0.4936040000000  0.5190210000000  0.5273480000000 1.0
C      1  0.4304330000000  0.4413490000000  0.5115020000000 1.0
C      1  0.5219800000000  0.4286050000000  0.5277040000000 1.0
C      1  0.5014950000000  0.5473540000000  0.5751640000000 1.0
C      1  0.4766840000000  0.4647020000000  0.4289970000000 1.0
C      1  0.4524940000000  0.4812970000000  0.4299750000000 1.0
C      1  0.5792020000000  0.5151850000000  0.5339330000000 1.0
C      1  0.5284120000000  0.5382440000000  0.5724620000000 1.0
C      1  0.4305620000000  0.5076040000000  0.5283930000000 1.0
C      1  0.4983200000000  0.4997540000000  0.4836420000000 1.0
C      1  0.4510010000000  0.5357590000000  0.4445970000000 1.0
C      1  0.5511470000000  0.4490030000000  0.5564130000000 1.0
C      1  0.4874740000000  0.4969580000000  0.5772000000000 1.0
C      1  0.4743580000000  0.4517720000000  0.5700480000000 1.0
C      1  0.5369430000000  0.5141980000000  0.4179980000000 1.0
C      1  0.4244100000000  0.5382870000000  0.4576990000000 1.0
C      1  0.4731570000000  0.4154440000000  0.5208460000000 1.0
C      1  0.5533390000000  0.5531840000000  0.5071820000000 1.0
C      1  0.5165070000000  0.4549580000000  0.4695570000000 1.0
C      1  0.4907230000000  0.5068980000000  0.4568320000000 1.0
C      1  0.4613560000000  0.5103220000000  0.4543210000000 1.0
C      1  0.4116520000000  0.4884730000000  0.5177750000000 1.0
C      1  0.4474030000000  0.4440410000000  0.4594980000000 1.0
C      1  0.5889250000000  0.5092740000000  0.5071190000000 1.0
C      1  0.5363240000000  0.4878670000000  0.5781020000000 1.0
C      1  0.5101580000000  0.5799750000000  0.5028290000000 1.0
C      1  0.4604900000000  0.5735380000000  0.5010990000000 1.0
C      1  0.5391960000000  0.4625040000000  0.4275480000000 1.0
C      1  0.5680230000000  0.5461010000000  0.4819260000000 1.0
C      1  0.4432250000000  0.5018010000000  0.4786910000000 1.0
C      1  0.5401300000000  0.5000870000000  0.4627560000000 1.0
C      1  0.5733940000000  0.4853210000000  0.4345910000000 1.0
C      1  0.5037230000000  0.4507520000000  0.5727570000000 1.0
C      1  0.5772380000000  0.4878830000000  0.5477690000000 1.0
C      1  0.4911510000000  0.4638510000000  0.5145600000000 1.0
C      1  0.4738400000000  0.4420060000000  0.4483090000000 1.0
C      1  0.5811380000000  0.5209140000000  0.4819130000000 1.0
C      1  0.4964860000000  0.5560930000000  0.4555010000000 1.0
C      1  0.5068720000000  0.5315460000000  0.4438020000000 1.0
C      1  0.5446960000000  0.4355740000000  0.5110860000000 1.0
C      1  0.4658090000000  0.4782500000000  0.5771550000000 1.0
C      1  0.4552340000000  0.5331570000000  0.5623620000000 1.0
C      1  0.5248130000000  0.4379670000000  0.5560280000000 1.0
END
