TITL C-105675-482-6 0.0566426776351056 125000 -227.216349722968 0 0 35 (C1) n - 1
REM
REM in /rds/project/t2_vol4/rds-t2-cs072/BORA/CARBON/from-Arr/AIRSS/Generating-Clusters/GAP-ML-2020/Only-C1/SD-CG/HFTN-CG
REM
REM
REM
REM
REM
REM ./C.cell (11c1c37f851c82e70ff6c80c92926a4b)
REM AIRSS Version 0.9.1 bugfix July 2018 build 013d7b7c2542+ Fri, 06 Jul 2018 19:26:36 +0100
REM compiler GCC version 9.3.0
REM options -cpp -mtune=generic -march=x86-64 -g -O0
REM seed 31442585 1760349088 126364863 -1234842862 -1978623315 -348042955 -1952490342 -407770450 1283521499 -830518074 -1070477014 230281093 -11608553 2069534428 -797742536 -347859292 -1113421 -1053561377 885075115 642981246 118563300 380415905 1514478062 -108595123 1241308186 -1643299798 274296432 580846591 253106107 -1826517592 326429662 954886142 -1909860172
REM
CELL 1.54180   50.00000   50.00000   50.00000   90.00000   90.00000   90.00000
LATT -1
SFAC C  
C      1  0.5251890000000  0.5721590000000  0.4988740000000 1.0
C      1  0.4969850000000  0.5069440000000  0.5630360000000 1.0
C      1  0.4382480000000  0.5027800000000  0.4824240000000 1.0
C      1  0.4786400000000  0.5131730000000  0.4972430000000 1.0
C      1  0.4977540000000  0.5064690000000  0.5897640000000 1.0
C      1  0.4609450000000  0.5189970000000  0.4753420000000 1.0
C      1  0.5478850000000  0.4743510000000  0.5190440000000 1.0
C      1  0.4821600000000  0.4732200000000  0.5239120000000 1.0
C      1  0.4921650000000  0.4841140000000  0.4961390000000 1.0
C      1  0.4727720000000  0.5017950000000  0.4549780000000 1.0
C      1  0.5404280000000  0.5336880000000  0.4714540000000 1.0
C      1  0.5099620000000  0.4764290000000  0.4466980000000 1.0
C      1  0.4427050000000  0.4950670000000  0.5112690000000 1.0
C      1  0.4526690000000  0.4830260000000  0.4658350000000 1.0
C      1  0.4552050000000  0.4703530000000  0.5111160000000 1.0
C      1  0.5413230000000  0.5544880000000  0.5185050000000 1.0
C      1  0.5149940000000  0.5132140000000  0.5391460000000 1.0
C      1  0.4994820000000  0.5305290000000  0.4923490000000 1.0
C      1  0.4596680000000  0.4618360000000  0.4834310000000 1.0
C      1  0.5379170000000  0.4671760000000  0.4937890000000 1.0
C      1  0.4631450000000  0.5120190000000  0.5220400000000 1.0
C      1  0.5004940000000  0.5001370000000  0.4555870000000 1.0
C      1  0.4982640000000  0.4500580000000  0.5256750000000 1.0
C      1  0.5028550000000  0.4404660000000  0.5013020000000 1.0
C      1  0.5535700000000  0.5445330000000  0.4940010000000 1.0
C      1  0.5075160000000  0.4547950000000  0.4613490000000 1.0
C      1  0.4812550000000  0.4981100000000  0.5399690000000 1.0
C      1  0.5260720000000  0.4443350000000  0.4835080000000 1.0
C      1  0.5214400000000  0.4915810000000  0.4953310000000 1.0
C      1  0.5184640000000  0.5158350000000  0.4760940000000 1.0
C      1  0.5187980000000  0.5382570000000  0.5249460000000 1.0
C      1  0.5312240000000  0.4961170000000  0.5226950000000 1.0
C      1  0.5405010000000  0.5637370000000  0.4763330000000 1.0
C      1  0.5023140000000  0.5548000000000  0.5054890000000 1.0
C      1  0.4869930000000  0.4554130000000  0.4813340000000 1.0
END
