TITL C-105659-558-3 -1.05101699421469 125000 -414.336702510998 0 0 60 (C1) n - 1
REM
REM in /rds/project/t2_vol4/rds-t2-cs072/BORA/CARBON/from-Arr/AIRSS/Generating-Clusters/GAP-ML-2020/Only-C1/SD-CG/HFTN-CG
REM
REM
REM
REM
REM
REM ./C.cell (11c1c37f851c82e70ff6c80c92926a4b)
REM AIRSS Version 0.9.1 bugfix July 2018 build 013d7b7c2542+ Fri, 06 Jul 2018 19:26:36 +0100
REM compiler GCC version 9.3.0
REM options -cpp -mtune=generic -march=x86-64 -g -O0
REM seed 2091508508 1641246882 1929444179 610824595 858391712 -1225620779 352806965 1828286977 1030953949 1774924895 818300049 -1034342939 -716270156 -1024750366 1698274646 -1920051637 -2029968606 -794201636 670910562 -490537311 1890384334 -2114146005 -1678242326 -512164473 -1444537955 -1935958801 -1362284317 -1954547888 1312889716 -1779008145 -1825354681 -838600131 492100716
REM
CELL 1.54180   50.00000   50.00000   50.00000   90.00000   90.00000   90.00000
LATT -1
SFAC C  
C      1  0.4652050000000  0.5202290000000  0.5536580000000 1.0
C      1  0.5795890000000  0.5230900000000  0.4936390000000 1.0
C      1  0.5431780000000  0.4755120000000  0.5234250000000 1.0
C      1  0.5627350000000  0.5245690000000  0.4712330000000 1.0
C      1  0.5133630000000  0.5128050000000  0.5619300000000 1.0
C      1  0.4377200000000  0.5174410000000  0.5168950000000 1.0
C      1  0.4931910000000  0.5045490000000  0.4709120000000 1.0
C      1  0.4449920000000  0.5528780000000  0.4573090000000 1.0
C      1  0.5008890000000  0.5520360000000  0.4576990000000 1.0
C      1  0.5206360000000  0.4656250000000  0.5633370000000 1.0
C      1  0.5778300000000  0.4997520000000  0.5090000000000 1.0
C      1  0.4613850000000  0.5698780000000  0.4781270000000 1.0
C      1  0.5349570000000  0.4550690000000  0.5411220000000 1.0
C      1  0.5192090000000  0.4349520000000  0.5282780000000 1.0
C      1  0.4541360000000  0.5040630000000  0.4430290000000 1.0
C      1  0.4459030000000  0.4966570000000  0.4703400000000 1.0
C      1  0.5335410000000  0.5524140000000  0.5004860000000 1.0
C      1  0.4773130000000  0.4363350000000  0.4921580000000 1.0
C      1  0.4923090000000  0.4378850000000  0.5380740000000 1.0
C      1  0.5645980000000  0.4757470000000  0.5055650000000 1.0
C      1  0.4501640000000  0.4767290000000  0.5476330000000 1.0
C      1  0.5034110000000  0.4300220000000  0.4828350000000 1.0
C      1  0.4900760000000  0.5645210000000  0.4806720000000 1.0
C      1  0.4779160000000  0.4930490000000  0.4324360000000 1.0
C      1  0.4433560000000  0.5599980000000  0.4977460000000 1.0
C      1  0.5429180000000  0.5384220000000  0.5242990000000 1.0
C      1  0.4698570000000  0.4390150000000  0.5195320000000 1.0
C      1  0.4829650000000  0.5310070000000  0.4591240000000 1.0
C      1  0.5580460000000  0.4593880000000  0.4812820000000 1.0
C      1  0.4716120000000  0.5425110000000  0.5372540000000 1.0
C      1  0.5285110000000  0.5148000000000  0.4419510000000 1.0
C      1  0.5263010000000  0.4908800000000  0.5713040000000 1.0
C      1  0.5060980000000  0.5595420000000  0.5042200000000 1.0
C      1  0.5258760000000  0.4277290000000  0.5002810000000 1.0
C      1  0.4744740000000  0.4769560000000  0.5633900000000 1.0
C      1  0.5509750000000  0.5032000000000  0.4546160000000 1.0
C      1  0.4708940000000  0.4848440000000  0.4810240000000 1.0
C      1  0.4501680000000  0.5432850000000  0.5190260000000 1.0
C      1  0.4952360000000  0.4862980000000  0.5233050000000 1.0
C      1  0.4441570000000  0.5042480000000  0.5416890000000 1.0
C      1  0.5201750000000  0.5348650000000  0.5429290000000 1.0
C      1  0.5441000000000  0.5457340000000  0.4738880000000 1.0
C      1  0.4717710000000  0.4820560000000  0.5099650000000 1.0
C      1  0.5504020000000  0.4333650000000  0.4878590000000 1.0
C      1  0.5051330000000  0.4933520000000  0.4419890000000 1.0
C      1  0.4538200000000  0.4621560000000  0.5236690000000 1.0
C      1  0.4326820000000  0.5151020000000  0.4880020000000 1.0
C      1  0.5675980000000  0.5254780000000  0.5194860000000 1.0
C      1  0.4758490000000  0.4571910000000  0.4713640000000 1.0
C      1  0.5196560000000  0.4679640000000  0.4495000000000 1.0
C      1  0.5258080000000  0.5414830000000  0.4531720000000 1.0
C      1  0.4935040000000  0.4561690000000  0.5610300000000 1.0
C      1  0.4592520000000  0.5323970000000  0.4448140000000 1.0
C      1  0.5181290000000  0.4879700000000  0.5087570000000 1.0
C      1  0.4848110000000  0.5045090000000  0.5654140000000 1.0
C      1  0.4293880000000  0.5423920000000  0.4785650000000 1.0
C      1  0.5154320000000  0.5066510000000  0.4890320000000 1.0
C      1  0.5462370000000  0.4745900000000  0.4590820000000 1.0
C      1  0.5021740000000  0.4495810000000  0.4611490000000 1.0
C      1  0.4983870000000  0.5490650000000  0.5304980000000 1.0
END
