TITL C-102200-7107-3 202.766435260016 125000 -851.658862932216 0 0 121 (C1) n - 1
REM
REM in /rds/project/t2_vol4/rds-t2-cs072/BORA/CARBON/from-Arr/AIRSS/Generating-Clusters/GAP-ML-2020/Only-C1/SD-CG/HFTN-CG
REM
REM
REM
REM
REM
REM ./C.cell (11c1c37f851c82e70ff6c80c92926a4b)
REM AIRSS Version 0.9.1 bugfix July 2018 build 013d7b7c2542+ Fri, 06 Jul 2018 19:26:36 +0100
REM compiler GCC version 9.3.0
REM options -cpp -mtune=generic -march=x86-64 -g -O0
REM seed -506828014 -1687936037 245569646 498352827 1428156316 1916573015 -1031851475 -206924725 1558052717 -1264123152 1506167968 1395397514 -1297647966 704826364 414183393 2026784675 -707897021 1236285075 -1840323616 1654446628 744278362 1011487668 -1529925125 -429307607 -655979705 -1587979186 -283023915 -1352679408 73754007 488667045 -726389222 -805534195 -85690410
REM
CELL 1.54180   50.00000   50.00000   50.00000   90.00000   90.00000   90.00000
LATT -1
SFAC C  
C      1  0.5045000000000  0.5230270000000  0.5344620000000 1.0
C      1  0.4170240000000  0.5176920000000  0.4488490000000 1.0
C      1  0.4705580000000  0.5124190000000  0.4788270000000 1.0
C      1  0.4659000000000  0.4209250000000  0.4794020000000 1.0
C      1  0.4166430000000  0.4935730000000  0.5495990000000 1.0
C      1  0.5038610000000  0.4694430000000  0.4128560000000 1.0
C      1  0.5731500000000  0.4606340000000  0.4384670000000 1.0
C      1  0.4348840000000  0.4728360000000  0.4404810000000 1.0
C      1  0.4408650000000  0.4330740000000  0.4726330000000 1.0
C      1  0.5087850000000  0.4800110000000  0.5121870000000 1.0
C      1  0.5376940000000  0.4362520000000  0.5320750000000 1.0
C      1  0.4711020000000  0.5792730000000  0.4628660000000 1.0
C      1  0.4205840000000  0.4225390000000  0.5149990000000 1.0
C      1  0.4634540000000  0.4670680000000  0.4983080000000 1.0
C      1  0.5891640000000  0.4696370000000  0.4607890000000 1.0
C      1  0.5248260000000  0.4080400000000  0.4759320000000 1.0
C      1  0.4145150000000  0.5344450000000  0.4719910000000 1.0
C      1  0.4431230000000  0.4464160000000  0.4479790000000 1.0
C      1  0.5408300000000  0.5725350000000  0.5326800000000 1.0
C      1  0.4807940000000  0.4541530000000  0.5769750000000 1.0
C      1  0.4218120000000  0.5204570000000  0.5580980000000 1.0
C      1  0.4243370000000  0.4411870000000  0.4955310000000 1.0
C      1  0.5436410000000  0.4743590000000  0.4837000000000 1.0
C      1  0.5116230000000  0.5298470000000  0.4846660000000 1.0
C      1  0.5287970000000  0.5134270000000  0.4116960000000 1.0
C      1  0.4642800000000  0.5216790000000  0.5089020000000 1.0
C      1  0.4359550000000  0.5353510000000  0.5145060000000 1.0
C      1  0.4853990000000  0.5483230000000  0.5758360000000 1.0
C      1  0.5108170000000  0.4969270000000  0.4533950000000 1.0
C      1  0.5693200000000  0.4303070000000  0.4723820000000 1.0
C      1  0.5154440000000  0.4065790000000  0.5032760000000 1.0
C      1  0.5847930000000  0.4947380000000  0.5112590000000 1.0
C      1  0.5831440000000  0.5374420000000  0.4888440000000 1.0
C      1  0.5410510000000  0.5239120000000  0.4810090000000 1.0
C      1  0.4467760000000  0.5674460000000  0.4535760000000 1.0
C      1  0.4377400000000  0.5397540000000  0.5458970000000 1.0
C      1  0.4973240000000  0.5436970000000  0.4379610000000 1.0
C      1  0.5094440000000  0.5096650000000  0.5076410000000 1.0
C      1  0.5340370000000  0.5443760000000  0.5789970000000 1.0
C      1  0.4172220000000  0.4908360000000  0.4864170000000 1.0
C      1  0.5422870000000  0.5931050000000  0.4642230000000 1.0
C      1  0.4281430000000  0.5590780000000  0.4740840000000 1.0
C      1  0.5686790000000  0.4698040000000  0.5055080000000 1.0
C      1  0.5329340000000  0.4350020000000  0.4373450000000 1.0
C      1  0.5307940000000  0.4837820000000  0.5337450000000 1.0
C      1  0.4809190000000  0.4733530000000  0.5216900000000 1.0
C      1  0.4948240000000  0.5060040000000  0.5567030000000 1.0
C      1  0.5094910000000  0.4344960000000  0.5382150000000 1.0
C      1  0.5518730000000  0.4140380000000  0.4858190000000 1.0
C      1  0.4775060000000  0.4964380000000  0.5967230000000 1.0
C      1  0.5295110000000  0.4591130000000  0.4212530000000 1.0
C      1  0.4549090000000  0.5784940000000  0.5111110000000 1.0
C      1  0.4348130000000  0.5618400000000  0.5016710000000 1.0
C      1  0.5718940000000  0.5158140000000  0.5588770000000 1.0
C      1  0.4685980000000  0.4403470000000  0.4366320000000 1.0
C      1  0.5171080000000  0.4656910000000  0.4884750000000 1.0
C      1  0.4691370000000  0.4194000000000  0.5091220000000 1.0
C      1  0.5355600000000  0.5610190000000  0.5055800000000 1.0
C      1  0.5669930000000  0.4705330000000  0.5586670000000 1.0
C      1  0.4973080000000  0.5836570000000  0.5033430000000 1.0
C      1  0.5194330000000  0.4770450000000  0.5855680000000 1.0
C      1  0.5915700000000  0.5102770000000  0.4872770000000 1.0
C      1  0.5591180000000  0.5414430000000  0.5634510000000 1.0
C      1  0.5170730000000  0.5777590000000  0.5477930000000 1.0
C      1  0.5926660000000  0.4962380000000  0.4642020000000 1.0
C      1  0.4865350000000  0.5411100000000  0.5198490000000 1.0
C      1  0.4983980000000  0.4751100000000  0.4687210000000 1.0
C      1  0.4766340000000  0.4624760000000  0.4193540000000 1.0
C      1  0.4423630000000  0.4525430000000  0.5454060000000 1.0
C      1  0.5113330000000  0.5609290000000  0.5707860000000 1.0
C      1  0.5821460000000  0.5140340000000  0.5321350000000 1.0
C      1  0.5830150000000  0.4528320000000  0.4840540000000 1.0
C      1  0.4452940000000  0.4295150000000  0.5257020000000 1.0
C      1  0.5384140000000  0.4970390000000  0.5901680000000 1.0
C      1  0.5544110000000  0.4768620000000  0.4246800000000 1.0
C      1  0.5317720000000  0.5142600000000  0.5273920000000 1.0
C      1  0.4165680000000  0.5188580000000  0.4955300000000 1.0
C      1  0.4669670000000  0.5013440000000  0.5543960000000 1.0
C      1  0.5478040000000  0.5323030000000  0.5092930000000 1.0
C      1  0.4705830000000  0.5709350000000  0.5348860000000 1.0
C      1  0.5127610000000  0.4201780000000  0.4533150000000 1.0
C      1  0.5397750000000  0.4975040000000  0.4679730000000 1.0
C      1  0.4337260000000  0.5265260000000  0.4285900000000 1.0
C      1  0.4725310000000  0.5372930000000  0.4209010000000 1.0
C      1  0.4288160000000  0.4697030000000  0.5024500000000 1.0
C      1  0.4558290000000  0.4830650000000  0.4222150000000 1.0
C      1  0.4190200000000  0.4904950000000  0.4572800000000 1.0
C      1  0.5476710000000  0.5689790000000  0.4780990000000 1.0
C      1  0.5234380000000  0.5214830000000  0.5915520000000 1.0
C      1  0.4955390000000  0.5723440000000  0.4491970000000 1.0
C      1  0.4734190000000  0.4833250000000  0.4777580000000 1.0
C      1  0.5188790000000  0.5851020000000  0.4555640000000 1.0
C      1  0.4947140000000  0.5220610000000  0.4626000000000 1.0
C      1  0.5624190000000  0.4929350000000  0.5735970000000 1.0
C      1  0.4930510000000  0.4732940000000  0.5953160000000 1.0
C      1  0.4489970000000  0.5508160000000  0.4309910000000 1.0
C      1  0.4938480000000  0.5206070000000  0.5855660000000 1.0
C      1  0.4533980000000  0.4886990000000  0.5783800000000 1.0
C      1  0.5416690000000  0.4159500000000  0.5129630000000 1.0
C      1  0.4726090000000  0.5863470000000  0.4905460000000 1.0
C      1  0.5632860000000  0.5570370000000  0.5405950000000 1.0
C      1  0.5605940000000  0.4361940000000  0.4457980000000 1.0
C      1  0.5126310000000  0.4799590000000  0.5566680000000 1.0
C      1  0.5752260000000  0.5389850000000  0.5182220000000 1.0
C      1  0.4608020000000  0.4950660000000  0.5281220000000 1.0
C      1  0.4837560000000  0.4239400000000  0.4554950000000 1.0
C      1  0.4263310000000  0.4984800000000  0.5750740000000 1.0
C      1  0.4622120000000  0.5543620000000  0.5570190000000 1.0
C      1  0.5530300000000  0.5331620000000  0.4379740000000 1.0
C      1  0.4952590000000  0.4168730000000  0.5195710000000 1.0
C      1  0.4954000000000  0.5855090000000  0.5321450000000 1.0
C      1  0.5603450000000  0.5441900000000  0.4673910000000 1.0
C      1  0.5259910000000  0.5374160000000  0.4271490000000 1.0
C      1  0.4950200000000  0.4564480000000  0.5510620000000 1.0
C      1  0.5543660000000  0.4626520000000  0.5334600000000 1.0
C      1  0.5090350000000  0.4958380000000  0.4212460000000 1.0
C      1  0.5065510000000  0.5549650000000  0.5001980000000 1.0
C      1  0.4539600000000  0.4588690000000  0.5710300000000 1.0
C      1  0.5546470000000  0.5065170000000  0.4223070000000 1.0
C      1  0.4561110000000  0.5117110000000  0.4177260000000 1.0
C      1  0.4327460000000  0.4768960000000  0.5315220000000 1.0
END
