TITL C-105724-8823-6 0.00233581302823467 125000 -29.7959809819692 0 0 5 (D(inf)h) n - 1
REM
REM in /rds/project/t2_vol4/rds-t2-cs072/BORA/CARBON/from-Arr/AIRSS/Generating-Clusters/GAP-ML-2020/Only-C1/SD-CG/HFTN-CG
REM
REM
REM
REM
REM
REM ./C.cell (11c1c37f851c82e70ff6c80c92926a4b)
REM AIRSS Version 0.9.1 bugfix July 2018 build 013d7b7c2542+ Fri, 06 Jul 2018 19:26:36 +0100
REM compiler GCC version 9.3.0
REM options -cpp -mtune=generic -march=x86-64 -g -O0
REM seed -1260730257 -2030549238 -1570241564 621068106 202492658 795997573 -146114285 -859451634 -1804411410 1408623044 1656013773 525133442 -568460624 -203713312 1602360173 -776385149 -1786279519 -506288164 -856769974 -2059771468 -1105840881 1290284350 -334500633 -226347500 1962631760 -1541401987 -607791044 1778008701 -899681322 -1469184199 1705231194 -966566218 1486571625
REM
CELL 1.54180   50.00000   50.00000   50.00000   90.00000   90.00000   90.00000
LATT -1
SFAC C  
C      1  0.5000000000000  0.5000000000000  0.5000000000000 1.0
C      1  0.5321190000000  0.5306720000000  0.5264800000000 1.0
C      1  0.4678810000000  0.4693280000000  0.4735200000000 1.0
C      1  0.4839450000000  0.4846690000000  0.4867640000000 1.0
C      1  0.5160550000000  0.5153320000000  0.5132360000000 1.0
END
