TITL C-105665-487-6 -0.0128753315922172 125000 -80.118186109141 0 0 13 (C1) n - 1
REM
REM in /rds/project/t2_vol4/rds-t2-cs072/BORA/CARBON/from-Arr/AIRSS/Generating-Clusters/GAP-ML-2020/Only-C1/SD-CG/HFTN-CG
REM
REM
REM
REM
REM
REM ./C.cell (11c1c37f851c82e70ff6c80c92926a4b)
REM AIRSS Version 0.9.1 bugfix July 2018 build 013d7b7c2542+ Fri, 06 Jul 2018 19:26:36 +0100
REM compiler GCC version 9.3.0
REM options -cpp -mtune=generic -march=x86-64 -g -O0
REM seed -271757043 -931560543 -1171025041 -1503118213 1391036038 1996172502 393076823 -1453277058 819854772 1125912204 -2131640677 1393968068 -109042636 695921733 -570439717 -1111705406 -1890732253 -1068480921 617482995 750479373 1970938455 -1420393373 -1528018704 -1781948825 -1068157915 -1823876504 1501820613 198406412 -1848521266 62002902 347839085 -1975253049 -1900781800
REM
CELL 1.54180   50.00000   50.00000   50.00000   90.00000   90.00000   90.00000
LATT -1
SFAC C  
C      1  0.5224910000000  0.5348160000000  0.4738110000000 1.0
C      1  0.4944440000000  0.4953770000000  0.4955030000000 1.0
C      1  0.4674090000000  0.5350290000000  0.5078210000000 1.0
C      1  0.5036360000000  0.5490710000000  0.4848910000000 1.0
C      1  0.5361220000000  0.5193640000000  0.5167840000000 1.0
C      1  0.4958820000000  0.4220370000000  0.5005290000000 1.0
C      1  0.5075660000000  0.4443820000000  0.4915880000000 1.0
C      1  0.4821800000000  0.4444610000000  0.5046880000000 1.0
C      1  0.4739040000000  0.5107500000000  0.5047310000000 1.0
C      1  0.5201920000000  0.5147340000000  0.4940110000000 1.0
C      1  0.4826650000000  0.5551880000000  0.4985620000000 1.0
C      1  0.4940760000000  0.4685520000000  0.4958710000000 1.0
C      1  0.5194320000000  0.5062400000000  0.5312080000000 1.0
END
