TITL C-107214-8385-5 -0.094671443773399 125000 -469.2394453842 0 0 68 (C1) n - 1
REM
REM in /rds/project/t2_vol4/rds-t2-cs072/BORA/CARBON/from-Arr/AIRSS/Generating-Clusters/GAP-ML-2020/Only-C1/SD-CG/HFTN-CG
REM
REM
REM
REM
REM
REM ./C.cell (11c1c37f851c82e70ff6c80c92926a4b)
REM AIRSS Version 0.9.1 bugfix July 2018 build 013d7b7c2542+ Fri, 06 Jul 2018 19:26:36 +0100
REM compiler GCC version 9.3.0
REM options -cpp -mtune=generic -march=x86-64 -g -O0
REM seed -643660621 578921765 1033708667 396803540 -442674294 594648028 -1474074050 -388992314 -463376905 2045055545 1378250714 -130677755 -1497629420 183266355 -343756585 -1554695724 -1406960039 -1857096950 1723534445 1066270738 101438074 1238924546 -1765208281 -1856472835 259379720 1213374287 -707787215 -1251572876 -1468151651 2077093496 1567417206 -2113605431 1798099222
REM
CELL 1.54180   50.00000   50.00000   50.00000   90.00000   90.00000   90.00000
LATT -1
SFAC C  
C      1  0.5517940000000  0.4539450000000  0.5220720000000 1.0
C      1  0.5155790000000  0.5177420000000  0.4323110000000 1.0
C      1  0.5425370000000  0.5405960000000  0.5526350000000 1.0
C      1  0.4513900000000  0.5470340000000  0.4788710000000 1.0
C      1  0.5357250000000  0.5241710000000  0.4531520000000 1.0
C      1  0.4506560000000  0.4882060000000  0.4403450000000 1.0
C      1  0.5424620000000  0.4804240000000  0.4393670000000 1.0
C      1  0.4973680000000  0.5730780000000  0.5112140000000 1.0
C      1  0.4936370000000  0.5777010000000  0.4808400000000 1.0
C      1  0.4895060000000  0.4841450000000  0.5743540000000 1.0
C      1  0.5201880000000  0.4904370000000  0.4254160000000 1.0
C      1  0.5329120000000  0.5127240000000  0.5830860000000 1.0
C      1  0.4821370000000  0.5270100000000  0.5062300000000 1.0
C      1  0.5130980000000  0.4568980000000  0.5476210000000 1.0
C      1  0.4493780000000  0.4625910000000  0.4521680000000 1.0
C      1  0.5274170000000  0.4406060000000  0.5297450000000 1.0
C      1  0.5208450000000  0.5371130000000  0.5724200000000 1.0
C      1  0.5155390000000  0.4463000000000  0.4593140000000 1.0
C      1  0.4748540000000  0.4955060000000  0.4262970000000 1.0
C      1  0.5520380000000  0.5012510000000  0.4564810000000 1.0
C      1  0.5599590000000  0.4898530000000  0.4812840000000 1.0
C      1  0.4801720000000  0.5541310000000  0.4691650000000 1.0
C      1  0.4453270000000  0.4576120000000  0.4804710000000 1.0
C      1  0.4712300000000  0.5422800000000  0.4422970000000 1.0
C      1  0.4486750000000  0.5263390000000  0.4998230000000 1.0
C      1  0.4887220000000  0.4146730000000  0.5209150000000 1.0
C      1  0.4573820000000  0.5230350000000  0.5514000000000 1.0
C      1  0.4815710000000  0.5531320000000  0.5230330000000 1.0
C      1  0.4455190000000  0.4754710000000  0.5261320000000 1.0
C      1  0.5264790000000  0.5692900000000  0.5126330000000 1.0
C      1  0.4963880000000  0.5013660000000  0.4714560000000 1.0
C      1  0.4698010000000  0.4413600000000  0.4836590000000 1.0
C      1  0.4396890000000  0.4994620000000  0.5393420000000 1.0
C      1  0.4460620000000  0.5345920000000  0.4535950000000 1.0
C      1  0.5693990000000  0.4973530000000  0.5517600000000 1.0
C      1  0.5313930000000  0.5683300000000  0.4835040000000 1.0
C      1  0.5651460000000  0.4457130000000  0.4996560000000 1.0
C      1  0.4644660000000  0.4556960000000  0.5360020000000 1.0
C      1  0.4379290000000  0.4775430000000  0.4983910000000 1.0
C      1  0.5090760000000  0.4306120000000  0.5100740000000 1.0
C      1  0.5291860000000  0.5377700000000  0.4792230000000 1.0
C      1  0.5567930000000  0.5175960000000  0.5636180000000 1.0
C      1  0.5172210000000  0.5874180000000  0.4702850000000 1.0
C      1  0.5016170000000  0.4504310000000  0.4868240000000 1.0
C      1  0.4399010000000  0.5240320000000  0.5282370000000 1.0
C      1  0.4364890000000  0.5031990000000  0.4858800000000 1.0
C      1  0.4867520000000  0.5221970000000  0.4291050000000 1.0
C      1  0.5415580000000  0.4566940000000  0.4550740000000 1.0
C      1  0.4931770000000  0.5370210000000  0.5694470000000 1.0
C      1  0.4705910000000  0.4344980000000  0.5176020000000 1.0
C      1  0.4825850000000  0.5095170000000  0.5626600000000 1.0
C      1  0.4709600000000  0.4446590000000  0.4517840000000 1.0
C      1  0.5547250000000  0.5019420000000  0.5063450000000 1.0
C      1  0.4952330000000  0.4512360000000  0.4394960000000 1.0
C      1  0.4926630000000  0.5008480000000  0.5143890000000 1.0
C      1  0.5447160000000  0.5281150000000  0.5039910000000 1.0
C      1  0.5195750000000  0.4890470000000  0.5771390000000 1.0
C      1  0.4389460000000  0.5075260000000  0.4575720000000 1.0
C      1  0.5054340000000  0.5042750000000  0.5381610000000 1.0
C      1  0.5517000000000  0.4836060000000  0.5311860000000 1.0
C      1  0.4743350000000  0.5479130000000  0.5497180000000 1.0
C      1  0.4987610000000  0.4844610000000  0.4921900000000 1.0
C      1  0.4976020000000  0.5308080000000  0.4814170000000 1.0
C      1  0.4857050000000  0.4621650000000  0.5550740000000 1.0
C      1  0.5249310000000  0.4835450000000  0.5475040000000 1.0
C      1  0.5402540000000  0.5467840000000  0.5248000000000 1.0
C      1  0.5591570000000  0.4613910000000  0.4783520000000 1.0
C      1  0.4959880000000  0.4759860000000  0.4243960000000 1.0
END
