TITL C-101228-5825-6 -0.0389552186452355 125000 -107.70359444979 0 0 17 (C1) n - 1
REM
REM in /rds/project/t2_vol4/rds-t2-cs072/BORA/CARBON/from-Arr/AIRSS/Generating-Clusters/GAP-ML-2020/Only-C1/SD-CG/HFTN-CG
REM
REM
REM
REM
REM
REM ./C.cell (11c1c37f851c82e70ff6c80c92926a4b)
REM AIRSS Version 0.9.1 bugfix July 2018 build 013d7b7c2542+ Fri, 06 Jul 2018 19:26:36 +0100
REM compiler GCC version 9.3.0
REM options -cpp -mtune=generic -march=x86-64 -g -O0
REM seed 1255340543 -1189408919 295768844 923009351 1543590119 1638713810 -1381771475 -557633292 -1944718350 70237668 -1435333309 -1675731601 1436257355 -1625386609 458116527 1550820473 -827144644 -230960825 1508652831 -655640092 -895488937 983042775 403423432 337777154 -1093614650 -1192339932 416625446 -593966375 850043793 1718544772 238559400 -80249058 -1391823502
REM
CELL 1.54180   50.00000   50.00000   50.00000   90.00000   90.00000   90.00000
LATT -1
SFAC C  
C      1  0.5287640000000  0.5842580000000  0.4819740000000 1.0
C      1  0.5298740000000  0.4803070000000  0.5341190000000 1.0
C      1  0.4636760000000  0.4743380000000  0.5343840000000 1.0
C      1  0.4894100000000  0.4618190000000  0.5350570000000 1.0
C      1  0.5217960000000  0.5600560000000  0.4770840000000 1.0
C      1  0.4590690000000  0.4850530000000  0.5108450000000 1.0
C      1  0.5157880000000  0.5101480000000  0.4746970000000 1.0
C      1  0.4958790000000  0.4594140000000  0.4919790000000 1.0
C      1  0.4533420000000  0.5353880000000  0.4867710000000 1.0
C      1  0.4697870000000  0.5247230000000  0.4708230000000 1.0
C      1  0.5328560000000  0.4974900000000  0.4916710000000 1.0
C      1  0.5427430000000  0.4896170000000  0.5136040000000 1.0
C      1  0.5113330000000  0.4712270000000  0.5492430000000 1.0
C      1  0.5226390000000  0.5356330000000  0.4701320000000 1.0
C      1  0.4976480000000  0.4440620000000  0.5128540000000 1.0
C      1  0.4782110000000  0.4822440000000  0.4896760000000 1.0
C      1  0.4871850000000  0.5042250000000  0.4750890000000 1.0
END
