TITL C-101238-5613-3 -0.303370942166468 125000 -847.518464189172 0 0 123 (C1) n - 1
REM
REM in /rds/project/t2_vol4/rds-t2-cs072/BORA/CARBON/from-Arr/AIRSS/Generating-Clusters/GAP-ML-2020/Only-C1/SD-CG/HFTN-CG
REM
REM
REM
REM
REM
REM ./C.cell (11c1c37f851c82e70ff6c80c92926a4b)
REM AIRSS Version 0.9.1 bugfix July 2018 build 013d7b7c2542+ Fri, 06 Jul 2018 19:26:36 +0100
REM compiler GCC version 9.3.0
REM options -cpp -mtune=generic -march=x86-64 -g -O0
REM seed 1306160427 -1129290392 -1289648400 348264672 -78752958 480136780 1037800711 -255948384 -674186665 -134134413 -353840349 -549216852 -104135319 -1859997119 -354027925 -1272500846 -1135422583 -227007316 1484617062 -2013729494 134259255 -2027943924 1896104206 725820489 -1300269671 -1917140551 222490238 -557348362 -1552038637 -153262891 1694084611 1511161095 -1480342356
REM
CELL 1.54180   50.00000   50.00000   50.00000   90.00000   90.00000   90.00000
LATT -1
SFAC C  
C      1  0.4104710000000  0.5129930000000  0.5047080000000 1.0
C      1  0.4657960000000  0.4918990000000  0.5816580000000 1.0
C      1  0.4651500000000  0.5179300000000  0.5695620000000 1.0
C      1  0.4200040000000  0.5029570000000  0.5537580000000 1.0
C      1  0.4704700000000  0.4393730000000  0.4912060000000 1.0
C      1  0.5010770000000  0.5096830000000  0.4912540000000 1.0
C      1  0.5158920000000  0.5118230000000  0.5576740000000 1.0
C      1  0.5708040000000  0.5381500000000  0.5571290000000 1.0
C      1  0.4334120000000  0.4675350000000  0.5156510000000 1.0
C      1  0.4853240000000  0.4234220000000  0.5375620000000 1.0
C      1  0.5165720000000  0.4404600000000  0.5700810000000 1.0
C      1  0.5353490000000  0.5322990000000  0.4193530000000 1.0
C      1  0.4273840000000  0.4359870000000  0.4627630000000 1.0
C      1  0.4599000000000  0.4376110000000  0.4613780000000 1.0
C      1  0.4582320000000  0.4191090000000  0.5481460000000 1.0
C      1  0.4483340000000  0.4759100000000  0.5650460000000 1.0
C      1  0.5340550000000  0.4644560000000  0.5678620000000 1.0
C      1  0.4917680000000  0.4544340000000  0.5719060000000 1.0
C      1  0.4100040000000  0.5196410000000  0.5319290000000 1.0
C      1  0.4842170000000  0.4279440000000  0.4453960000000 1.0
C      1  0.4489760000000  0.5743080000000  0.4737010000000 1.0
C      1  0.5302580000000  0.5302630000000  0.5765310000000 1.0
C      1  0.4728140000000  0.5346060000000  0.4665190000000 1.0
C      1  0.5122730000000  0.4661100000000  0.4302270000000 1.0
C      1  0.5510030000000  0.5438540000000  0.4405810000000 1.0
C      1  0.5950260000000  0.5073630000000  0.4914530000000 1.0
C      1  0.5909970000000  0.4762000000000  0.5212610000000 1.0
C      1  0.5455170000000  0.5104230000000  0.5108000000000 1.0
C      1  0.4645370000000  0.4889770000000  0.4113610000000 1.0
C      1  0.5233430000000  0.5881990000000  0.4702440000000 1.0
C      1  0.4203790000000  0.4550580000000  0.5396140000000 1.0
C      1  0.4397920000000  0.5246540000000  0.5589750000000 1.0
C      1  0.4208960000000  0.4279630000000  0.4871610000000 1.0
C      1  0.4963410000000  0.4841590000000  0.5082190000000 1.0
C      1  0.5175350000000  0.4893130000000  0.5794470000000 1.0
C      1  0.4592230000000  0.5690110000000  0.4466620000000 1.0
C      1  0.4811360000000  0.5519210000000  0.4884310000000 1.0
C      1  0.4205330000000  0.4753010000000  0.5600640000000 1.0
C      1  0.4855250000000  0.5797950000000  0.4436130000000 1.0
C      1  0.4841850000000  0.4544730000000  0.5424890000000 1.0
C      1  0.4139920000000  0.4621010000000  0.4540890000000 1.0
C      1  0.5664810000000  0.5094800000000  0.5568360000000 1.0
C      1  0.4823770000000  0.5787530000000  0.5406830000000 1.0
C      1  0.5352410000000  0.5632300000000  0.5380150000000 1.0
C      1  0.4906470000000  0.4213990000000  0.5079180000000 1.0
C      1  0.4417830000000  0.4405150000000  0.5052640000000 1.0
C      1  0.5415240000000  0.5067780000000  0.4126000000000 1.0
C      1  0.5137120000000  0.4227760000000  0.5490970000000 1.0
C      1  0.4951890000000  0.5926880000000  0.4667170000000 1.0
C      1  0.5211040000000  0.5075240000000  0.4694090000000 1.0
C      1  0.5308530000000  0.5621700000000  0.4553340000000 1.0
C      1  0.4864760000000  0.5041540000000  0.4180450000000 1.0
C      1  0.5085170000000  0.3979020000000  0.4998600000000 1.0
C      1  0.4907200000000  0.4791410000000  0.5852040000000 1.0
C      1  0.4663820000000  0.5430870000000  0.5130550000000 1.0
C      1  0.5467880000000  0.4525600000000  0.4645120000000 1.0
C      1  0.5587380000000  0.5862830000000  0.5032030000000 1.0
C      1  0.4688460000000  0.4628600000000  0.4197620000000 1.0
C      1  0.5350910000000  0.4259580000000  0.5267660000000 1.0
C      1  0.5596160000000  0.5620230000000  0.5174490000000 1.0
C      1  0.4326720000000  0.4750380000000  0.4392910000000 1.0
C      1  0.5583490000000  0.4264570000000  0.4702510000000 1.0
C      1  0.4898700000000  0.4648100000000  0.4844690000000 1.0
C      1  0.5828600000000  0.5491200000000  0.5335380000000 1.0
C      1  0.5018710000000  0.4915010000000  0.4439230000000 1.0
C      1  0.4165060000000  0.5324980000000  0.4834300000000 1.0
C      1  0.5077200000000  0.5397680000000  0.4969530000000 1.0
C      1  0.4986410000000  0.5911580000000  0.5587860000000 1.0
C      1  0.5080590000000  0.5437470000000  0.4184310000000 1.0
C      1  0.5861300000000  0.4796360000000  0.4925400000000 1.0
C      1  0.5302010000000  0.5407360000000  0.4781000000000 1.0
C      1  0.5363580000000  0.4029350000000  0.5093660000000 1.0
C      1  0.5344490000000  0.4712100000000  0.5375970000000 1.0
C      1  0.4913270000000  0.4476160000000  0.4243260000000 1.0
C      1  0.4278950000000  0.5415530000000  0.5381150000000 1.0
C      1  0.6035680000000  0.5048650000000  0.5190120000000 1.0
C      1  0.5347570000000  0.5960610000000  0.4951240000000 1.0
C      1  0.5699860000000  0.5255670000000  0.4538900000000 1.0
C      1  0.5065100000000  0.4221860000000  0.4613490000000 1.0
C      1  0.5165130000000  0.4465780000000  0.4781610000000 1.0
C      1  0.5622150000000  0.4781630000000  0.4743090000000 1.0
C      1  0.4827340000000  0.5313380000000  0.4189970000000 1.0
C      1  0.5176790000000  0.3996700000000  0.4730270000000 1.0
C      1  0.5637180000000  0.4954510000000  0.5811990000000 1.0
C      1  0.6009200000000  0.5311140000000  0.5241460000000 1.0
C      1  0.4863370000000  0.5918110000000  0.5133430000000 1.0
C      1  0.4590640000000  0.4653080000000  0.4478340000000 1.0
C      1  0.4790950000000  0.4832580000000  0.4629850000000 1.0
C      1  0.5090140000000  0.4641210000000  0.5246740000000 1.0
C      1  0.5140660000000  0.5996830000000  0.5154130000000 1.0
C      1  0.5406400000000  0.5014710000000  0.5380950000000 1.0
C      1  0.5539230000000  0.5369980000000  0.4973130000000 1.0
C      1  0.5532400000000  0.4872620000000  0.4280180000000 1.0
C      1  0.4602200000000  0.5402170000000  0.4387250000000 1.0
C      1  0.4170200000000  0.4863450000000  0.4975130000000 1.0
C      1  0.5403090000000  0.4939130000000  0.4871350000000 1.0
C      1  0.4857030000000  0.5473330000000  0.5358420000000 1.0
C      1  0.4623530000000  0.5136170000000  0.5062520000000 1.0
C      1  0.5125060000000  0.5479220000000  0.5239010000000 1.0
C      1  0.5769990000000  0.4614370000000  0.5418350000000 1.0
C      1  0.4379170000000  0.4316050000000  0.5367510000000 1.0
C      1  0.4195070000000  0.5157280000000  0.4604230000000 1.0
C      1  0.5684120000000  0.4969180000000  0.4496640000000 1.0
C      1  0.5157320000000  0.4397380000000  0.5072650000000 1.0
C      1  0.5537960000000  0.4496710000000  0.5301410000000 1.0
C      1  0.4872430000000  0.5197320000000  0.5494210000000 1.0
C      1  0.4363510000000  0.5217980000000  0.4372650000000 1.0
C      1  0.4394620000000  0.4977300000000  0.4231670000000 1.0
C      1  0.4760800000000  0.5830190000000  0.4876550000000 1.0
C      1  0.4305350000000  0.5575470000000  0.4890380000000 1.0
C      1  0.5390680000000  0.5069570000000  0.5912890000000 1.0
C      1  0.4398300000000  0.5553170000000  0.5163720000000 1.0
C      1  0.4151050000000  0.4870620000000  0.4689240000000 1.0
C      1  0.4733340000000  0.5086980000000  0.4786540000000 1.0
C      1  0.5206510000000  0.5898000000000  0.5424940000000 1.0
C      1  0.5779360000000  0.5285600000000  0.4808280000000 1.0
C      1  0.5082930000000  0.5650430000000  0.4357950000000 1.0
C      1  0.4753540000000  0.4970130000000  0.5259910000000 1.0
C      1  0.5395650000000  0.4627140000000  0.4358170000000 1.0
C      1  0.4607280000000  0.4735910000000  0.5367530000000 1.0
C      1  0.5451130000000  0.4069320000000  0.4822230000000 1.0
C      1  0.5455210000000  0.5492850000000  0.5623570000000 1.0
C      1  0.5638930000000  0.4691240000000  0.5693130000000 1.0
END
