TITL C-102194-7134-6 2.23464456595752 125000 -483.19070717363 0 0 71 (C1) n - 1
REM
REM in /rds/project/t2_vol4/rds-t2-cs072/BORA/CARBON/from-Arr/AIRSS/Generating-Clusters/GAP-ML-2020/Only-C1/SD-CG/HFTN-CG
REM
REM
REM
REM
REM
REM ./C.cell (11c1c37f851c82e70ff6c80c92926a4b)
REM AIRSS Version 0.9.1 bugfix July 2018 build 013d7b7c2542+ Fri, 06 Jul 2018 19:26:36 +0100
REM compiler GCC version 9.3.0
REM options -cpp -mtune=generic -march=x86-64 -g -O0
REM seed -704332015 1853400972 -1260331567 -24827651 781673431 -1495086184 940637716 1054820471 -666007888 1138546143 -1757267477 -1184987121 217544145 -1449229460 -1965222850 -1027937568 1564024142 -281741866 1791743156 1405808820 -1727008415 2024092082 1132014356 1282481369 -1119421870 2034487689 -1972778907 -1333905596 809926369 -977653205 -571749629 1133581756 -419728876
REM
CELL 1.54180   50.00000   50.00000   50.00000   90.00000   90.00000   90.00000
LATT -1
SFAC C  
C      1  0.4956660000000  0.5607380000000  0.4518410000000 1.0
C      1  0.5673360000000  0.5103360000000  0.5037050000000 1.0
C      1  0.4425510000000  0.5036330000000  0.4491700000000 1.0
C      1  0.4679780000000  0.5789280000000  0.4854860000000 1.0
C      1  0.4833530000000  0.5337190000000  0.5317550000000 1.0
C      1  0.4818580000000  0.5453870000000  0.5575750000000 1.0
C      1  0.5733130000000  0.4901360000000  0.5235370000000 1.0
C      1  0.5404600000000  0.4480160000000  0.5440320000000 1.0
C      1  0.4335080000000  0.5226490000000  0.4688940000000 1.0
C      1  0.5075750000000  0.5382700000000  0.4407420000000 1.0
C      1  0.5347440000000  0.5352650000000  0.5341740000000 1.0
C      1  0.4673660000000  0.4562630000000  0.4640010000000 1.0
C      1  0.4411870000000  0.5214830000000  0.5214180000000 1.0
C      1  0.4952770000000  0.5836310000000  0.4944880000000 1.0
C      1  0.5396290000000  0.5590140000000  0.4705860000000 1.0
C      1  0.4584790000000  0.5224580000000  0.4340500000000 1.0
C      1  0.5078450000000  0.5284140000000  0.5163980000000 1.0
C      1  0.5104220000000  0.4981670000000  0.4756870000000 1.0
C      1  0.5021020000000  0.5446210000000  0.4932300000000 1.0
C      1  0.4349000000000  0.5112300000000  0.4956240000000 1.0
C      1  0.4533120000000  0.4770520000000  0.5475610000000 1.0
C      1  0.5599240000000  0.4984180000000  0.4781510000000 1.0
C      1  0.4688840000000  0.5576410000000  0.4646640000000 1.0
C      1  0.4599430000000  0.4863280000000  0.4652320000000 1.0
C      1  0.4874300000000  0.5811480000000  0.5234120000000 1.0
C      1  0.4934380000000  0.4933100000000  0.5658980000000 1.0
C      1  0.4615510000000  0.5405750000000  0.5132990000000 1.0
C      1  0.5565520000000  0.5550690000000  0.4913700000000 1.0
C      1  0.5412860000000  0.4353440000000  0.4985330000000 1.0
C      1  0.5222120000000  0.4936720000000  0.5654710000000 1.0
C      1  0.5121630000000  0.5690170000000  0.4749460000000 1.0
C      1  0.5567820000000  0.5360710000000  0.5108420000000 1.0
C      1  0.5629610000000  0.4697830000000  0.4828180000000 1.0
C      1  0.4818430000000  0.4491050000000  0.4408970000000 1.0
C      1  0.4928640000000  0.4299310000000  0.4955550000000 1.0
C      1  0.4881760000000  0.4443160000000  0.5465210000000 1.0
C      1  0.4482950000000  0.5424250000000  0.4521310000000 1.0
C      1  0.4992970000000  0.4888580000000  0.4259920000000 1.0
C      1  0.4984260000000  0.5666680000000  0.5460540000000 1.0
C      1  0.5329580000000  0.5349640000000  0.4536130000000 1.0
C      1  0.5367020000000  0.5094720000000  0.4649690000000 1.0
C      1  0.4839780000000  0.5080190000000  0.4660260000000 1.0
C      1  0.4898140000000  0.4577500000000  0.4851340000000 1.0
C      1  0.4498270000000  0.4864160000000  0.4930300000000 1.0
C      1  0.5739730000000  0.4650320000000  0.5107840000000 1.0
C      1  0.4505580000000  0.4405090000000  0.4858800000000 1.0
C      1  0.4888000000000  0.5146160000000  0.4361580000000 1.0
C      1  0.4772780000000  0.5340220000000  0.4834870000000 1.0
C      1  0.4454750000000  0.4557440000000  0.5302480000000 1.0
C      1  0.5404090000000  0.5131740000000  0.5531280000000 1.0
C      1  0.4755160000000  0.5160880000000  0.5573370000000 1.0
C      1  0.5602420000000  0.4929490000000  0.5481340000000 1.0
C      1  0.5511830000000  0.4449790000000  0.4690820000000 1.0
C      1  0.4789490000000  0.4696260000000  0.5590230000000 1.0
C      1  0.5043670000000  0.4991050000000  0.5061620000000 1.0
C      1  0.4510090000000  0.5051240000000  0.5443430000000 1.0
C      1  0.4806070000000  0.4790260000000  0.5047830000000 1.0
C      1  0.5142600000000  0.4690380000000  0.4747310000000 1.0
C      1  0.5338400000000  0.4666350000000  0.4972380000000 1.0
C      1  0.5584890000000  0.4436920000000  0.5214670000000 1.0
C      1  0.5165510000000  0.4254760000000  0.5100090000000 1.0
C      1  0.5145890000000  0.4364030000000  0.5370950000000 1.0
C      1  0.5250440000000  0.5601690000000  0.5469540000000 1.0
C      1  0.5057120000000  0.4633090000000  0.4354420000000 1.0
C      1  0.4391680000000  0.4603130000000  0.5024600000000 1.0
C      1  0.4666720000000  0.4242210000000  0.5044700000000 1.0
C      1  0.5419630000000  0.4724980000000  0.5584760000000 1.0
C      1  0.4617280000000  0.5704260000000  0.5120480000000 1.0
C      1  0.5283650000000  0.4545960000000  0.4538980000000 1.0
C      1  0.4651330000000  0.4349250000000  0.5313450000000 1.0
C      1  0.5259560000000  0.4845920000000  0.5173100000000 1.0
END
