TITL C-105719-8584-5 -0.0877756141910223 125000 -610.234645840973 0 0 89 (C1) n - 1
REM
REM in /rds/project/t2_vol4/rds-t2-cs072/BORA/CARBON/from-Arr/AIRSS/Generating-Clusters/GAP-ML-2020/Only-C1/SD-CG/HFTN-CG
REM
REM
REM
REM
REM
REM ./C.cell (11c1c37f851c82e70ff6c80c92926a4b)
REM AIRSS Version 0.9.1 bugfix July 2018 build 013d7b7c2542+ Fri, 06 Jul 2018 19:26:36 +0100
REM compiler GCC version 9.3.0
REM options -cpp -mtune=generic -march=x86-64 -g -O0
REM seed -658752329 305360597 67667264 2120247870 1459788271 250538536 1327935070 -1945174818 320825257 931310734 1863811956 870367070 -814988773 1703273111 1197494814 -2008972045 -1361340616 985269370 746881085 -589076026 1570588812 -1097532214 -1508149453 -122702516 256027527 -746669007 -105729796 -1284184650 -1611032895 165396101 1617490529 475568507 1657378511
REM
CELL 1.54180   50.00000   50.00000   50.00000   90.00000   90.00000   90.00000
LATT -1
SFAC C  
C      1  0.4739470000000  0.4313720000000  0.4835650000000 1.0
C      1  0.4508670000000  0.4488520000000  0.4861790000000 1.0
C      1  0.4943310000000  0.4428470000000  0.4643610000000 1.0
C      1  0.5423170000000  0.5550900000000  0.4660300000000 1.0
C      1  0.5379840000000  0.5457990000000  0.5548520000000 1.0
C      1  0.4928220000000  0.4984000000000  0.5473040000000 1.0
C      1  0.4081660000000  0.5150710000000  0.5081090000000 1.0
C      1  0.4782060000000  0.5043290000000  0.5733010000000 1.0
C      1  0.5723850000000  0.4563260000000  0.4876600000000 1.0
C      1  0.4993680000000  0.4696510000000  0.4814360000000 1.0
C      1  0.4141070000000  0.5130850000000  0.5354140000000 1.0
C      1  0.5570840000000  0.4815470000000  0.5276390000000 1.0
C      1  0.5140090000000  0.5633320000000  0.5514700000000 1.0
C      1  0.5572230000000  0.4341730000000  0.4962720000000 1.0
C      1  0.4625060000000  0.5263740000000  0.4309570000000 1.0
C      1  0.5516840000000  0.4540950000000  0.5662050000000 1.0
C      1  0.4549710000000  0.5694590000000  0.4883170000000 1.0
C      1  0.4173740000000  0.4698800000000  0.5149540000000 1.0
C      1  0.4366620000000  0.5272630000000  0.5476670000000 1.0
C      1  0.5024200000000  0.5213060000000  0.5334810000000 1.0
C      1  0.4508550000000  0.5072100000000  0.5642540000000 1.0
C      1  0.5879280000000  0.5026410000000  0.4945600000000 1.0
C      1  0.4851890000000  0.4547690000000  0.4382860000000 1.0
C      1  0.5243750000000  0.4548710000000  0.5538040000000 1.0
C      1  0.5467310000000  0.5090530000000  0.5222110000000 1.0
C      1  0.5778370000000  0.4780220000000  0.5057740000000 1.0
C      1  0.4786800000000  0.4524320000000  0.5584550000000 1.0
C      1  0.5361990000000  0.4969200000000  0.5703860000000 1.0
C      1  0.4380870000000  0.5545640000000  0.5057800000000 1.0
C      1  0.4592680000000  0.4633750000000  0.5380080000000 1.0
C      1  0.5933340000000  0.5252010000000  0.5095830000000 1.0
C      1  0.5583790000000  0.5362900000000  0.4831510000000 1.0
C      1  0.4658210000000  0.4749130000000  0.4391360000000 1.0
C      1  0.4175580000000  0.4850680000000  0.5395610000000 1.0
C      1  0.4410700000000  0.4814160000000  0.5539400000000 1.0
C      1  0.4997600000000  0.5670610000000  0.5264950000000 1.0
C      1  0.5584540000000  0.4795820000000  0.5586420000000 1.0
C      1  0.4856830000000  0.4195280000000  0.5053790000000 1.0
C      1  0.4811170000000  0.5431210000000  0.5256360000000 1.0
C      1  0.5285670000000  0.5238610000000  0.5727470000000 1.0
C      1  0.4808530000000  0.4838150000000  0.5248230000000 1.0
C      1  0.4868210000000  0.5400140000000  0.4244510000000 1.0
C      1  0.5547110000000  0.5359300000000  0.5338700000000 1.0
C      1  0.5045240000000  0.5788870000000  0.5009640000000 1.0
C      1  0.5275300000000  0.4723090000000  0.4349060000000 1.0
C      1  0.4489500000000  0.5340370000000  0.4542450000000 1.0
C      1  0.5295140000000  0.5449000000000  0.4414040000000 1.0
C      1  0.5051600000000  0.4247790000000  0.5234550000000 1.0
C      1  0.4502090000000  0.5461460000000  0.5310970000000 1.0
C      1  0.5353050000000  0.4235740000000  0.4849940000000 1.0
C      1  0.4639420000000  0.5452580000000  0.4761460000000 1.0
C      1  0.5721190000000  0.5422950000000  0.5116910000000 1.0
C      1  0.5277890000000  0.5190810000000  0.4274440000000 1.0
C      1  0.4203290000000  0.5353610000000  0.4927230000000 1.0
C      1  0.4105180000000  0.4887450000000  0.4945090000000 1.0
C      1  0.5445850000000  0.4968580000000  0.4316400000000 1.0
C      1  0.4258750000000  0.4922470000000  0.4711330000000 1.0
C      1  0.5171650000000  0.4847140000000  0.4631350000000 1.0
C      1  0.4685070000000  0.5008190000000  0.5036460000000 1.0
C      1  0.4779930000000  0.5289310000000  0.4985990000000 1.0
C      1  0.4995760000000  0.5265780000000  0.5798070000000 1.0
C      1  0.5233540000000  0.4337710000000  0.4620960000000 1.0
C      1  0.4966480000000  0.5056820000000  0.4648720000000 1.0
C      1  0.4277960000000  0.5214710000000  0.4679400000000 1.0
C      1  0.4501460000000  0.4741680000000  0.4655400000000 1.0
C      1  0.5632240000000  0.4648570000000  0.4617850000000 1.0
C      1  0.5055010000000  0.4623220000000  0.4215860000000 1.0
C      1  0.5312940000000  0.4619140000000  0.5239060000000 1.0
C      1  0.4871950000000  0.4745610000000  0.5770690000000 1.0
C      1  0.4996600000000  0.5760530000000  0.4596850000000 1.0
C      1  0.5403510000000  0.5133720000000  0.4936080000000 1.0
C      1  0.5627350000000  0.4938330000000  0.4544780000000 1.0
C      1  0.4960100000000  0.5508460000000  0.5685590000000 1.0
C      1  0.5322570000000  0.4337680000000  0.5135340000000 1.0
C      1  0.5411910000000  0.4516260000000  0.4493480000000 1.0
C      1  0.4747690000000  0.4877320000000  0.4779370000000 1.0
C      1  0.5012870000000  0.4373830000000  0.5496300000000 1.0
C      1  0.4808230000000  0.5796300000000  0.4825370000000 1.0
C      1  0.5076440000000  0.4775930000000  0.5097740000000 1.0
C      1  0.5413090000000  0.4920790000000  0.4749270000000 1.0
C      1  0.5038390000000  0.5213150000000  0.4871600000000 1.0
C      1  0.5000270000000  0.5149150000000  0.4185990000000 1.0
C      1  0.5161210000000  0.5076980000000  0.5105200000000 1.0
C      1  0.5042840000000  0.5579650000000  0.4377120000000 1.0
C      1  0.5227990000000  0.5740710000000  0.4773690000000 1.0
C      1  0.4404830000000  0.4540440000000  0.5125140000000 1.0
C      1  0.5135880000000  0.4802040000000  0.5653680000000 1.0
C      1  0.5763900000000  0.5140080000000  0.4710000000000 1.0
C      1  0.4739740000000  0.4996890000000  0.4253040000000 1.0
END
