TITL C-105658-7206-3 -0.0462355742718421 125000 -515.631900582505 0 0 74 (C1) n - 1
REM
REM in /rds/project/t2_vol4/rds-t2-cs072/BORA/CARBON/from-Arr/AIRSS/Generating-Clusters/GAP-ML-2020/Only-C1/SD-CG/HFTN-CG
REM
REM
REM
REM
REM
REM ./C.cell (11c1c37f851c82e70ff6c80c92926a4b)
REM AIRSS Version 0.9.1 bugfix July 2018 build 013d7b7c2542+ Fri, 06 Jul 2018 19:26:36 +0100
REM compiler GCC version 9.3.0
REM options -cpp -mtune=generic -march=x86-64 -g -O0
REM seed -1929832976 830904396 1930040071 -1024662164 -1670337006 -1119743987 1200954774 515026666 -73099612 -1006291013 1857226313 1266752907 -1806530617 -2019620233 -2055084344 1419946192 -1182384171 -2035863808 -1910520409 -1244341345 -574662382 734083757 -1630538841 187391647 -718663452 -809372142 1138761052 287395675 291018187 -1651768882 355302292 1715707823 1717715568
REM
CELL 1.54180   50.00000   50.00000   50.00000   90.00000   90.00000   90.00000
LATT -1
SFAC C  
C      1  0.5297770000000  0.4332890000000  0.5141600000000 1.0
C      1  0.5287210000000  0.5103950000000  0.5699470000000 1.0
C      1  0.5259700000000  0.5283080000000  0.5144040000000 1.0
C      1  0.4451160000000  0.5243900000000  0.4487730000000 1.0
C      1  0.4460840000000  0.5473650000000  0.4663220000000 1.0
C      1  0.4366040000000  0.4725010000000  0.5211920000000 1.0
C      1  0.4716900000000  0.4389160000000  0.4675980000000 1.0
C      1  0.5189630000000  0.5632280000000  0.4625020000000 1.0
C      1  0.5514460000000  0.5592560000000  0.5025050000000 1.0
C      1  0.5751270000000  0.5129350000000  0.4992180000000 1.0
C      1  0.5105780000000  0.5481850000000  0.4391410000000 1.0
C      1  0.4656870000000  0.5440730000000  0.5549010000000 1.0
C      1  0.5125300000000  0.4281590000000  0.4912640000000 1.0
C      1  0.5129120000000  0.4585160000000  0.4530580000000 1.0
C      1  0.4696630000000  0.4755030000000  0.4393230000000 1.0
C      1  0.4318840000000  0.5392110000000  0.4902710000000 1.0
C      1  0.4256170000000  0.4985890000000  0.5144720000000 1.0
C      1  0.4492480000000  0.5190280000000  0.5552970000000 1.0
C      1  0.4674340000000  0.4375640000000  0.5133370000000 1.0
C      1  0.4823330000000  0.4983200000000  0.4282230000000 1.0
C      1  0.4862060000000  0.4802230000000  0.4963510000000 1.0
C      1  0.4459040000000  0.4762290000000  0.4561530000000 1.0
C      1  0.4762910000000  0.5738570000000  0.5187940000000 1.0
C      1  0.5664870000000  0.4646660000000  0.4625830000000 1.0
C      1  0.5234930000000  0.5593130000000  0.5183850000000 1.0
C      1  0.4318250000000  0.5201630000000  0.5324900000000 1.0
C      1  0.4534050000000  0.4706190000000  0.5448380000000 1.0
C      1  0.5325310000000  0.5231640000000  0.4849190000000 1.0
C      1  0.4252270000000  0.5108770000000  0.4880550000000 1.0
C      1  0.4840390000000  0.4287720000000  0.4911230000000 1.0
C      1  0.5167260000000  0.4880370000000  0.5814140000000 1.0
C      1  0.5114640000000  0.4988870000000  0.4265920000000 1.0
C      1  0.5103040000000  0.5121240000000  0.4699610000000 1.0
C      1  0.5331570000000  0.4809130000000  0.4970840000000 1.0
C      1  0.4770570000000  0.4521520000000  0.5380630000000 1.0
C      1  0.5098070000000  0.4822890000000  0.4782440000000 1.0
C      1  0.5666420000000  0.4689200000000  0.5194110000000 1.0
C      1  0.4852800000000  0.4525900000000  0.4467640000000 1.0
C      1  0.4859370000000  0.5221940000000  0.4809570000000 1.0
C      1  0.5483890000000  0.4770060000000  0.5411610000000 1.0
C      1  0.4527140000000  0.4925920000000  0.5616070000000 1.0
C      1  0.4716940000000  0.5608420000000  0.4612770000000 1.0
C      1  0.4825330000000  0.5473420000000  0.4386470000000 1.0
C      1  0.4478780000000  0.4536190000000  0.4743220000000 1.0
C      1  0.4993530000000  0.4438740000000  0.5555380000000 1.0
C      1  0.4964430000000  0.4677880000000  0.5199310000000 1.0
C      1  0.4831710000000  0.5083420000000  0.5045480000000 1.0
C      1  0.4955330000000  0.5712930000000  0.4766010000000 1.0
C      1  0.5265290000000  0.4374180000000  0.4679050000000 1.0
C      1  0.5059130000000  0.5104370000000  0.5233700000000 1.0
C      1  0.5814620000000  0.4873470000000  0.5056300000000 1.0
C      1  0.4685530000000  0.5231040000000  0.4330820000000 1.0
C      1  0.5169370000000  0.5570050000000  0.5481980000000 1.0
C      1  0.5684240000000  0.5374970000000  0.5129900000000 1.0
C      1  0.5170980000000  0.5363030000000  0.5672020000000 1.0
C      1  0.5391040000000  0.4547300000000  0.5566280000000 1.0
C      1  0.4455350000000  0.4522260000000  0.5029540000000 1.0
C      1  0.5508450000000  0.5230970000000  0.5298680000000 1.0
C      1  0.4338250000000  0.5015340000000  0.4617390000000 1.0
C      1  0.5235990000000  0.4344840000000  0.5415980000000 1.0
C      1  0.4995580000000  0.5731710000000  0.5054010000000 1.0
C      1  0.5405160000000  0.5519070000000  0.4771340000000 1.0
C      1  0.5191550000000  0.5219940000000  0.4398690000000 1.0
C      1  0.5201740000000  0.4844420000000  0.5238970000000 1.0
C      1  0.5523480000000  0.4865720000000  0.4564010000000 1.0
C      1  0.4931010000000  0.5501030000000  0.5616810000000 1.0
C      1  0.5521650000000  0.5015140000000  0.4828720000000 1.0
C      1  0.4573700000000  0.5591860000000  0.5312750000000 1.0
C      1  0.4357620000000  0.5445700000000  0.5182120000000 1.0
C      1  0.5529210000000  0.4455990000000  0.4755680000000 1.0
C      1  0.5285020000000  0.4793060000000  0.4393290000000 1.0
C      1  0.5492700000000  0.4524260000000  0.5031690000000 1.0
C      1  0.5492590000000  0.5043740000000  0.5508910000000 1.0
C      1  0.5151990000000  0.4632360000000  0.5714130000000 1.0
END
