TITL C-105663-585-3 -177.613280019262 125000 -782.341823353618 0 0 113 (C1) n - 1
REM
REM in /rds/project/t2_vol4/rds-t2-cs072/BORA/CARBON/from-Arr/AIRSS/Generating-Clusters/GAP-ML-2020/Only-C1/SD-CG/HFTN-CG
REM
REM
REM
REM
REM
REM ./C.cell (11c1c37f851c82e70ff6c80c92926a4b)
REM AIRSS Version 0.9.1 bugfix July 2018 build 013d7b7c2542+ Fri, 06 Jul 2018 19:26:36 +0100
REM compiler GCC version 9.3.0
REM options -cpp -mtune=generic -march=x86-64 -g -O0
REM seed 1422371510 509948859 1657048853 49594456 2036293951 -312644238 728542493 450691916 -2077831268 1667366424 -1199817295 744773622 2030230560 300200710 2007159530 -243832458 -664539687 975656164 356789896 -1628220975 -1330994563 -1065795628 1585274497 -262536052 -1884948318 -1868123594 2105051178 -1642981305 486168886 1804657996 1721875413 1999346857 947067176
REM
CELL 1.54180   50.00000   50.00000   50.00000   90.00000   90.00000   90.00000
LATT -1
SFAC C  
C      1  0.5418230000000  0.4803020000000  0.4838400000000 1.0
C      1  0.4991230000000  0.4291370000000  0.5555990000000 1.0
C      1  0.4180650000000  0.5152780000000  0.4673420000000 1.0
C      1  0.4454490000000  0.5510070000000  0.4817190000000 1.0
C      1  0.4471770000000  0.4439930000000  0.5620430000000 1.0
C      1  0.5202620000000  0.5478610000000  0.4413860000000 1.0
C      1  0.5200030000000  0.4250040000000  0.4745190000000 1.0
C      1  0.5323320000000  0.5617690000000  0.5579600000000 1.0
C      1  0.4808690000000  0.5792500000000  0.5087100000000 1.0
C      1  0.4926390000000  0.4623260000000  0.4916680000000 1.0
C      1  0.4833550000000  0.5185550000000  0.5522260000000 1.0
C      1  0.5434000000000  0.4926350000000  0.5293230000000 1.0
C      1  0.4916340000000  0.4525740000000  0.4306000000000 1.0
C      1  0.5222600000000  0.5010690000000  0.4167760000000 1.0
C      1  0.5284710000000  0.4177340000000  0.5224130000000 1.0
C      1  0.4421890000000  0.4600470000000  0.4270680000000 1.0
C      1  0.5147300000000  0.5297320000000  0.4682060000000 1.0
C      1  0.4510520000000  0.4728510000000  0.5306310000000 1.0
C      1  0.5117120000000  0.4854530000000  0.4844600000000 1.0
C      1  0.5721690000000  0.4498040000000  0.5137130000000 1.0
C      1  0.4407460000000  0.4437890000000  0.5311100000000 1.0
C      1  0.5464620000000  0.5386710000000  0.4297430000000 1.0
C      1  0.4683730000000  0.5363840000000  0.4953370000000 1.0
C      1  0.5006970000000  0.5010830000000  0.5854090000000 1.0
C      1  0.4448030000000  0.5489320000000  0.5340790000000 1.0
C      1  0.4240270000000  0.5118250000000  0.5521790000000 1.0
C      1  0.4500590000000  0.4842120000000  0.5041480000000 1.0
C      1  0.5182970000000  0.4567900000000  0.4342550000000 1.0
C      1  0.5557710000000  0.5560090000000  0.4961690000000 1.0
C      1  0.4780340000000  0.4370860000000  0.4506690000000 1.0
C      1  0.5477860000000  0.4522350000000  0.4422540000000 1.0
C      1  0.5632370000000  0.4643690000000  0.5776190000000 1.0
C      1  0.4100630000000  0.5255390000000  0.5066240000000 1.0
C      1  0.4933760000000  0.5033150000000  0.4128740000000 1.0
C      1  0.5039760000000  0.5685230000000  0.5556850000000 1.0
C      1  0.5258860000000  0.5996760000000  0.4489950000000 1.0
C      1  0.4848050000000  0.5525300000000  0.5702880000000 1.0
C      1  0.5347690000000  0.5738360000000  0.4471080000000 1.0
C      1  0.5360770000000  0.4277630000000  0.4974160000000 1.0
C      1  0.4195880000000  0.4488010000000  0.5097900000000 1.0
C      1  0.4194520000000  0.4638730000000  0.4657380000000 1.0
C      1  0.5519830000000  0.5033730000000  0.5010640000000 1.0
C      1  0.5970130000000  0.5022970000000  0.5196860000000 1.0
C      1  0.5441360000000  0.4282740000000  0.5444820000000 1.0
C      1  0.5246740000000  0.4911090000000  0.5756220000000 1.0
C      1  0.5313500000000  0.5092830000000  0.5505350000000 1.0
C      1  0.4718020000000  0.4978880000000  0.4690980000000 1.0
C      1  0.5656410000000  0.5593100000000  0.5254910000000 1.0
C      1  0.4285000000000  0.4834970000000  0.5487980000000 1.0
C      1  0.5209810000000  0.4859750000000  0.4411760000000 1.0
C      1  0.4070820000000  0.5010440000000  0.4905610000000 1.0
C      1  0.5291000000000  0.4682460000000  0.5255590000000 1.0
C      1  0.5060920000000  0.5180320000000  0.5329670000000 1.0
C      1  0.5898870000000  0.5090140000000  0.4481520000000 1.0
C      1  0.4526140000000  0.4924660000000  0.5798800000000 1.0
C      1  0.4987230000000  0.4717250000000  0.5215490000000 1.0
C      1  0.4756060000000  0.4441470000000  0.5601570000000 1.0
C      1  0.5604020000000  0.5574590000000  0.4468980000000 1.0
C      1  0.4558840000000  0.4680580000000  0.4046540000000 1.0
C      1  0.4544050000000  0.5531590000000  0.4544260000000 1.0
C      1  0.5457620000000  0.5357750000000  0.5587990000000 1.0
C      1  0.4193630000000  0.4749130000000  0.4936640000000 1.0
C      1  0.5357450000000  0.4643750000000  0.5774120000000 1.0
C      1  0.4326540000000  0.4294680000000  0.4927530000000 1.0
C      1  0.5691480000000  0.4417320000000  0.5389780000000 1.0
C      1  0.5032260000000  0.5019100000000  0.4626200000000 1.0
C      1  0.4808360000000  0.4756460000000  0.4141150000000 1.0
C      1  0.5912960000000  0.4878590000000  0.5433380000000 1.0
C      1  0.4782180000000  0.4701550000000  0.5445740000000 1.0
C      1  0.4226250000000  0.5310110000000  0.5309400000000 1.0
C      1  0.4812170000000  0.4199790000000  0.5060030000000 1.0
C      1  0.4504220000000  0.4379180000000  0.4451170000000 1.0
C      1  0.5487870000000  0.5131840000000  0.4195380000000 1.0
C      1  0.5373340000000  0.5815950000000  0.4956070000000 1.0
C      1  0.4957980000000  0.5441150000000  0.4879300000000 1.0
C      1  0.5370410000000  0.5296620000000  0.4948030000000 1.0
C      1  0.4426960000000  0.5193980000000  0.5719090000000 1.0
C      1  0.4419720000000  0.5057500000000  0.4522480000000 1.0
C      1  0.5854940000000  0.5224910000000  0.4718520000000 1.0
C      1  0.5132100000000  0.5343970000000  0.5111050000000 1.0
C      1  0.5279300000000  0.5876790000000  0.5209450000000 1.0
C      1  0.5495090000000  0.4798220000000  0.4534690000000 1.0
C      1  0.5670630000000  0.4983500000000  0.4379040000000 1.0
C      1  0.5305770000000  0.4340770000000  0.4506550000000 1.0
C      1  0.5007490000000  0.5827910000000  0.5295990000000 1.0
C      1  0.5006010000000  0.4171250000000  0.5282380000000 1.0
C      1  0.5260860000000  0.4380690000000  0.5639620000000 1.0
C      1  0.4605700000000  0.5390020000000  0.5573890000000 1.0
C      1  0.4932060000000  0.5506880000000  0.4318120000000 1.0
C      1  0.4538300000000  0.4236930000000  0.5116490000000 1.0
C      1  0.4968870000000  0.5001540000000  0.5110980000000 1.0
C      1  0.4291650000000  0.4790110000000  0.4440220000000 1.0
C      1  0.5466750000000  0.5760240000000  0.5386230000000 1.0
C      1  0.5185910000000  0.5884790000000  0.4744340000000 1.0
C      1  0.5888420000000  0.5159780000000  0.5434970000000 1.0
C      1  0.4965330000000  0.5286140000000  0.5797470000000 1.0
C      1  0.4697380000000  0.5074250000000  0.4990290000000 1.0
C      1  0.5725310000000  0.5493000000000  0.4714980000000 1.0
C      1  0.4672140000000  0.4723270000000  0.4825550000000 1.0
C      1  0.5780770000000  0.4641940000000  0.5549170000000 1.0
C      1  0.4369830000000  0.4695250000000  0.5719300000000 1.0
C      1  0.5713210000000  0.5383170000000  0.5456370000000 1.0
C      1  0.4782850000000  0.5279280000000  0.4219300000000 1.0
C      1  0.4585530000000  0.5605110000000  0.5112160000000 1.0
C      1  0.4921660000000  0.4334010000000  0.4796020000000 1.0
C      1  0.5819310000000  0.5068980000000  0.4960960000000 1.0
C      1  0.4537830000000  0.5292340000000  0.4375680000000 1.0
C      1  0.4790650000000  0.5654980000000  0.4525480000000 1.0
C      1  0.4925520000000  0.5739350000000  0.4799160000000 1.0
C      1  0.4201670000000  0.5391400000000  0.4832670000000 1.0
C      1  0.5473270000000  0.4552910000000  0.5009040000000 1.0
C      1  0.4309520000000  0.4378160000000  0.4659880000000 1.0
C      1  0.4788200000000  0.4923930000000  0.5666070000000 1.0
END
