TITL C-102219-7247-4 -62.8204782423448 125000 -718.411113313701 0 0 101 (C1) n - 1
REM
REM in /rds/project/t2_vol4/rds-t2-cs072/BORA/CARBON/from-Arr/AIRSS/Generating-Clusters/GAP-ML-2020/Only-C1/SD-CG/HFTN-CG
REM
REM
REM
REM
REM
REM ./C.cell (11c1c37f851c82e70ff6c80c92926a4b)
REM AIRSS Version 0.9.1 bugfix July 2018 build 013d7b7c2542+ Fri, 06 Jul 2018 19:26:36 +0100
REM compiler GCC version 9.3.0
REM options -cpp -mtune=generic -march=x86-64 -g -O0
REM seed -81773865 1954187480 542885839 693408390 893367272 -392859744 139420974 146376743 1089634088 1363489080 -1563228737 -1700825739 -1223058952 -1295128842 216191901 999628626 1909156162 -2102252874 -512589778 -1841779010 2140260584 -16866384 1472231040 -1472357062 2071416097 -53347020 -1500099287 -1654269693 -948247385 -388983372 -119345435 -1474510728 -1212599642
REM
CELL 1.54180   50.00000   50.00000   50.00000   90.00000   90.00000   90.00000
LATT -1
SFAC C  
C      1  0.5741190000000  0.4920240000000  0.5415490000000 1.0
C      1  0.5312430000000  0.5732470000000  0.5389510000000 1.0
C      1  0.4691800000000  0.5842770000000  0.4975140000000 1.0
C      1  0.5149600000000  0.5892680000000  0.4767710000000 1.0
C      1  0.4543670000000  0.4392950000000  0.5359290000000 1.0
C      1  0.5159570000000  0.4786470000000  0.5289360000000 1.0
C      1  0.5114970000000  0.4503950000000  0.5153500000000 1.0
C      1  0.4814800000000  0.5831920000000  0.5239900000000 1.0
C      1  0.4253490000000  0.5366930000000  0.5298440000000 1.0
C      1  0.4733170000000  0.4199020000000  0.5312460000000 1.0
C      1  0.5737420000000  0.4478260000000  0.4717820000000 1.0
C      1  0.5265180000000  0.4295920000000  0.5494960000000 1.0
C      1  0.5689830000000  0.5581940000000  0.5071050000000 1.0
C      1  0.5094270000000  0.5874660000000  0.5252060000000 1.0
C      1  0.5587040000000  0.4665980000000  0.5360220000000 1.0
C      1  0.5153150000000  0.5006130000000  0.4348690000000 1.0
C      1  0.5591150000000  0.5095580000000  0.5593750000000 1.0
C      1  0.5313960000000  0.4278680000000  0.4757690000000 1.0
C      1  0.4872350000000  0.5760980000000  0.4494440000000 1.0
C      1  0.4424410000000  0.5587720000000  0.5243570000000 1.0
C      1  0.4111980000000  0.4965390000000  0.5010120000000 1.0
C      1  0.5848280000000  0.5237800000000  0.4766970000000 1.0
C      1  0.5688860000000  0.5183790000000  0.4527290000000 1.0
C      1  0.4949920000000  0.4804100000000  0.4249240000000 1.0
C      1  0.5007290000000  0.4062720000000  0.5045670000000 1.0
C      1  0.5792870000000  0.4307740000000  0.4930820000000 1.0
C      1  0.5269500000000  0.5904160000000  0.5018470000000 1.0
C      1  0.5310910000000  0.5506390000000  0.5556360000000 1.0
C      1  0.5222810000000  0.5379170000000  0.5014580000000 1.0
C      1  0.4614000000000  0.4172660000000  0.4830580000000 1.0
C      1  0.4474050000000  0.4775520000000  0.4422860000000 1.0
C      1  0.4915270000000  0.4617090000000  0.5732570000000 1.0
C      1  0.4340730000000  0.5185530000000  0.5494480000000 1.0
C      1  0.4844690000000  0.5165460000000  0.5185670000000 1.0
C      1  0.4679820000000  0.4883520000000  0.4244520000000 1.0
C      1  0.4630460000000  0.4993930000000  0.5776480000000 1.0
C      1  0.5372630000000  0.4433330000000  0.5007170000000 1.0
C      1  0.5054800000000  0.5386600000000  0.5648070000000 1.0
C      1  0.5490360000000  0.5764710000000  0.5157410000000 1.0
C      1  0.5557560000000  0.5442470000000  0.4538770000000 1.0
C      1  0.5023040000000  0.4546620000000  0.4340880000000 1.0
C      1  0.4722280000000  0.4057120000000  0.5065600000000 1.0
C      1  0.4459490000000  0.4410000000000  0.4821050000000 1.0
C      1  0.5299340000000  0.5504040000000  0.4416040000000 1.0
C      1  0.4796280000000  0.4404530000000  0.4462560000000 1.0
C      1  0.5623050000000  0.4912380000000  0.4533130000000 1.0
C      1  0.5606230000000  0.4264400000000  0.5121340000000 1.0
C      1  0.5536520000000  0.4360430000000  0.5380950000000 1.0
C      1  0.4652260000000  0.5023740000000  0.5033130000000 1.0
C      1  0.5353420000000  0.4980610000000  0.5678820000000 1.0
C      1  0.4767750000000  0.5461030000000  0.5601470000000 1.0
C      1  0.4650430000000  0.4576470000000  0.5575480000000 1.0
C      1  0.5717740000000  0.4777840000000  0.4794880000000 1.0
C      1  0.4894440000000  0.4899800000000  0.5815920000000 1.0
C      1  0.5834470000000  0.5092210000000  0.5208830000000 1.0
C      1  0.4332350000000  0.5538650000000  0.4742930000000 1.0
C      1  0.5739470000000  0.5372760000000  0.5269310000000 1.0
C      1  0.5124960000000  0.5301710000000  0.4284490000000 1.0
C      1  0.4438670000000  0.4557410000000  0.5102840000000 1.0
C      1  0.4858490000000  0.5893590000000  0.4754710000000 1.0
C      1  0.5039880000000  0.4241190000000  0.5293650000000 1.0
C      1  0.5369820000000  0.5174990000000  0.5066800000000 1.0
C      1  0.5171470000000  0.4511720000000  0.5659050000000 1.0
C      1  0.4659840000000  0.5653470000000  0.5407050000000 1.0
C      1  0.4296580000000  0.4901020000000  0.5452770000000 1.0
C      1  0.4231990000000  0.4776030000000  0.5188620000000 1.0
C      1  0.4573960000000  0.5243530000000  0.5658070000000 1.0
C      1  0.4454330000000  0.5680250000000  0.4970650000000 1.0
C      1  0.4474350000000  0.4791550000000  0.5645630000000 1.0
C      1  0.5718640000000  0.5490970000000  0.4796170000000 1.0
C      1  0.5870600000000  0.5012250000000  0.4932160000000 1.0
C      1  0.4543260000000  0.4531090000000  0.4555770000000 1.0
C      1  0.4760920000000  0.4773960000000  0.5377640000000 1.0
C      1  0.4964960000000  0.5342370000000  0.4991750000000 1.0
C      1  0.4645420000000  0.5159980000000  0.4222060000000 1.0
C      1  0.4932560000000  0.4643980000000  0.4961180000000 1.0
C      1  0.5081870000000  0.5090650000000  0.5677830000000 1.0
C      1  0.5399300000000  0.4828920000000  0.4380750000000 1.0
C      1  0.4687780000000  0.4742360000000  0.5095730000000 1.0
C      1  0.5296150000000  0.4911070000000  0.5039730000000 1.0
C      1  0.4448170000000  0.5488000000000  0.4480690000000 1.0
C      1  0.4702400000000  0.5577560000000  0.4374450000000 1.0
C      1  0.4956460000000  0.4979120000000  0.5386180000000 1.0
C      1  0.5569900000000  0.5361930000000  0.5507070000000 1.0
C      1  0.4847180000000  0.5361230000000  0.4239750000000 1.0
C      1  0.5315960000000  0.4560920000000  0.4402930000000 1.0
C      1  0.5159790000000  0.5733100000000  0.4513830000000 1.0
C      1  0.4835140000000  0.4183930000000  0.4636830000000 1.0
C      1  0.5079630000000  0.4127920000000  0.4777090000000 1.0
C      1  0.5094090000000  0.4835820000000  0.4834580000000 1.0
C      1  0.4876550000000  0.5229920000000  0.4736470000000 1.0
C      1  0.5485000000000  0.4400560000000  0.4573760000000 1.0
C      1  0.4293070000000  0.4997860000000  0.4491030000000 1.0
C      1  0.4113840000000  0.5249430000000  0.5086210000000 1.0
C      1  0.4136540000000  0.5057240000000  0.4723720000000 1.0
C      1  0.4624400000000  0.5134050000000  0.4786290000000 1.0
C      1  0.5030560000000  0.5016300000000  0.4637180000000 1.0
C      1  0.5512470000000  0.4703390000000  0.5026050000000 1.0
C      1  0.4407580000000  0.5232570000000  0.4363020000000 1.0
C      1  0.4147650000000  0.5335270000000  0.4815210000000 1.0
C      1  0.5338980000000  0.4729870000000  0.5537110000000 1.0
END
