TITL C-105729-8495-9 210.376098199882 125000 -131.303287676196 0 0 21 (C1) n - 1
REM
REM in /rds/project/t2_vol4/rds-t2-cs072/BORA/CARBON/from-Arr/AIRSS/Generating-Clusters/GAP-ML-2020/Only-C1/SD-CG/HFTN-CG
REM
REM
REM
REM
REM
REM ./C.cell (11c1c37f851c82e70ff6c80c92926a4b)
REM AIRSS Version 0.9.1 bugfix July 2018 build 013d7b7c2542+ Fri, 06 Jul 2018 19:26:36 +0100
REM compiler GCC version 9.3.0
REM options -cpp -mtune=generic -march=x86-64 -g -O0
REM seed -1712518496 -35983967 -509043328 -1639518509 54844850 -416715138 -2006982007 696567730 -1250384069 1540014321 876429050 1973507400 322409745 -1329246365 -664303738 -1912419581 902958176 -1521289883 1938778390 854244385 1990930246 -1315987292 1356720611 1921508638 -280065819 1101193631 -1772637969 -1620638703 -401189029 270830108 808305189 -891625935 293350450
REM
CELL 1.54180   50.00000   50.00000   50.00000   90.00000   90.00000   90.00000
LATT -1
SFAC C  
C      1  0.4491240000000  0.4966750000000  0.4816600000000 1.0
C      1  0.4966310000000  0.4979240000000  0.5428160000000 1.0
C      1  0.4557670000000  0.4756470000000  0.4969080000000 1.0
C      1  0.5125700000000  0.4924990000000  0.4474720000000 1.0
C      1  0.4546420000000  0.5319220000000  0.4916010000000 1.0
C      1  0.5123300000000  0.4764740000000  0.4672570000000 1.0
C      1  0.4489000000000  0.4893580000000  0.5227810000000 1.0
C      1  0.5315930000000  0.4654740000000  0.5092150000000 1.0
C      1  0.5138990000000  0.5128870000000  0.4315100000000 1.0
C      1  0.5081910000000  0.4680600000000  0.4933280000000 1.0
C      1  0.5592060000000  0.4946460000000  0.5241960000000 1.0
C      1  0.5347930000000  0.4739080000000  0.5356670000000 1.0
C      1  0.4766040000000  0.5019670000000  0.5230210000000 1.0
C      1  0.4838800000000  0.4775120000000  0.5027140000000 1.0
C      1  0.5498550000000  0.5407450000000  0.4955010000000 1.0
C      1  0.5169670000000  0.4859850000000  0.5515600000000 1.0
C      1  0.5245950000000  0.5447510000000  0.4998210000000 1.0
C      1  0.4993640000000  0.5413570000000  0.5030950000000 1.0
C      1  0.4406730000000  0.5190140000000  0.4718260000000 1.0
C      1  0.4764520000000  0.5282500000000  0.5075940000000 1.0
C      1  0.5539620000000  0.4849450000000  0.5004580000000 1.0
END
