TITL C-102205-7239-8 29.3608336111134 125000 -434.019267205219 0 0 63 (C1) n - 1
REM
REM in /rds/project/t2_vol4/rds-t2-cs072/BORA/CARBON/from-Arr/AIRSS/Generating-Clusters/GAP-ML-2020/Only-C1/SD-CG/HFTN-CG
REM
REM
REM
REM
REM
REM ./C.cell (11c1c37f851c82e70ff6c80c92926a4b)
REM AIRSS Version 0.9.1 bugfix July 2018 build 013d7b7c2542+ Fri, 06 Jul 2018 19:26:36 +0100
REM compiler GCC version 9.3.0
REM options -cpp -mtune=generic -march=x86-64 -g -O0
REM seed -369336192 -613461549 -731936699 -1402611951 -1352914698 1553450528 -1621691005 836933301 -687480862 1170280733 272243033 -1017010664 -493239899 -1325545456 -1813270466 -1118730857 10925215 -1837068458 1312963811 -1130675499 -864218226 207433790 -1111673298 -1915509145 -1689868263 -149970383 -428359550 -2139561057 -1210032904 -589241299 1995655024 -776586654 -1284987198
REM
CELL 1.54180   50.00000   50.00000   50.00000   90.00000   90.00000   90.00000
LATT -1
SFAC C  
C      1  0.5636320000000  0.4788310000000  0.4807790000000 1.0
C      1  0.4405690000000  0.5268790000000  0.4650350000000 1.0
C      1  0.5100650000000  0.5453250000000  0.5599710000000 1.0
C      1  0.4888210000000  0.5270040000000  0.5552020000000 1.0
C      1  0.4631100000000  0.5670070000000  0.4878440000000 1.0
C      1  0.4251460000000  0.5065940000000  0.4759210000000 1.0
C      1  0.4710530000000  0.4276690000000  0.4904600000000 1.0
C      1  0.4858330000000  0.5314390000000  0.4399350000000 1.0
C      1  0.4257610000000  0.4784950000000  0.4715170000000 1.0
C      1  0.5319740000000  0.5063440000000  0.5438040000000 1.0
C      1  0.5398300000000  0.4986810000000  0.5140040000000 1.0
C      1  0.4859090000000  0.4283620000000  0.5150970000000 1.0
C      1  0.5079980000000  0.5717040000000  0.4867870000000 1.0
C      1  0.5417340000000  0.4618540000000  0.4760820000000 1.0
C      1  0.5518760000000  0.4473090000000  0.5245640000000 1.0
C      1  0.5185610000000  0.5630810000000  0.5382090000000 1.0
C      1  0.4759320000000  0.4450010000000  0.5367710000000 1.0
C      1  0.4504000000000  0.5381220000000  0.5150170000000 1.0
C      1  0.4965440000000  0.4531430000000  0.4558140000000 1.0
C      1  0.4980240000000  0.4853190000000  0.4961270000000 1.0
C      1  0.5105280000000  0.4310690000000  0.4987690000000 1.0
C      1  0.4704920000000  0.4658700000000  0.4490620000000 1.0
C      1  0.4446820000000  0.5455900000000  0.4865000000000 1.0
C      1  0.4485940000000  0.4427260000000  0.4877250000000 1.0
C      1  0.5006840000000  0.4773510000000  0.5631130000000 1.0
C      1  0.4602280000000  0.5187940000000  0.4450960000000 1.0
C      1  0.5071630000000  0.5301020000000  0.5095770000000 1.0
C      1  0.5321710000000  0.4500660000000  0.5017500000000 1.0
C      1  0.4985560000000  0.5051590000000  0.4352490000000 1.0
C      1  0.5364280000000  0.5332900000000  0.4710730000000 1.0
C      1  0.4542420000000  0.4642850000000  0.5326530000000 1.0
C      1  0.4569280000000  0.4921840000000  0.5410350000000 1.0
C      1  0.4195460000000  0.4752020000000  0.5008770000000 1.0
C      1  0.4230590000000  0.5026970000000  0.5058820000000 1.0
C      1  0.5053740000000  0.5163590000000  0.5347250000000 1.0
C      1  0.4426990000000  0.5121980000000  0.5247530000000 1.0
C      1  0.4468530000000  0.4601660000000  0.4649740000000 1.0
C      1  0.5007960000000  0.5596170000000  0.5138260000000 1.0
C      1  0.4913630000000  0.5101070000000  0.4946020000000 1.0
C      1  0.5459640000000  0.5519180000000  0.5374860000000 1.0
C      1  0.5209480000000  0.4775000000000  0.5085490000000 1.0
C      1  0.5478270000000  0.4628080000000  0.5481460000000 1.0
C      1  0.5669840000000  0.4890490000000  0.5096940000000 1.0
C      1  0.4964070000000  0.5555350000000  0.4498110000000 1.0
C      1  0.5682050000000  0.5013420000000  0.4649790000000 1.0
C      1  0.4839280000000  0.5728880000000  0.4705660000000 1.0
C      1  0.5686520000000  0.4683310000000  0.5296920000000 1.0
C      1  0.5833280000000  0.5196670000000  0.4807680000000 1.0
C      1  0.4701610000000  0.5598450000000  0.5158580000000 1.0
C      1  0.5353770000000  0.5260040000000  0.5006540000000 1.0
C      1  0.5368430000000  0.5328210000000  0.5577570000000 1.0
C      1  0.5233470000000  0.4933250000000  0.4433650000000 1.0
C      1  0.4372340000000  0.4567460000000  0.5110030000000 1.0
C      1  0.5210470000000  0.5559160000000  0.4657090000000 1.0
C      1  0.4925720000000  0.4529730000000  0.5562330000000 1.0
C      1  0.5433460000000  0.5113370000000  0.4541870000000 1.0
C      1  0.5778070000000  0.5195780000000  0.5071040000000 1.0
C      1  0.5576780000000  0.5399230000000  0.5149710000000 1.0
C      1  0.4806510000000  0.4992770000000  0.5567070000000 1.0
C      1  0.5289430000000  0.4811830000000  0.5580670000000 1.0
C      1  0.5220630000000  0.4668310000000  0.4550130000000 1.0
C      1  0.4952070000000  0.4319690000000  0.4743770000000 1.0
C      1  0.4723230000000  0.4922420000000  0.4391180000000 1.0
END
