TITL C-101245-5697-9 -0.0271413661031866 125000 -185.725170603085 0 0 28 (C1) n - 1
REM
REM in /rds/project/t2_vol4/rds-t2-cs072/BORA/CARBON/from-Arr/AIRSS/Generating-Clusters/GAP-ML-2020/Only-C1/SD-CG/HFTN-CG
REM
REM
REM
REM
REM
REM ./C.cell (11c1c37f851c82e70ff6c80c92926a4b)
REM AIRSS Version 0.9.1 bugfix July 2018 build 013d7b7c2542+ Fri, 06 Jul 2018 19:26:36 +0100
REM compiler GCC version 9.3.0
REM options -cpp -mtune=generic -march=x86-64 -g -O0
REM seed 2145194903 -133050649 565596281 -1398581120 -620885237 1563089042 -1250207121 -825445966 239291272 -1774085661 358294816 -1115945287 -1393296061 2097341695 -1842791439 -1433561590 -2091123002 -45367969 -3384264 -1178782708 758088855 1412317598 235269020 -1162261358 -598735460 -296383709 -1849140073 2123282776 1951647835 424768349 -980567517 -1113043058 -1620637809
REM
CELL 1.54180   50.00000   50.00000   50.00000   90.00000   90.00000   90.00000
LATT -1
SFAC C  
C      1  0.5278730000000  0.5232690000000  0.5335450000000 1.0
C      1  0.5186140000000  0.4671330000000  0.5238850000000 1.0
C      1  0.4710650000000  0.5323480000000  0.5066790000000 1.0
C      1  0.4570300000000  0.5240010000000  0.4806820000000 1.0
C      1  0.5175880000000  0.4976180000000  0.4460570000000 1.0
C      1  0.5465670000000  0.5082040000000  0.5181920000000 1.0
C      1  0.4991490000000  0.5129650000000  0.4594550000000 1.0
C      1  0.5290450000000  0.4778940000000  0.4623670000000 1.0
C      1  0.4694130000000  0.4762150000000  0.4764980000000 1.0
C      1  0.4713760000000  0.4651400000000  0.5204210000000 1.0
C      1  0.4968770000000  0.4554150000000  0.5090760000000 1.0
C      1  0.5137570000000  0.4545870000000  0.4640760000000 1.0
C      1  0.5163060000000  0.5465140000000  0.5226660000000 1.0
C      1  0.5388630000000  0.5341270000000  0.4766960000000 1.0
C      1  0.4934780000000  0.4581630000000  0.4809130000000 1.0
C      1  0.5467670000000  0.4850250000000  0.4833580000000 1.0
C      1  0.4604200000000  0.5034630000000  0.5481750000000 1.0
C      1  0.5400780000000  0.4803480000000  0.5111570000000 1.0
C      1  0.5105760000000  0.5351380000000  0.4755090000000 1.0
C      1  0.5156770000000  0.5076640000000  0.5534840000000 1.0
C      1  0.4766010000000  0.4809890000000  0.5435810000000 1.0
C      1  0.4983720000000  0.5409470000000  0.5018690000000 1.0
C      1  0.5510110000000  0.5143720000000  0.4895810000000 1.0
C      1  0.4381720000000  0.5382720000000  0.4691320000000 1.0
C      1  0.4729810000000  0.5026110000000  0.4667440000000 1.0
C      1  0.4627950000000  0.5214840000000  0.5305120000000 1.0
C      1  0.4541650000000  0.4724590000000  0.5003070000000 1.0
C      1  0.5053850000000  0.4836360000000  0.5453820000000 1.0
END
