TITL C-101235-5677-8 -298.943859585075 125000 -768.835919066227 0 0 109 (C1) n - 1
REM
REM in /rds/project/t2_vol4/rds-t2-cs072/BORA/CARBON/from-Arr/AIRSS/Generating-Clusters/GAP-ML-2020/Only-C1/SD-CG/HFTN-CG
REM
REM
REM
REM
REM
REM ./C.cell (11c1c37f851c82e70ff6c80c92926a4b)
REM AIRSS Version 0.9.1 bugfix July 2018 build 013d7b7c2542+ Fri, 06 Jul 2018 19:26:36 +0100
REM compiler GCC version 9.3.0
REM options -cpp -mtune=generic -march=x86-64 -g -O0
REM seed 1986979068 -908590701 1923182910 -135885351 -913552013 -1952380074 -1047318257 536671573 636994519 -44975803 -1180885390 999186822 1639530340 634885327 -143281543 -1357876278 1832507396 101642006 -1997390480 -1877017979 -297887383 1596029006 -1477285356 -796540025 992080364 1275652290 -225712844 1057368649 310130601 -855199908 324759709 839378429 1672944028
REM
CELL 1.54180   50.00000   50.00000   50.00000   90.00000   90.00000   90.00000
LATT -1
SFAC C  
C      1  0.5268960000000  0.4537490000000  0.4268270000000 1.0
C      1  0.4584330000000  0.4790200000000  0.5788350000000 1.0
C      1  0.5114570000000  0.5476830000000  0.4785810000000 1.0
C      1  0.4968060000000  0.4676050000000  0.4549990000000 1.0
C      1  0.5796730000000  0.4687290000000  0.4763020000000 1.0
C      1  0.4621690000000  0.5371860000000  0.5804630000000 1.0
C      1  0.4185690000000  0.5380410000000  0.4917280000000 1.0
C      1  0.4900430000000  0.4922120000000  0.4042670000000 1.0
C      1  0.4741260000000  0.4774980000000  0.4720150000000 1.0
C      1  0.4526690000000  0.5614900000000  0.4378280000000 1.0
C      1  0.5030320000000  0.4288260000000  0.5560850000000 1.0
C      1  0.4977870000000  0.5083450000000  0.5958600000000 1.0
C      1  0.4545920000000  0.4923600000000  0.4578320000000 1.0
C      1  0.4198080000000  0.4975510000000  0.5191870000000 1.0
C      1  0.5118410000000  0.4999090000000  0.4832590000000 1.0
C      1  0.5665060000000  0.4509580000000  0.4584500000000 1.0
C      1  0.5432120000000  0.5173360000000  0.5759990000000 1.0
C      1  0.4360150000000  0.4573850000000  0.5431630000000 1.0
C      1  0.4724110000000  0.5184200000000  0.4556760000000 1.0
C      1  0.4602550000000  0.5240450000000  0.4274950000000 1.0
C      1  0.5326460000000  0.4969530000000  0.5275660000000 1.0
C      1  0.4951510000000  0.5628510000000  0.4284430000000 1.0
C      1  0.5299070000000  0.4221860000000  0.4641690000000 1.0
C      1  0.5083250000000  0.5525550000000  0.5774490000000 1.0
C      1  0.5204920000000  0.5044310000000  0.4368280000000 1.0
C      1  0.5212540000000  0.5526280000000  0.4270510000000 1.0
C      1  0.4750000000000  0.5804840000000  0.4992580000000 1.0
C      1  0.4899100000000  0.5273990000000  0.5226630000000 1.0
C      1  0.4631860000000  0.4979420000000  0.4127670000000 1.0
C      1  0.4424240000000  0.5263530000000  0.5649430000000 1.0
C      1  0.5627820000000  0.5313670000000  0.4374600000000 1.0
C      1  0.4478480000000  0.5647680000000  0.5351130000000 1.0
C      1  0.5215330000000  0.4753140000000  0.4714450000000 1.0
C      1  0.5129230000000  0.5798730000000  0.5347630000000 1.0
C      1  0.4754830000000  0.4469530000000  0.5230170000000 1.0
C      1  0.4711670000000  0.5498480000000  0.4178450000000 1.0
C      1  0.5165750000000  0.4317940000000  0.4411980000000 1.0
C      1  0.5453390000000  0.4356390000000  0.5308590000000 1.0
C      1  0.5519420000000  0.5657900000000  0.4976950000000 1.0
C      1  0.5343710000000  0.5432210000000  0.5697200000000 1.0
C      1  0.5056560000000  0.4142830000000  0.5086090000000 1.0
C      1  0.5149220000000  0.4412940000000  0.5774950000000 1.0
C      1  0.4224840000000  0.4841340000000  0.4937290000000 1.0
C      1  0.4790680000000  0.4204510000000  0.5099950000000 1.0
C      1  0.5050280000000  0.5135180000000  0.3954830000000 1.0
C      1  0.5510480000000  0.4440720000000  0.5034630000000 1.0
C      1  0.5078910000000  0.4855910000000  0.5353030000000 1.0
C      1  0.4990160000000  0.5712060000000  0.5589050000000 1.0
C      1  0.5852000000000  0.5055700000000  0.5037270000000 1.0
C      1  0.5376310000000  0.5603410000000  0.4725500000000 1.0
C      1  0.5083240000000  0.4290540000000  0.4832830000000 1.0
C      1  0.4333110000000  0.5403880000000  0.5407230000000 1.0
C      1  0.4967080000000  0.4686790000000  0.5134070000000 1.0
C      1  0.4324610000000  0.4575960000000  0.4933950000000 1.0
C      1  0.5474060000000  0.5504380000000  0.5454150000000 1.0
C      1  0.4403370000000  0.5545920000000  0.4884310000000 1.0
C      1  0.5672450000000  0.5070600000000  0.4533720000000 1.0
C      1  0.5435310000000  0.5531410000000  0.4459680000000 1.0
C      1  0.4732890000000  0.5169120000000  0.5023570000000 1.0
C      1  0.4850400000000  0.4899960000000  0.4950650000000 1.0
C      1  0.5202800000000  0.4559280000000  0.4945950000000 1.0
C      1  0.5820020000000  0.4971080000000  0.4757460000000 1.0
C      1  0.4916460000000  0.4379030000000  0.4572030000000 1.0
C      1  0.4532870000000  0.4222430000000  0.5000270000000 1.0
C      1  0.4366700000000  0.5372830000000  0.4416930000000 1.0
C      1  0.5033400000000  0.4631610000000  0.5928940000000 1.0
C      1  0.5261750000000  0.5028990000000  0.5930740000000 1.0
C      1  0.5558820000000  0.4540890000000  0.5513000000000 1.0
C      1  0.4724810000000  0.5757390000000  0.5462710000000 1.0
C      1  0.5324950000000  0.5612980000000  0.5217920000000 1.0
C      1  0.4440730000000  0.4468010000000  0.5176520000000 1.0
C      1  0.4217920000000  0.5256890000000  0.4653010000000 1.0
C      1  0.5807480000000  0.5320500000000  0.5150320000000 1.0
C      1  0.5298060000000  0.4751680000000  0.5922630000000 1.0
C      1  0.5559860000000  0.5053790000000  0.5513070000000 1.0
C      1  0.4832610000000  0.4834230000000  0.5929360000000 1.0
C      1  0.5696440000000  0.4794800000000  0.5455130000000 1.0
C      1  0.4880360000000  0.5344040000000  0.5885190000000 1.0
C      1  0.5156660000000  0.5382850000000  0.5075670000000 1.0
C      1  0.5067730000000  0.4780480000000  0.4271530000000 1.0
C      1  0.4944090000000  0.5086010000000  0.5419150000000 1.0
C      1  0.5661980000000  0.5302900000000  0.5393570000000 1.0
C      1  0.4491100000000  0.5720590000000  0.5077340000000 1.0
C      1  0.4569300000000  0.4544330000000  0.5635790000000 1.0
C      1  0.4876100000000  0.5868300000000  0.5230510000000 1.0
C      1  0.5288520000000  0.5120320000000  0.5039230000000 1.0
C      1  0.5546520000000  0.5268920000000  0.4110120000000 1.0
C      1  0.5440880000000  0.4897250000000  0.4487270000000 1.0
C      1  0.4509800000000  0.4790010000000  0.4295850000000 1.0
C      1  0.5040550000000  0.5184450000000  0.4604420000000 1.0
C      1  0.4502080000000  0.4522580000000  0.4322880000000 1.0
C      1  0.5536300000000  0.4318870000000  0.4750910000000 1.0
C      1  0.5769840000000  0.5578080000000  0.5038850000000 1.0
C      1  0.4772330000000  0.5714740000000  0.4497630000000 1.0
C      1  0.4608750000000  0.4361330000000  0.4519640000000 1.0
C      1  0.4767890000000  0.4384720000000  0.5513580000000 1.0
C      1  0.5750590000000  0.4608330000000  0.5026000000000 1.0
C      1  0.4401980000000  0.4976390000000  0.5656340000000 1.0
C      1  0.4204570000000  0.5261850000000  0.5183530000000 1.0
C      1  0.4455330000000  0.4365460000000  0.4765930000000 1.0
C      1  0.5510760000000  0.4635350000000  0.4378970000000 1.0
C      1  0.4668690000000  0.5366000000000  0.4802250000000 1.0
C      1  0.5248270000000  0.5252170000000  0.4129420000000 1.0
C      1  0.4844940000000  0.5626650000000  0.4767990000000 1.0
C      1  0.4276550000000  0.4845600000000  0.5432870000000 1.0
C      1  0.5819480000000  0.4819840000000  0.5201080000000 1.0
C      1  0.4290020000000  0.4991210000000  0.4705220000000 1.0
C      1  0.5194100000000  0.4228750000000  0.5327890000000 1.0
C      1  0.5406720000000  0.4545090000000  0.5749620000000 1.0
END
