TITL C-107221-8330-12 -0.127951357329224 125000 -536.276855276164 0 0 77 (C1) n - 1
REM
REM in /rds/project/t2_vol4/rds-t2-cs072/BORA/CARBON/from-Arr/AIRSS/Generating-Clusters/GAP-ML-2020/Only-C1/SD-CG/HFTN-CG
REM
REM
REM
REM
REM
REM ./C.cell (11c1c37f851c82e70ff6c80c92926a4b)
REM AIRSS Version 0.9.1 bugfix July 2018 build 013d7b7c2542+ Fri, 06 Jul 2018 19:26:36 +0100
REM compiler GCC version 9.3.0
REM options -cpp -mtune=generic -march=x86-64 -g -O0
REM seed 1461068928 2130347045 923993611 1159463799 1207018150 1173138748 2000461629 -687324819 -1043495352 1169922341 -769604656 -502895952 1733795544 -1429976525 940387652 -1336578214 1982025451 -563232895 768323015 -1732294140 1123407278 1286201053 -735137267 1194422680 890556739 -1170879327 -324861584 -7294280 1359180445 -321315771 190630064 1163976166 1002299638
REM
CELL 1.54180   50.00000   50.00000   50.00000   90.00000   90.00000   90.00000
LATT -1
SFAC C  
C      1  0.5392460000000  0.5196240000000  0.5733860000000 1.0
C      1  0.5567500000000  0.5406410000000  0.4737520000000 1.0
C      1  0.4827370000000  0.5104280000000  0.5620140000000 1.0
C      1  0.5368520000000  0.5537100000000  0.4924700000000 1.0
C      1  0.4766220000000  0.5346200000000  0.4276320000000 1.0
C      1  0.5155280000000  0.5302560000000  0.4526980000000 1.0
C      1  0.4545140000000  0.4406260000000  0.5139710000000 1.0
C      1  0.5428840000000  0.4980860000000  0.5109000000000 1.0
C      1  0.4974120000000  0.5575180000000  0.5282780000000 1.0
C      1  0.5299540000000  0.4697450000000  0.4251850000000 1.0
C      1  0.4472730000000  0.5116330000000  0.4646020000000 1.0
C      1  0.5183800000000  0.4378990000000  0.4785770000000 1.0
C      1  0.5572230000000  0.4752890000000  0.4694980000000 1.0
C      1  0.4353530000000  0.5159730000000  0.5394890000000 1.0
C      1  0.4745820000000  0.4905630000000  0.5098500000000 1.0
C      1  0.4968420000000  0.4626600000000  0.5679990000000 1.0
C      1  0.4535540000000  0.4707630000000  0.5545370000000 1.0
C      1  0.4936210000000  0.5379230000000  0.5703160000000 1.0
C      1  0.5529490000000  0.4905360000000  0.5381430000000 1.0
C      1  0.4744930000000  0.4324170000000  0.4948940000000 1.0
C      1  0.4828760000000  0.5616790000000  0.4414480000000 1.0
C      1  0.4209010000000  0.4770960000000  0.5186080000000 1.0
C      1  0.5502340000000  0.5096430000000  0.4321980000000 1.0
C      1  0.4660870000000  0.4872830000000  0.4563320000000 1.0
C      1  0.5457520000000  0.4499610000000  0.4822310000000 1.0
C      1  0.4905320000000  0.4420680000000  0.5486090000000 1.0
C      1  0.4632100000000  0.4468020000000  0.5404230000000 1.0
C      1  0.4625550000000  0.5254490000000  0.5436290000000 1.0
C      1  0.5104360000000  0.4337420000000  0.5292730000000 1.0
C      1  0.5269640000000  0.4844580000000  0.4013670000000 1.0
C      1  0.4322130000000  0.4653960000000  0.4762150000000 1.0
C      1  0.5720630000000  0.5237770000000  0.4909040000000 1.0
C      1  0.5218440000000  0.5421330000000  0.5654460000000 1.0
C      1  0.4329510000000  0.4868360000000  0.5426700000000 1.0
C      1  0.4643870000000  0.5566150000000  0.4862210000000 1.0
C      1  0.5237610000000  0.4721110000000  0.5714120000000 1.0
C      1  0.5000010000000  0.5152450000000  0.4297900000000 1.0
C      1  0.4732540000000  0.4404420000000  0.4670510000000 1.0
C      1  0.4605100000000  0.5591710000000  0.4581130000000 1.0
C      1  0.5118620000000  0.5664360000000  0.4826080000000 1.0
C      1  0.5372500000000  0.4446090000000  0.5321360000000 1.0
C      1  0.5522150000000  0.4815630000000  0.4414990000000 1.0
C      1  0.5255150000000  0.5082370000000  0.4129840000000 1.0
C      1  0.5454430000000  0.5306270000000  0.4500180000000 1.0
C      1  0.5064840000000  0.5584520000000  0.4559090000000 1.0
C      1  0.4249250000000  0.4936000000000  0.4747810000000 1.0
C      1  0.5255390000000  0.5559850000000  0.5398940000000 1.0
C      1  0.4989910000000  0.4842360000000  0.5251460000000 1.0
C      1  0.4519050000000  0.5305900000000  0.4936250000000 1.0
C      1  0.4279360000000  0.5223640000000  0.5118590000000 1.0
C      1  0.4997800000000  0.4443130000000  0.4574050000000 1.0
C      1  0.5787020000000  0.5289720000000  0.5414040000000 1.0
C      1  0.5045750000000  0.5072040000000  0.5414960000000 1.0
C      1  0.5042660000000  0.4645060000000  0.4373670000000 1.0
C      1  0.5023010000000  0.4308540000000  0.5018760000000 1.0
C      1  0.5245770000000  0.5243720000000  0.5023820000000 1.0
C      1  0.5702780000000  0.5373070000000  0.5174210000000 1.0
C      1  0.4875270000000  0.4880510000000  0.4363910000000 1.0
C      1  0.4806140000000  0.4840310000000  0.4831240000000 1.0
C      1  0.4322510000000  0.4558270000000  0.5034090000000 1.0
C      1  0.5466060000000  0.5547050000000  0.5194100000000 1.0
C      1  0.5513940000000  0.4468560000000  0.5086130000000 1.0
C      1  0.5604550000000  0.5126420000000  0.5543200000000 1.0
C      1  0.5274150000000  0.4968220000000  0.5832260000000 1.0
C      1  0.4152290000000  0.4999140000000  0.5008120000000 1.0
C      1  0.4536540000000  0.4599290000000  0.4591940000000 1.0
C      1  0.4754200000000  0.4820310000000  0.5691450000000 1.0
C      1  0.4893700000000  0.5659640000000  0.4997360000000 1.0
C      1  0.4724520000000  0.5192880000000  0.5138110000000 1.0
C      1  0.4781510000000  0.5500240000000  0.5502300000000 1.0
C      1  0.5414380000000  0.4669520000000  0.5495770000000 1.0
C      1  0.5114930000000  0.5156870000000  0.4779220000000 1.0
C      1  0.5632960000000  0.4959180000000  0.4892910000000 1.0
C      1  0.5022380000000  0.5280710000000  0.5207410000000 1.0
C      1  0.5081170000000  0.4883990000000  0.4805590000000 1.0
C      1  0.5196630000000  0.4810140000000  0.5060910000000 1.0
C      1  0.4533720000000  0.5328310000000  0.4444560000000 1.0
END
