TITL C-101222-5704-8 -9.93584454836445 125000 -1093.51937753838 0 0 155 (C1) n - 1
REM
REM in /rds/project/t2_vol4/rds-t2-cs072/BORA/CARBON/from-Arr/AIRSS/Generating-Clusters/GAP-ML-2020/Only-C1/SD-CG/HFTN-CG
REM
REM
REM
REM
REM
REM ./C.cell (11c1c37f851c82e70ff6c80c92926a4b)
REM AIRSS Version 0.9.1 bugfix July 2018 build 013d7b7c2542+ Fri, 06 Jul 2018 19:26:36 +0100
REM compiler GCC version 9.3.0
REM options -cpp -mtune=generic -march=x86-64 -g -O0
REM seed 1022680407 1887465996 698247693 -346078609 -1188901267 1538321249 509608504 -687542428 -1213224128 -551082530 95306347 14425050 612068006 -543180686 -1201395883 1151083021 1012139353 1126737500 97429035 -242328804 718802877 991741204 770695019 -1163960892 76986371 344320803 -677406135 -1891511370 -814589282 -379123941 1556237225 -127238458 -1558644263
REM
CELL 1.54180   50.00000   50.00000   50.00000   90.00000   90.00000   90.00000
LATT -1
SFAC C  
C      1  0.5089720000000  0.5090380000000  0.4736200000000 1.0
C      1  0.4432790000000  0.4188000000000  0.5251190000000 1.0
C      1  0.5482730000000  0.5277730000000  0.5140830000000 1.0
C      1  0.5068330000000  0.5641090000000  0.4238260000000 1.0
C      1  0.6011710000000  0.5164190000000  0.4556690000000 1.0
C      1  0.4237310000000  0.4480450000000  0.4410600000000 1.0
C      1  0.4302410000000  0.4694880000000  0.5494970000000 1.0
C      1  0.4093640000000  0.5736440000000  0.5057140000000 1.0
C      1  0.4863680000000  0.5024460000000  0.5889630000000 1.0
C      1  0.3948390000000  0.5007880000000  0.5066080000000 1.0
C      1  0.4161830000000  0.5442470000000  0.5060850000000 1.0
C      1  0.5158180000000  0.6031530000000  0.4949940000000 1.0
C      1  0.4089800000000  0.5071000000000  0.5301870000000 1.0
C      1  0.4892480000000  0.5425370000000  0.4157540000000 1.0
C      1  0.4130710000000  0.5173400000000  0.4607130000000 1.0
C      1  0.4873520000000  0.6031480000000  0.4869310000000 1.0
C      1  0.4889820000000  0.5281360000000  0.4645480000000 1.0
C      1  0.5391960000000  0.5748220000000  0.4582520000000 1.0
C      1  0.4594530000000  0.4250340000000  0.5466650000000 1.0
C      1  0.4846580000000  0.4073870000000  0.4989940000000 1.0
C      1  0.5827830000000  0.4660260000000  0.4354800000000 1.0
C      1  0.5914950000000  0.4441450000000  0.4771180000000 1.0
C      1  0.4838480000000  0.4577270000000  0.5151770000000 1.0
C      1  0.5325600000000  0.4117450000000  0.5234260000000 1.0
C      1  0.4665240000000  0.5223830000000  0.5732070000000 1.0
C      1  0.4385880000000  0.6018650000000  0.5015080000000 1.0
C      1  0.5784040000000  0.5626790000000  0.5122550000000 1.0
C      1  0.4246460000000  0.5905140000000  0.5251630000000 1.0
C      1  0.5421730000000  0.4808340000000  0.5226070000000 1.0
C      1  0.4576980000000  0.4164390000000  0.5009420000000 1.0
C      1  0.4820880000000  0.4919750000000  0.4088630000000 1.0
C      1  0.4419180000000  0.4813520000000  0.5972620000000 1.0
C      1  0.4685640000000  0.4977300000000  0.5349670000000 1.0
C      1  0.4636550000000  0.5526740000000  0.5797210000000 1.0
C      1  0.5114380000000  0.5114790000000  0.5519310000000 1.0
C      1  0.4378960000000  0.5300610000000  0.4528790000000 1.0
C      1  0.4367310000000  0.5153500000000  0.5724250000000 1.0
C      1  0.4821800000000  0.5220030000000  0.5470340000000 1.0
C      1  0.4197160000000  0.5898620000000  0.4845070000000 1.0
C      1  0.4371600000000  0.4912780000000  0.5298720000000 1.0
C      1  0.5029640000000  0.4159230000000  0.5230530000000 1.0
C      1  0.5289830000000  0.5123570000000  0.4142820000000 1.0
C      1  0.5061830000000  0.5140950000000  0.5044430000000 1.0
C      1  0.4005450000000  0.4576330000000  0.4830840000000 1.0
C      1  0.4862720000000  0.5509970000000  0.5323690000000 1.0
C      1  0.5126160000000  0.4596380000000  0.4645970000000 1.0
C      1  0.5353780000000  0.4866770000000  0.5854750000000 1.0
C      1  0.5312960000000  0.5959000000000  0.5177420000000 1.0
C      1  0.4689560000000  0.4778560000000  0.5972940000000 1.0
C      1  0.4652000000000  0.4264840000000  0.4376120000000 1.0
C      1  0.4898870000000  0.5507000000000  0.4816050000000 1.0
C      1  0.4874020000000  0.5526660000000  0.5982240000000 1.0
C      1  0.4942280000000  0.4811570000000  0.4685970000000 1.0
C      1  0.4707820000000  0.4534110000000  0.5818960000000 1.0
C      1  0.4555860000000  0.5155290000000  0.4942900000000 1.0
C      1  0.4075990000000  0.4662830000000  0.4563260000000 1.0
C      1  0.4892290000000  0.4141690000000  0.4463860000000 1.0
C      1  0.4094150000000  0.4576840000000  0.5305640000000 1.0
C      1  0.5975630000000  0.5454290000000  0.4644900000000 1.0
C      1  0.5698500000000  0.5126880000000  0.5693290000000 1.0
C      1  0.4562100000000  0.4995620000000  0.4145300000000 1.0
C      1  0.5778460000000  0.5369650000000  0.5265970000000 1.0
C      1  0.5036790000000  0.4640830000000  0.5563220000000 1.0
C      1  0.5835140000000  0.5605780000000  0.4846980000000 1.0
C      1  0.4475760000000  0.5446710000000  0.5016650000000 1.0
C      1  0.4328090000000  0.4883000000000  0.4227740000000 1.0
C      1  0.4248760000000  0.5376040000000  0.5595550000000 1.0
C      1  0.5248480000000  0.4527200000000  0.4896280000000 1.0
C      1  0.5233100000000  0.5290740000000  0.5735720000000 1.0
C      1  0.5836830000000  0.5554580000000  0.4423680000000 1.0
C      1  0.5282860000000  0.5067460000000  0.5247830000000 1.0
C      1  0.4406690000000  0.5608510000000  0.5650510000000 1.0
C      1  0.5464220000000  0.4884850000000  0.4685590000000 1.0
C      1  0.5382470000000  0.4617380000000  0.4202230000000 1.0
C      1  0.5096050000000  0.4454980000000  0.5138320000000 1.0
C      1  0.5730700000000  0.4449070000000  0.5288870000000 1.0
C      1  0.5219080000000  0.5954340000000  0.4672210000000 1.0
C      1  0.5003110000000  0.5151680000000  0.4094990000000 1.0
C      1  0.5960470000000  0.4900100000000  0.5232480000000 1.0
C      1  0.5306510000000  0.5587370000000  0.4367590000000 1.0
C      1  0.5344130000000  0.4122950000000  0.4470620000000 1.0
C      1  0.4646880000000  0.4484860000000  0.4188210000000 1.0
C      1  0.4786520000000  0.5025180000000  0.5078800000000 1.0
C      1  0.5860160000000  0.5130430000000  0.4316870000000 1.0
C      1  0.4435450000000  0.5776470000000  0.5417260000000 1.0
C      1  0.4286710000000  0.4878020000000  0.5745300000000 1.0
C      1  0.5123570000000  0.4222190000000  0.4315220000000 1.0
C      1  0.4882000000000  0.4621840000000  0.4108030000000 1.0
C      1  0.5423670000000  0.4037660000000  0.4978680000000 1.0
C      1  0.4781590000000  0.4690760000000  0.5412840000000 1.0
C      1  0.5319230000000  0.5503880000000  0.5217050000000 1.0
C      1  0.5406220000000  0.5311630000000  0.4343600000000 1.0
C      1  0.4642220000000  0.5879070000000  0.4974750000000 1.0
C      1  0.5601040000000  0.4231210000000  0.4437220000000 1.0
C      1  0.5736110000000  0.5377740000000  0.5555160000000 1.0
C      1  0.4386420000000  0.4606850000000  0.4205980000000 1.0
C      1  0.4964630000000  0.4381810000000  0.5708920000000 1.0
C      1  0.4946620000000  0.5969990000000  0.4580710000000 1.0
C      1  0.5505970000000  0.5325920000000  0.4849700000000 1.0
C      1  0.5741800000000  0.4898950000000  0.4223580000000 1.0
C      1  0.5741520000000  0.4746600000000  0.5347390000000 1.0
C      1  0.5086810000000  0.4881290000000  0.5723920000000 1.0
C      1  0.5484470000000  0.5862550000000  0.5606250000000 1.0
C      1  0.4137930000000  0.4927520000000  0.4457830000000 1.0
C      1  0.5459710000000  0.5126200000000  0.5836020000000 1.0
C      1  0.5761840000000  0.4224450000000  0.4663680000000 1.0
C      1  0.4415540000000  0.4299110000000  0.4533330000000 1.0
C      1  0.4658310000000  0.4849890000000  0.4599670000000 1.0
C      1  0.4559000000000  0.4527770000000  0.5561990000000 1.0
C      1  0.5981960000000  0.5169710000000  0.5192380000000 1.0
C      1  0.4186400000000  0.4332020000000  0.5201350000000 1.0
C      1  0.5011480000000  0.5278170000000  0.5946920000000 1.0
C      1  0.4876080000000  0.5701510000000  0.5770690000000 1.0
C      1  0.4790490000000  0.4757460000000  0.4948340000000 1.0
C      1  0.5626240000000  0.4470780000000  0.4292430000000 1.0
C      1  0.5467900000000  0.4891650000000  0.4126240000000 1.0
C      1  0.5034670000000  0.5442630000000  0.5082660000000 1.0
C      1  0.5722540000000  0.4836160000000  0.5623400000000 1.0
C      1  0.4866000000000  0.4202690000000  0.5482090000000 1.0
C      1  0.4679660000000  0.5593640000000  0.4302260000000 1.0
C      1  0.5966680000000  0.4673290000000  0.4608790000000 1.0
C      1  0.5535540000000  0.5625470000000  0.4808470000000 1.0
C      1  0.5473700000000  0.4346380000000  0.5396860000000 1.0
C      1  0.5257700000000  0.4024910000000  0.4732040000000 1.0
C      1  0.4614450000000  0.5648920000000  0.5225620000000 1.0
C      1  0.4497160000000  0.5557280000000  0.4516320000000 1.0
C      1  0.4435950000000  0.4356710000000  0.4820420000000 1.0
C      1  0.4523630000000  0.4701530000000  0.4832840000000 1.0
C      1  0.5040080000000  0.5696520000000  0.5531760000000 1.0
C      1  0.5259060000000  0.4582370000000  0.5353880000000 1.0
C      1  0.5566420000000  0.5609790000000  0.5621160000000 1.0
C      1  0.4616710000000  0.5144210000000  0.4644320000000 1.0
C      1  0.5453140000000  0.4401760000000  0.5701510000000 1.0
C      1  0.4974360000000  0.4042430000000  0.4734920000000 1.0
C      1  0.4387730000000  0.4905970000000  0.4997550000000 1.0
C      1  0.5833130000000  0.4340290000000  0.5049280000000 1.0
C      1  0.4118700000000  0.5336780000000  0.5345580000000 1.0
C      1  0.5379020000000  0.5156040000000  0.4653690000000 1.0
C      1  0.5695730000000  0.5358030000000  0.4297170000000 1.0
C      1  0.5219950000000  0.4311180000000  0.5823830000000 1.0
C      1  0.5426890000000  0.4741580000000  0.4938170000000 1.0
C      1  0.6058670000000  0.4996540000000  0.4989580000000 1.0
C      1  0.5349390000000  0.4693260000000  0.4496350000000 1.0
C      1  0.3961620000000  0.4721810000000  0.5072100000000 1.0
C      1  0.4612630000000  0.5615750000000  0.4803430000000 1.0
C      1  0.5289160000000  0.5520370000000  0.5545900000000 1.0
C      1  0.5683290000000  0.4125770000000  0.4922400000000 1.0
C      1  0.4159950000000  0.4357560000000  0.4922730000000 1.0
C      1  0.5491890000000  0.5723790000000  0.5100170000000 1.0
C      1  0.4868890000000  0.5809830000000  0.4363090000000 1.0
C      1  0.4024210000000  0.5217750000000  0.4881820000000 1.0
C      1  0.5538780000000  0.4669840000000  0.5769980000000 1.0
C      1  0.5128040000000  0.4473230000000  0.4151780000000 1.0
C      1  0.6047270000000  0.4932510000000  0.4711940000000 1.0
C      1  0.5245220000000  0.5926950000000  0.5456700000000 1.0
END
