TITL C-107222-8595-7 -0.0359937752466595 125000 -238.16733425296 0 0 35 (C1) n - 1
REM
REM in /rds/project/t2_vol4/rds-t2-cs072/BORA/CARBON/from-Arr/AIRSS/Generating-Clusters/GAP-ML-2020/Only-C1/SD-CG/HFTN-CG
REM
REM
REM
REM
REM
REM ./C.cell (11c1c37f851c82e70ff6c80c92926a4b)
REM AIRSS Version 0.9.1 bugfix July 2018 build 013d7b7c2542+ Fri, 06 Jul 2018 19:26:36 +0100
REM compiler GCC version 9.3.0
REM options -cpp -mtune=generic -march=x86-64 -g -O0
REM seed -95364920 729295986 -362861568 1065329529 -476394916 -742332841 1099299087 1952681864 322494746 -1505453077 697147474 428950211 -1583648431 592396904 221075918 240313718 994088404 946683319 800039131 102687850 2099145501 -1722920566 1736287105 -1804579266 -1891531914 -1177479723 1855385928 -62338659 981309884 -141680331 1693122179 1700551761 -1609571181
REM
CELL 1.54180   50.00000   50.00000   50.00000   90.00000   90.00000   90.00000
LATT -1
SFAC C  
C      1  0.5094580000000  0.4769800000000  0.4508150000000 1.0
C      1  0.5331610000000  0.4811230000000  0.5311540000000 1.0
C      1  0.5314170000000  0.4892620000000  0.4355910000000 1.0
C      1  0.4732550000000  0.4485970000000  0.4561040000000 1.0
C      1  0.4744150000000  0.5595410000000  0.4932300000000 1.0
C      1  0.4471280000000  0.4935690000000  0.5126350000000 1.0
C      1  0.5283170000000  0.5308150000000  0.5320940000000 1.0
C      1  0.4756560000000  0.4527720000000  0.4986840000000 1.0
C      1  0.5170440000000  0.5246440000000  0.4635740000000 1.0
C      1  0.4889450000000  0.4598410000000  0.4392970000000 1.0
C      1  0.4655740000000  0.4714530000000  0.5186470000000 1.0
C      1  0.5055740000000  0.5491230000000  0.5304050000000 1.0
C      1  0.4863520000000  0.5477450000000  0.5496580000000 1.0
C      1  0.5415450000000  0.5314970000000  0.5063150000000 1.0
C      1  0.5007150000000  0.5543210000000  0.5022680000000 1.0
C      1  0.4959160000000  0.5056250000000  0.4612750000000 1.0
C      1  0.4547100000000  0.5127760000000  0.4900440000000 1.0
C      1  0.4482100000000  0.5166910000000  0.5578120000000 1.0
C      1  0.4400670000000  0.5060030000000  0.5364600000000 1.0
C      1  0.4945820000000  0.5005100000000  0.5505650000000 1.0
C      1  0.5217120000000  0.4622880000000  0.4772250000000 1.0
C      1  0.4618230000000  0.4397940000000  0.4779820000000 1.0
C      1  0.5225370000000  0.5058160000000  0.5436980000000 1.0
C      1  0.5048730000000  0.4549900000000  0.4989820000000 1.0
C      1  0.4767370000000  0.5224830000000  0.5556400000000 1.0
C      1  0.4709890000000  0.5057230000000  0.4696790000000 1.0
C      1  0.5472370000000  0.4723100000000  0.4842990000000 1.0
C      1  0.5405080000000  0.5096520000000  0.4521860000000 1.0
C      1  0.4569100000000  0.5415210000000  0.4928220000000 1.0
C      1  0.5563560000000  0.4979190000000  0.4719750000000 1.0
C      1  0.5575320000000  0.5095500000000  0.4987790000000 1.0
C      1  0.5111630000000  0.4642100000000  0.5255980000000 1.0
C      1  0.5513630000000  0.4839260000000  0.5105450000000 1.0
C      1  0.5210130000000  0.5407460000000  0.4870370000000 1.0
C      1  0.4872100000000  0.4761830000000  0.5369240000000 1.0
END
