TITL C-105650-7272-3 77.0613588423267 125000 -491.710867810803 0 0 71 (C1) n - 1
REM
REM in /rds/project/t2_vol4/rds-t2-cs072/BORA/CARBON/from-Arr/AIRSS/Generating-Clusters/GAP-ML-2020/Only-C1/SD-CG/HFTN-CG
REM
REM
REM
REM
REM
REM ./C.cell (11c1c37f851c82e70ff6c80c92926a4b)
REM AIRSS Version 0.9.1 bugfix July 2018 build 013d7b7c2542+ Fri, 06 Jul 2018 19:26:36 +0100
REM compiler GCC version 9.3.0
REM options -cpp -mtune=generic -march=x86-64 -g -O0
REM seed 1429239647 -1684166436 -1722687169 -1392933486 -989434745 -1786842123 1679255859 -45242843 291950008 -2046559454 2074754023 -1600587541 69919085 702079139 1638838199 -155773976 230959132 -176512368 -1916618598 276550479 -496284312 862333660 848949042 -1535647541 402132078 219351333 -1075014076 -1532135315 1842325912 -242410205 -1179912192 104253964 -1623802811
REM
CELL 1.54180   50.00000   50.00000   50.00000   90.00000   90.00000   90.00000
LATT -1
SFAC C  
C      1  0.4656560000000  0.4810650000000  0.4390960000000 1.0
C      1  0.5211450000000  0.4691780000000  0.4332040000000 1.0
C      1  0.4537300000000  0.5453090000000  0.4594650000000 1.0
C      1  0.5130360000000  0.5330410000000  0.4951760000000 1.0
C      1  0.5482710000000  0.5142880000000  0.4437510000000 1.0
C      1  0.4293850000000  0.5354680000000  0.5006550000000 1.0
C      1  0.5732390000000  0.4835660000000  0.4864710000000 1.0
C      1  0.4318230000000  0.4983170000000  0.5297190000000 1.0
C      1  0.4708910000000  0.4434130000000  0.4691470000000 1.0
C      1  0.4978500000000  0.4885190000000  0.5249030000000 1.0
C      1  0.4795970000000  0.4853560000000  0.4840700000000 1.0
C      1  0.5292360000000  0.5352190000000  0.5615830000000 1.0
C      1  0.4798130000000  0.4463260000000  0.5408290000000 1.0
C      1  0.4522320000000  0.5435180000000  0.5427880000000 1.0
C      1  0.5414410000000  0.4459760000000  0.4708120000000 1.0
C      1  0.4733060000000  0.4879490000000  0.5625460000000 1.0
C      1  0.4349240000000  0.5270660000000  0.5277720000000 1.0
C      1  0.4533490000000  0.4559660000000  0.5356950000000 1.0
C      1  0.4816760000000  0.5268040000000  0.4277420000000 1.0
C      1  0.5243730000000  0.4703920000000  0.5608020000000 1.0
C      1  0.4607370000000  0.5079850000000  0.4321800000000 1.0
C      1  0.5309240000000  0.5377820000000  0.4422920000000 1.0
C      1  0.5250570000000  0.4894760000000  0.4827490000000 1.0
C      1  0.5044660000000  0.5413650000000  0.4312790000000 1.0
C      1  0.5455920000000  0.4604690000000  0.5439580000000 1.0
C      1  0.4946000000000  0.4686230000000  0.5532060000000 1.0
C      1  0.4687560000000  0.4344880000000  0.4969630000000 1.0
C      1  0.4164030000000  0.5141700000000  0.4584350000000 1.0
C      1  0.5675750000000  0.4775660000000  0.5346350000000 1.0
C      1  0.5760810000000  0.4701260000000  0.5095810000000 1.0
C      1  0.4920560000000  0.4440640000000  0.4499090000000 1.0
C      1  0.5310380000000  0.4953440000000  0.5708280000000 1.0
C      1  0.5436280000000  0.4857540000000  0.4422130000000 1.0
C      1  0.5630790000000  0.5257600000000  0.4670280000000 1.0
C      1  0.5756160000000  0.5119980000000  0.4885270000000 1.0
C      1  0.4920550000000  0.5583180000000  0.5468790000000 1.0
C      1  0.4399450000000  0.5229940000000  0.4472690000000 1.0
C      1  0.4708990000000  0.5559910000000  0.5021390000000 1.0
C      1  0.5169170000000  0.4273970000000  0.5143590000000 1.0
C      1  0.4692820000000  0.5632340000000  0.5288660000000 1.0
C      1  0.4748340000000  0.5387480000000  0.5605760000000 1.0
C      1  0.5741510000000  0.5240880000000  0.5155490000000 1.0
C      1  0.4466350000000  0.4488290000000  0.5086720000000 1.0
C      1  0.4572980000000  0.4697210000000  0.4676810000000 1.0
C      1  0.4188360000000  0.5128500000000  0.4862220000000 1.0
C      1  0.5510910000000  0.4738770000000  0.4689000000000 1.0
C      1  0.5115630000000  0.5158230000000  0.5746680000000 1.0
C      1  0.5300400000000  0.5111820000000  0.5012510000000 1.0
C      1  0.5302250000000  0.5565490000000  0.4922360000000 1.0
C      1  0.5206110000000  0.5568490000000  0.5445930000000 1.0
C      1  0.4234200000000  0.4894680000000  0.5029740000000 1.0
C      1  0.4947970000000  0.5247380000000  0.4733850000000 1.0
C      1  0.5386370000000  0.4344100000000  0.4968840000000 1.0
C      1  0.4476170000000  0.5524040000000  0.4864680000000 1.0
C      1  0.5449210000000  0.5484740000000  0.4682460000000 1.0
C      1  0.5007920000000  0.4957860000000  0.4697360000000 1.0
C      1  0.4357230000000  0.4673740000000  0.4904360000000 1.0
C      1  0.5608260000000  0.5479280000000  0.5160600000000 1.0
C      1  0.4883920000000  0.4302250000000  0.5180900000000 1.0
C      1  0.4492470000000  0.4818930000000  0.5467330000000 1.0
C      1  0.4822920000000  0.5426760000000  0.4537040000000 1.0
C      1  0.5210180000000  0.4450500000000  0.4503300000000 1.0
C      1  0.5395390000000  0.4405760000000  0.5243020000000 1.0
C      1  0.5497080000000  0.5142480000000  0.5581090000000 1.0
C      1  0.4851850000000  0.5288740000000  0.5008740000000 1.0
C      1  0.5223470000000  0.4881530000000  0.5136120000000 1.0
C      1  0.4905840000000  0.4676390000000  0.4320160000000 1.0
C      1  0.4837530000000  0.5137200000000  0.5710990000000 1.0
C      1  0.4794990000000  0.5004340000000  0.5081610000000 1.0
C      1  0.5684720000000  0.5062130000000  0.5387800000000 1.0
C      1  0.5382640000000  0.5615630000000  0.5201310000000 1.0
END
