TITL C-101227-5621-11 138.844159471101 125000 -775.326871399979 0 0 110 (C1) n - 1
REM
REM in /rds/project/t2_vol4/rds-t2-cs072/BORA/CARBON/from-Arr/AIRSS/Generating-Clusters/GAP-ML-2020/Only-C1/SD-CG/HFTN-CG
REM
REM
REM
REM
REM
REM ./C.cell (11c1c37f851c82e70ff6c80c92926a4b)
REM AIRSS Version 0.9.1 bugfix July 2018 build 013d7b7c2542+ Fri, 06 Jul 2018 19:26:36 +0100
REM compiler GCC version 9.3.0
REM options -cpp -mtune=generic -march=x86-64 -g -O0
REM seed 1639398681 543980376 994087480 1026823998 938944850 2006228002 -1373632568 752986526 173662422 831029920 283189372 -1160369976 -2024229723 866134144 -354449121 -1545946898 -1547067127 -390649175 -1114430812 1890732239 -917209121 -1509287240 -990752258 954355013 442834560 -49979970 -429626673 1664492265 1463195672 -107596540 1490755284 2032303027 2069386137
REM
CELL 1.54180   50.00000   50.00000   50.00000   90.00000   90.00000   90.00000
LATT -1
SFAC C  
C      1  0.4713220000000  0.4883410000000  0.4819140000000 1.0
C      1  0.4534980000000  0.4323430000000  0.5129680000000 1.0
C      1  0.5391250000000  0.5815660000000  0.5161870000000 1.0
C      1  0.4530380000000  0.5262430000000  0.3997620000000 1.0
C      1  0.4888930000000  0.4701990000000  0.4987790000000 1.0
C      1  0.5380950000000  0.5753990000000  0.4878600000000 1.0
C      1  0.5182810000000  0.4751300000000  0.5047070000000 1.0
C      1  0.4626840000000  0.5768930000000  0.4858760000000 1.0
C      1  0.5831600000000  0.5379850000000  0.4876780000000 1.0
C      1  0.5811630000000  0.4636080000000  0.4765420000000 1.0
C      1  0.5670940000000  0.4633390000000  0.4506710000000 1.0
C      1  0.4328750000000  0.5262320000000  0.4940070000000 1.0
C      1  0.4583960000000  0.4965810000000  0.5908150000000 1.0
C      1  0.4990560000000  0.5022630000000  0.4086550000000 1.0
C      1  0.5710530000000  0.4439040000000  0.4950380000000 1.0
C      1  0.5337970000000  0.4178510000000  0.5081820000000 1.0
C      1  0.5657820000000  0.4890470000000  0.4368290000000 1.0
C      1  0.5911530000000  0.5288020000000  0.5130610000000 1.0
C      1  0.5888540000000  0.5143180000000  0.4702890000000 1.0
C      1  0.4381570000000  0.4585200000000  0.5494890000000 1.0
C      1  0.4759980000000  0.5198150000000  0.5137780000000 1.0
C      1  0.5230110000000  0.4696530000000  0.4321810000000 1.0
C      1  0.5935220000000  0.5003010000000  0.5133930000000 1.0
C      1  0.4980370000000  0.4739040000000  0.4146680000000 1.0
C      1  0.5406850000000  0.4913180000000  0.4238140000000 1.0
C      1  0.5223410000000  0.5044990000000  0.5067770000000 1.0
C      1  0.5346720000000  0.5514880000000  0.4477470000000 1.0
C      1  0.4791520000000  0.5242700000000  0.4108230000000 1.0
C      1  0.4743480000000  0.4480000000000  0.5788490000000 1.0
C      1  0.5333950000000  0.4292880000000  0.4635840000000 1.0
C      1  0.5804630000000  0.4924660000000  0.5384540000000 1.0
C      1  0.4326980000000  0.5285790000000  0.5691230000000 1.0
C      1  0.4334640000000  0.5010960000000  0.5759320000000 1.0
C      1  0.5133070000000  0.5853690000000  0.5327240000000 1.0
C      1  0.5029420000000  0.5131470000000  0.5912380000000 1.0
C      1  0.4525400000000  0.4298630000000  0.4849930000000 1.0
C      1  0.4899440000000  0.4236350000000  0.5261750000000 1.0
C      1  0.4914240000000  0.5002660000000  0.4673980000000 1.0
C      1  0.4904230000000  0.5867990000000  0.4866600000000 1.0
C      1  0.5494720000000  0.5528420000000  0.5217130000000 1.0
C      1  0.5240190000000  0.5411480000000  0.5348030000000 1.0
C      1  0.5500820000000  0.4258580000000  0.4859100000000 1.0
C      1  0.4875390000000  0.5011390000000  0.5341850000000 1.0
C      1  0.4502750000000  0.4811670000000  0.4200800000000 1.0
C      1  0.5244330000000  0.5500940000000  0.5634480000000 1.0
C      1  0.5276790000000  0.5765470000000  0.4590890000000 1.0
C      1  0.4996440000000  0.5824160000000  0.4584090000000 1.0
C      1  0.5239570000000  0.5133070000000  0.4159650000000 1.0
C      1  0.5382640000000  0.5332730000000  0.4722010000000 1.0
C      1  0.5196210000000  0.5399400000000  0.4266290000000 1.0
C      1  0.4367320000000  0.5382680000000  0.4673610000000 1.0
C      1  0.4552460000000  0.4379790000000  0.5596840000000 1.0
C      1  0.5033550000000  0.5576280000000  0.5233500000000 1.0
C      1  0.5556170000000  0.5503660000000  0.4899650000000 1.0
C      1  0.4981670000000  0.5179860000000  0.4917840000000 1.0
C      1  0.5182310000000  0.5769840000000  0.5603460000000 1.0
C      1  0.5031190000000  0.4840980000000  0.5923260000000 1.0
C      1  0.5093510000000  0.5633690000000  0.4939250000000 1.0
C      1  0.5319820000000  0.4793900000000  0.4788890000000 1.0
C      1  0.4757450000000  0.4737400000000  0.5918670000000 1.0
C      1  0.4468390000000  0.5103210000000  0.4223830000000 1.0
C      1  0.4638930000000  0.4208160000000  0.5367080000000 1.0
C      1  0.4564600000000  0.5534140000000  0.5482960000000 1.0
C      1  0.4329320000000  0.4816740000000  0.5077400000000 1.0
C      1  0.4643370000000  0.4410610000000  0.4391940000000 1.0
C      1  0.5387060000000  0.5050530000000  0.5573360000000 1.0
C      1  0.5922160000000  0.4895570000000  0.4861700000000 1.0
C      1  0.5722010000000  0.5374760000000  0.5331190000000 1.0
C      1  0.4227770000000  0.4724330000000  0.4810080000000 1.0
C      1  0.4745970000000  0.5494790000000  0.5254350000000 1.0
C      1  0.4374490000000  0.4460950000000  0.4457950000000 1.0
C      1  0.5671530000000  0.4682040000000  0.5439220000000 1.0
C      1  0.5184900000000  0.5120990000000  0.5347210000000 1.0
C      1  0.5054650000000  0.4255930000000  0.4751320000000 1.0
C      1  0.5062560000000  0.4158480000000  0.5033760000000 1.0
C      1  0.4984680000000  0.4491610000000  0.5391370000000 1.0
C      1  0.4297780000000  0.5403990000000  0.5434660000000 1.0
C      1  0.4563850000000  0.5603680000000  0.4639230000000 1.0
C      1  0.5099260000000  0.4763850000000  0.4597020000000 1.0
C      1  0.4195650000000  0.4968890000000  0.5292480000000 1.0
C      1  0.4303400000000  0.4713170000000  0.4363440000000 1.0
C      1  0.5420140000000  0.5058640000000  0.4851460000000 1.0
C      1  0.4235230000000  0.4894230000000  0.4568140000000 1.0
C      1  0.5249900000000  0.4590140000000  0.5317030000000 1.0
C      1  0.5420190000000  0.4345550000000  0.5289210000000 1.0
C      1  0.4803650000000  0.5638420000000  0.4460560000000 1.0
C      1  0.4332170000000  0.5154540000000  0.4487870000000 1.0
C      1  0.5246290000000  0.5246810000000  0.5777950000000 1.0
C      1  0.4888840000000  0.5942150000000  0.5157910000000 1.0
C      1  0.5396710000000  0.4741890000000  0.5562310000000 1.0
C      1  0.5005320000000  0.4469360000000  0.5685180000000 1.0
C      1  0.4316030000000  0.4455070000000  0.4734480000000 1.0
C      1  0.4208000000000  0.5250200000000  0.5218220000000 1.0
C      1  0.5098770000000  0.5391650000000  0.4791030000000 1.0
C      1  0.4480670000000  0.4603900000000  0.5224470000000 1.0
C      1  0.5802460000000  0.5106810000000  0.4453480000000 1.0
C      1  0.5197700000000  0.4661330000000  0.5775270000000 1.0
C      1  0.4947830000000  0.4528400000000  0.4739180000000 1.0
C      1  0.4582110000000  0.5406580000000  0.5755200000000 1.0
C      1  0.4525840000000  0.5047480000000  0.4991120000000 1.0
C      1  0.4742260000000  0.5207900000000  0.5903770000000 1.0
C      1  0.4918440000000  0.5457260000000  0.4263100000000 1.0
C      1  0.4648460000000  0.5761690000000  0.5141430000000 1.0
C      1  0.4755270000000  0.4319530000000  0.4647470000000 1.0
C      1  0.5667900000000  0.4467630000000  0.5240370000000 1.0
C      1  0.4727440000000  0.4627220000000  0.4202820000000 1.0
C      1  0.4260830000000  0.4841900000000  0.5542780000000 1.0
C      1  0.5423510000000  0.4488760000000  0.4447840000000 1.0
C      1  0.4796760000000  0.4716940000000  0.5270200000000 1.0
C      1  0.5655280000000  0.5143000000000  0.5483090000000 1.0
END
