TITL C-102194-7134-9 42.9975271428117 125000 -439.548664050161 0 0 65 (C1) n - 1
REM
REM in /rds/project/t2_vol4/rds-t2-cs072/BORA/CARBON/from-Arr/AIRSS/Generating-Clusters/GAP-ML-2020/Only-C1/SD-CG/HFTN-CG
REM
REM
REM
REM
REM
REM ./C.cell (11c1c37f851c82e70ff6c80c92926a4b)
REM AIRSS Version 0.9.1 bugfix July 2018 build 013d7b7c2542+ Fri, 06 Jul 2018 19:26:36 +0100
REM compiler GCC version 9.3.0
REM options -cpp -mtune=generic -march=x86-64 -g -O0
REM seed -561926112 -1849499803 696461593 -1719412801 -632522725 -499866908 883218411 -1373830000 -1202539562 -162169058 -487429295 1041924702 -1005144199 304659461 -1886575928 1431320568 -1216991681 -1849245713 623729877 -224125923 -1059629501 1172846525 1933281546 -192619579 -684847896 -1461527684 1148776901 1433308921 -958024341 -1214059684 919771957 1167874314 -551310972
REM
CELL 1.54180   50.00000   50.00000   50.00000   90.00000   90.00000   90.00000
LATT -1
SFAC C  
C      1  0.5209370000000  0.4750610000000  0.4410440000000 1.0
C      1  0.4813280000000  0.4349230000000  0.5033700000000 1.0
C      1  0.5780210000000  0.5146560000000  0.5118670000000 1.0
C      1  0.5435630000000  0.4629170000000  0.4792490000000 1.0
C      1  0.5008860000000  0.4949670000000  0.4308400000000 1.0
C      1  0.5798510000000  0.4892020000000  0.4971550000000 1.0
C      1  0.4805760000000  0.4845400000000  0.5672040000000 1.0
C      1  0.5103840000000  0.4368620000000  0.5062790000000 1.0
C      1  0.5437740000000  0.4696330000000  0.5271700000000 1.0
C      1  0.4974690000000  0.4810760000000  0.4932530000000 1.0
C      1  0.4743740000000  0.4828510000000  0.4364280000000 1.0
C      1  0.4544260000000  0.5075740000000  0.5285410000000 1.0
C      1  0.5152640000000  0.4557250000000  0.4826400000000 1.0
C      1  0.4809230000000  0.4978640000000  0.5409070000000 1.0
C      1  0.5591510000000  0.4691300000000  0.5026350000000 1.0
C      1  0.4645570000000  0.5123650000000  0.4990230000000 1.0
C      1  0.5056290000000  0.5218530000000  0.4299790000000 1.0
C      1  0.4924280000000  0.5500830000000  0.5424890000000 1.0
C      1  0.4462530000000  0.5345800000000  0.5341570000000 1.0
C      1  0.5686110000000  0.5136580000000  0.5383360000000 1.0
C      1  0.5464100000000  0.4774100000000  0.4548450000000 1.0
C      1  0.4590890000000  0.4980980000000  0.4551550000000 1.0
C      1  0.5376900000000  0.5458880000000  0.4610520000000 1.0
C      1  0.5665650000000  0.4992810000000  0.4560470000000 1.0
C      1  0.5413320000000  0.5610200000000  0.5480790000000 1.0
C      1  0.5475480000000  0.4939550000000  0.5416150000000 1.0
C      1  0.4358320000000  0.5463730000000  0.5101200000000 1.0
C      1  0.5413670000000  0.5553960000000  0.4887180000000 1.0
C      1  0.4701570000000  0.4884940000000  0.4825660000000 1.0
C      1  0.5110830000000  0.5435780000000  0.4463280000000 1.0
C      1  0.4907250000000  0.5252160000000  0.5039940000000 1.0
C      1  0.4351240000000  0.5142370000000  0.4644370000000 1.0
C      1  0.5280690000000  0.5161760000000  0.5337200000000 1.0
C      1  0.4905250000000  0.5528980000000  0.4633210000000 1.0
C      1  0.4947500000000  0.5557730000000  0.4931810000000 1.0
C      1  0.4625200000000  0.5549590000000  0.4697680000000 1.0
C      1  0.5099930000000  0.5073420000000  0.4919580000000 1.0
C      1  0.4697850000000  0.4540850000000  0.5197320000000 1.0
C      1  0.4684050000000  0.4269560000000  0.4815880000000 1.0
C      1  0.5171790000000  0.5650020000000  0.5334700000000 1.0
C      1  0.4317620000000  0.4877770000000  0.4640110000000 1.0
C      1  0.4983390000000  0.4379420000000  0.5734180000000 1.0
C      1  0.5490140000000  0.5363000000000  0.5434360000000 1.0
C      1  0.4201960000000  0.4663830000000  0.5282550000000 1.0
C      1  0.5204610000000  0.4194520000000  0.5275950000000 1.0
C      1  0.4901600000000  0.4748370000000  0.5224760000000 1.0
C      1  0.4689680000000  0.5699520000000  0.4945190000000 1.0
C      1  0.5578770000000  0.5305210000000  0.4942310000000 1.0
C      1  0.4983330000000  0.5222050000000  0.5349000000000 1.0
C      1  0.4467430000000  0.4679390000000  0.4812610000000 1.0
C      1  0.4331380000000  0.4886950000000  0.5258540000000 1.0
C      1  0.4515810000000  0.5695730000000  0.5160780000000 1.0
C      1  0.4432340000000  0.4622710000000  0.5115570000000 1.0
C      1  0.5152360000000  0.4583050000000  0.5286830000000 1.0
C      1  0.4783860000000  0.4567170000000  0.4471090000000 1.0
C      1  0.5347420000000  0.5125580000000  0.5045340000000 1.0
C      1  0.4459930000000  0.5328540000000  0.4839070000000 1.0
C      1  0.5197940000000  0.5647200000000  0.5049410000000 1.0
C      1  0.4651660000000  0.5555790000000  0.5402040000000 1.0
C      1  0.5581000000000  0.5256810000000  0.4645460000000 1.0
C      1  0.4863620000000  0.4617770000000  0.5765100000000 1.0
C      1  0.5108130000000  0.4346400000000  0.5491760000000 1.0
C      1  0.5060290000000  0.4542590000000  0.4538530000000 1.0
C      1  0.4588590000000  0.4464490000000  0.4653510000000 1.0
C      1  0.5881570000000  0.4909610000000  0.4713340000000 1.0
END
