TITL C-101229-5672-7 -0.0021964930179326 125000 -29.7959809836703 0 0 5 (D(inf)h) n - 1
REM
REM in /rds/project/t2_vol4/rds-t2-cs072/BORA/CARBON/from-Arr/AIRSS/Generating-Clusters/GAP-ML-2020/Only-C1/SD-CG/HFTN-CG
REM
REM
REM
REM
REM
REM ./C.cell (11c1c37f851c82e70ff6c80c92926a4b)
REM AIRSS Version 0.9.1 bugfix July 2018 build 013d7b7c2542+ Fri, 06 Jul 2018 19:26:36 +0100
REM compiler GCC version 9.3.0
REM options -cpp -mtune=generic -march=x86-64 -g -O0
REM seed 1657737012 540581486 141392935 -1331678082 686367717 1486837973 1486288470 1773324745 -2112187302 -1984454632 1877282095 1667541685 2046011772 -1111814145 1350109827 -419840437 133341903 -2034598415 1548767577 -148548532 1358478626 1438716380 92654362 603127688 1800615620 204667362 404830015 758412135 2039044901 846429438 1851190742 402452495 273770354
REM
CELL 1.54180   50.00000   50.00000   50.00000   90.00000   90.00000   90.00000
LATT -1
SFAC C  
C      1  0.5199530000000  0.5301860000000  0.5369360000000 1.0
C      1  0.5000000000000  0.5000000000000  0.5000000000000 1.0
C      1  0.4900260000000  0.4849110000000  0.4815370000000 1.0
C      1  0.5099740000000  0.5150890000000  0.5184630000000 1.0
C      1  0.4800470000000  0.4698140000000  0.4630640000000 1.0
END
