TITL C-107222-8595-4 -168.957748486192 125000 -353.547594886591 0 0 53 (C1) n - 1
REM
REM in /rds/project/t2_vol4/rds-t2-cs072/BORA/CARBON/from-Arr/AIRSS/Generating-Clusters/GAP-ML-2020/Only-C1/SD-CG/HFTN-CG
REM
REM
REM
REM
REM
REM ./C.cell (11c1c37f851c82e70ff6c80c92926a4b)
REM AIRSS Version 0.9.1 bugfix July 2018 build 013d7b7c2542+ Fri, 06 Jul 2018 19:26:36 +0100
REM compiler GCC version 9.3.0
REM options -cpp -mtune=generic -march=x86-64 -g -O0
REM seed -65536151 1787060802 2021307670 1318024480 -701146885 497018358 -865333331 899987249 1151385699 -1067446964 -1115381363 1503167593 -1416360441 -1945861125 -166770875 -2122323476 716521721 859956901 258888084 -1765283542 -931913011 -1755372214 1147271698 -1814873833 -1354426939 1199001454 1472132012 1352208743 -1644968559 -1658013055 919662736 921896486 1624431123
REM
CELL 1.54180   50.00000   50.00000   50.00000   90.00000   90.00000   90.00000
LATT -1
SFAC C  
C      1  0.4792740000000  0.4902010000000  0.5690800000000 1.0
C      1  0.5176510000000  0.5732000000000  0.5006490000000 1.0
C      1  0.5013880000000  0.4488000000000  0.4909370000000 1.0
C      1  0.4728210000000  0.4509420000000  0.4929220000000 1.0
C      1  0.4999160000000  0.5336060000000  0.5280590000000 1.0
C      1  0.4827490000000  0.4943260000000  0.4848080000000 1.0
C      1  0.5206410000000  0.4989240000000  0.5049670000000 1.0
C      1  0.5095810000000  0.4999890000000  0.4756760000000 1.0
C      1  0.4861440000000  0.5586480000000  0.5303510000000 1.0
C      1  0.5392080000000  0.4971030000000  0.5670440000000 1.0
C      1  0.5217280000000  0.4570050000000  0.4715460000000 1.0
C      1  0.4546570000000  0.5283720000000  0.5154050000000 1.0
C      1  0.5249820000000  0.4716290000000  0.5623990000000 1.0
C      1  0.5467030000000  0.4615740000000  0.4837380000000 1.0
C      1  0.5257650000000  0.5275160000000  0.5145150000000 1.0
C      1  0.4568990000000  0.5501100000000  0.5346070000000 1.0
C      1  0.5175620000000  0.5367570000000  0.4436000000000 1.0
C      1  0.5286020000000  0.5173890000000  0.4273690000000 1.0
C      1  0.4686430000000  0.5121390000000  0.5580260000000 1.0
C      1  0.4941930000000  0.4819130000000  0.4370180000000 1.0
C      1  0.4476240000000  0.5236590000000  0.4662020000000 1.0
C      1  0.5723370000000  0.5234710000000  0.5105490000000 1.0
C      1  0.4403800000000  0.5174760000000  0.4935430000000 1.0
C      1  0.5426580000000  0.4766440000000  0.5112810000000 1.0
C      1  0.4654190000000  0.4482550000000  0.5207230000000 1.0
C      1  0.4886390000000  0.5341070000000  0.4446730000000 1.0
C      1  0.4553040000000  0.5360460000000  0.5592970000000 1.0
C      1  0.5097030000000  0.4451030000000  0.5183810000000 1.0
C      1  0.4278120000000  0.4736080000000  0.5170010000000 1.0
C      1  0.4668440000000  0.5429030000000  0.4594740000000 1.0
C      1  0.4988600000000  0.5793890000000  0.5177640000000 1.0
C      1  0.4798100000000  0.5074050000000  0.4373050000000 1.0
C      1  0.4919870000000  0.4924030000000  0.5118590000000 1.0
C      1  0.4384480000000  0.4523830000000  0.5271750000000 1.0
C      1  0.5521320000000  0.5165630000000  0.4661130000000 1.0
C      1  0.5648460000000  0.4794960000000  0.4921620000000 1.0
C      1  0.4537410000000  0.5030790000000  0.4473600000000 1.0
C      1  0.4950050000000  0.4697590000000  0.5592180000000 1.0
C      1  0.5186130000000  0.4808070000000  0.4534670000000 1.0
C      1  0.5350530000000  0.4538850000000  0.5279130000000 1.0
C      1  0.5527470000000  0.5267860000000  0.5300180000000 1.0
C      1  0.5354580000000  0.5398600000000  0.4667640000000 1.0
C      1  0.5395570000000  0.4495500000000  0.5546830000000 1.0
C      1  0.4527810000000  0.4751050000000  0.4523090000000 1.0
C      1  0.5680980000000  0.5079940000000  0.4878460000000 1.0
C      1  0.4887150000000  0.4504010000000  0.5371270000000 1.0
C      1  0.5288720000000  0.5496130000000  0.4923740000000 1.0
C      1  0.4572030000000  0.4730470000000  0.4800630000000 1.0
C      1  0.4377010000000  0.4885380000000  0.4962320000000 1.0
C      1  0.4751730000000  0.4626170000000  0.4409060000000 1.0
C      1  0.5405280000000  0.4990310000000  0.4444950000000 1.0
C      1  0.5495430000000  0.5174740000000  0.5564370000000 1.0
C      1  0.4793000000000  0.5134020000000  0.5265730000000 1.0
END
