TITL C-101243-5586-1 -0.0360217932494502 125000 -522.807223172707 0 0 76 (C1) n - 1
REM
REM in /rds/project/t2_vol4/rds-t2-cs072/BORA/CARBON/from-Arr/AIRSS/Generating-Clusters/GAP-ML-2020/Only-C1/SD-CG/HFTN-CG
REM
REM
REM
REM
REM
REM ./C.cell (11c1c37f851c82e70ff6c80c92926a4b)
REM AIRSS Version 0.9.1 bugfix July 2018 build 013d7b7c2542+ Fri, 06 Jul 2018 19:26:36 +0100
REM compiler GCC version 9.3.0
REM options -cpp -mtune=generic -march=x86-64 -g -O0
REM seed 2060676479 -1500853838 -2070526958 1041068550 -994969486 1322522465 -744337600 -772944739 1118909371 -887684308 802928926 887896795 915880396 -822313627 -431518373 2072056805 -692866374 -2144016129 1151948795 -1425036272 -719686171 -689776126 1575974841 -1730678809 -2074128185 833068277 -2026091866 -1334551489 357832650 1420698327 1120748483 238216349 124499050
REM
CELL 1.54180   50.00000   50.00000   50.00000   90.00000   90.00000   90.00000
LATT -1
SFAC C  
C      1  0.4525580000000  0.4442820000000  0.5100190000000 1.0
C      1  0.5774850000000  0.5115160000000  0.5054040000000 1.0
C      1  0.5145410000000  0.4655180000000  0.4359670000000 1.0
C      1  0.4575140000000  0.5666040000000  0.5116780000000 1.0
C      1  0.4556720000000  0.5544160000000  0.4631650000000 1.0
C      1  0.5229380000000  0.5194150000000  0.4881780000000 1.0
C      1  0.4797790000000  0.4447820000000  0.5224350000000 1.0
C      1  0.4444520000000  0.5570050000000  0.4886810000000 1.0
C      1  0.4925280000000  0.4525050000000  0.4497300000000 1.0
C      1  0.4494460000000  0.4640320000000  0.4656580000000 1.0
C      1  0.5381840000000  0.5183240000000  0.5682030000000 1.0
C      1  0.5479110000000  0.5472350000000  0.5321150000000 1.0
C      1  0.4756810000000  0.4905320000000  0.5058390000000 1.0
C      1  0.5501990000000  0.4780300000000  0.5263360000000 1.0
C      1  0.5055580000000  0.4910720000000  0.4256570000000 1.0
C      1  0.4472930000000  0.5290070000000  0.4516950000000 1.0
C      1  0.5057170000000  0.5525660000000  0.5525860000000 1.0
C      1  0.5126000000000  0.4739690000000  0.5742130000000 1.0
C      1  0.5586640000000  0.5061280000000  0.5524740000000 1.0
C      1  0.5396730000000  0.4518700000000  0.4859200000000 1.0
C      1  0.4893090000000  0.4633960000000  0.4983670000000 1.0
C      1  0.5366910000000  0.4597670000000  0.5656480000000 1.0
C      1  0.4251210000000  0.5333920000000  0.5225830000000 1.0
C      1  0.5680740000000  0.4841450000000  0.5051680000000 1.0
C      1  0.4949680000000  0.4209600000000  0.5196420000000 1.0
C      1  0.5046970000000  0.4215230000000  0.4929270000000 1.0
C      1  0.5318810000000  0.5427780000000  0.5555820000000 1.0
C      1  0.4249000000000  0.4862660000000  0.5312370000000 1.0
C      1  0.4585590000000  0.5463960000000  0.5560740000000 1.0
C      1  0.5836010000000  0.5199700000000  0.4797670000000 1.0
C      1  0.5156830000000  0.5026510000000  0.5743050000000 1.0
C      1  0.5413940000000  0.4771860000000  0.4388360000000 1.0
C      1  0.4442820000000  0.5533570000000  0.5341340000000 1.0
C      1  0.5624840000000  0.4818120000000  0.4573170000000 1.0
C      1  0.4905970000000  0.5092100000000  0.4624030000000 1.0
C      1  0.5561690000000  0.4778360000000  0.5535250000000 1.0
C      1  0.5141320000000  0.4963170000000  0.4752220000000 1.0
C      1  0.4986240000000  0.5003580000000  0.5258080000000 1.0
C      1  0.5251490000000  0.5646360000000  0.4851380000000 1.0
C      1  0.5348180000000  0.4342120000000  0.5518030000000 1.0
C      1  0.4710420000000  0.5357600000000  0.4086800000000 1.0
C      1  0.4367340000000  0.4843830000000  0.4805680000000 1.0
C      1  0.4910150000000  0.5060450000000  0.5574210000000 1.0
C      1  0.5163530000000  0.4166590000000  0.5398080000000 1.0
C      1  0.4165110000000  0.5105480000000  0.5363320000000 1.0
C      1  0.5067440000000  0.5686430000000  0.5287110000000 1.0
C      1  0.4721300000000  0.5101590000000  0.4849490000000 1.0
C      1  0.5167800000000  0.4724900000000  0.4927160000000 1.0
C      1  0.5448180000000  0.5242020000000  0.4475540000000 1.0
C      1  0.4970790000000  0.5725200000000  0.4843830000000 1.0
C      1  0.4831590000000  0.5603230000000  0.4629710000000 1.0
C      1  0.5118630000000  0.5214720000000  0.5131790000000 1.0
C      1  0.4868870000000  0.4381450000000  0.4755470000000 1.0
C      1  0.4458300000000  0.4818650000000  0.5090800000000 1.0
C      1  0.5317470000000  0.5038990000000  0.4312090000000 1.0
C      1  0.5406310000000  0.4213140000000  0.5264890000000 1.0
C      1  0.4851180000000  0.5742630000000  0.5104290000000 1.0
C      1  0.4779310000000  0.4951220000000  0.4370460000000 1.0
C      1  0.5215730000000  0.4821890000000  0.5191280000000 1.0
C      1  0.4842490000000  0.4762420000000  0.5646750000000 1.0
C      1  0.4695170000000  0.4595170000000  0.5470420000000 1.0
C      1  0.5329540000000  0.4277000000000  0.4974920000000 1.0
C      1  0.4438380000000  0.4627270000000  0.5318850000000 1.0
C      1  0.4391430000000  0.5130190000000  0.4754720000000 1.0
C      1  0.4922310000000  0.5393460000000  0.4231680000000 1.0
C      1  0.5266680000000  0.5413200000000  0.4656500000000 1.0
C      1  0.5314140000000  0.5636860000000  0.5140920000000 1.0
C      1  0.4691900000000  0.4686210000000  0.4453880000000 1.0
C      1  0.4581120000000  0.4421800000000  0.4818870000000 1.0
C      1  0.4828180000000  0.5357370000000  0.5602340000000 1.0
C      1  0.5656460000000  0.5242060000000  0.5299130000000 1.0
C      1  0.5626970000000  0.4683850000000  0.4819980000000 1.0
C      1  0.4610730000000  0.5183360000000  0.4289800000000 1.0
C      1  0.5679670000000  0.5112110000000  0.4588400000000 1.0
C      1  0.4997190000000  0.5392060000000  0.4512620000000 1.0
C      1  0.4292940000000  0.5335830000000  0.4943800000000 1.0
END
