TITL C-105670-7269-1 -0.00758760125467838 125000 -488.178945619312 0 0 73 (C1) n - 1
REM
REM in /rds/project/t2_vol4/rds-t2-cs072/BORA/CARBON/from-Arr/AIRSS/Generating-Clusters/GAP-ML-2020/Only-C1/SD-CG/HFTN-CG
REM
REM
REM
REM
REM
REM ./C.cell (11c1c37f851c82e70ff6c80c92926a4b)
REM AIRSS Version 0.9.1 bugfix July 2018 build 013d7b7c2542+ Fri, 06 Jul 2018 19:26:36 +0100
REM compiler GCC version 9.3.0
REM options -cpp -mtune=generic -march=x86-64 -g -O0
REM seed 1556418697 -811119879 -1115539341 1308209198 -1450509419 334291268 -714323383 -1090817152 -342314534 -1950504560 -62365973 -1813311599 -1712231834 2020077707 -1433894394 370325717 959807535 -421325238 420305838 -911950777 1669988932 1870241375 718010390 282144207 -643864473 18221068 -1315872338 -1568829658 -1335374765 82263534 831162492 997941746 444855763
REM
CELL 1.54180   50.00000   50.00000   50.00000   90.00000   90.00000   90.00000
LATT -1
SFAC C  
C      1  0.5475230000000  0.4558330000000  0.5274610000000 1.0
C      1  0.5257370000000  0.5287830000000  0.4357010000000 1.0
C      1  0.4514420000000  0.5413330000000  0.5593400000000 1.0
C      1  0.5346420000000  0.5251430000000  0.4649410000000 1.0
C      1  0.5478460000000  0.5664030000000  0.5080950000000 1.0
C      1  0.5400640000000  0.5315280000000  0.5386570000000 1.0
C      1  0.4292820000000  0.5485630000000  0.4915650000000 1.0
C      1  0.5569390000000  0.5411670000000  0.5174880000000 1.0
C      1  0.5205290000000  0.5492270000000  0.5491900000000 1.0
C      1  0.5708570000000  0.5221960000000  0.5004660000000 1.0
C      1  0.4758070000000  0.5261810000000  0.4941890000000 1.0
C      1  0.4559240000000  0.4903650000000  0.5571440000000 1.0
C      1  0.5183670000000  0.5418600000000  0.4825760000000 1.0
C      1  0.5113900000000  0.4611290000000  0.4345460000000 1.0
C      1  0.4895080000000  0.4969330000000  0.4522150000000 1.0
C      1  0.4381820000000  0.4563100000000  0.5173670000000 1.0
C      1  0.4989290000000  0.5418230000000  0.4384560000000 1.0
C      1  0.5210060000000  0.4451520000000  0.5250250000000 1.0
C      1  0.4371880000000  0.4658450000000  0.4897810000000 1.0
C      1  0.5754900000000  0.5025640000000  0.4554900000000 1.0
C      1  0.4978600000000  0.5511820000000  0.4651870000000 1.0
C      1  0.5801080000000  0.4965590000000  0.5111210000000 1.0
C      1  0.4494260000000  0.4478520000000  0.4708890000000 1.0
C      1  0.5365360000000  0.5050630000000  0.4257110000000 1.0
C      1  0.5778100000000  0.4734030000000  0.4934100000000 1.0
C      1  0.5008530000000  0.4711990000000  0.5636880000000 1.0
C      1  0.4578630000000  0.4345540000000  0.5147230000000 1.0
C      1  0.5184820000000  0.4939340000000  0.5636630000000 1.0
C      1  0.4941820000000  0.4330240000000  0.4849790000000 1.0
C      1  0.4732130000000  0.5026030000000  0.4258610000000 1.0
C      1  0.4722170000000  0.5318960000000  0.4309020000000 1.0
C      1  0.4986730000000  0.5106780000000  0.5765070000000 1.0
C      1  0.5555910000000  0.4817420000000  0.5394620000000 1.0
C      1  0.5189470000000  0.4985900000000  0.4631540000000 1.0
C      1  0.4772960000000  0.5561670000000  0.4853880000000 1.0
C      1  0.4959560000000  0.5710570000000  0.5075180000000 1.0
C      1  0.4783420000000  0.5494650000000  0.5519910000000 1.0
C      1  0.4550810000000  0.4817320000000  0.4299440000000 1.0
C      1  0.4663150000000  0.4301610000000  0.4879000000000 1.0
C      1  0.4769520000000  0.4756340000000  0.4955820000000 1.0
C      1  0.4963240000000  0.4618690000000  0.4790790000000 1.0
C      1  0.4478170000000  0.4636840000000  0.5438140000000 1.0
C      1  0.5004010000000  0.5368960000000  0.5669310000000 1.0
C      1  0.4315020000000  0.5335310000000  0.5412560000000 1.0
C      1  0.5189420000000  0.4821800000000  0.4867980000000 1.0
C      1  0.4552970000000  0.5329310000000  0.4537430000000 1.0
C      1  0.4891920000000  0.4661480000000  0.4511980000000 1.0
C      1  0.4694300000000  0.4440520000000  0.5392230000000 1.0
C      1  0.4491760000000  0.5540460000000  0.4738940000000 1.0
C      1  0.4976490000000  0.5661290000000  0.5349820000000 1.0
C      1  0.4523340000000  0.4910870000000  0.4874680000000 1.0
C      1  0.5017360000000  0.5239000000000  0.5076810000000 1.0
C      1  0.5131810000000  0.4967460000000  0.5124300000000 1.0
C      1  0.5431130000000  0.4441210000000  0.4818730000000 1.0
C      1  0.4606640000000  0.4603600000000  0.4469220000000 1.0
C      1  0.4673180000000  0.5100100000000  0.4691310000000 1.0
C      1  0.4965990000000  0.4565040000000  0.5388470000000 1.0
C      1  0.4689960000000  0.5021260000000  0.5327610000000 1.0
C      1  0.4526980000000  0.5117580000000  0.5090800000000 1.0
C      1  0.5819930000000  0.4899240000000  0.5381710000000 1.0
C      1  0.5497270000000  0.4610310000000  0.4583040000000 1.0
C      1  0.5314450000000  0.4792520000000  0.4405520000000 1.0
C      1  0.5717320000000  0.4775840000000  0.4662790000000 1.0
C      1  0.4801820000000  0.4882190000000  0.5735610000000 1.0
C      1  0.4880100000000  0.4823620000000  0.5211750000000 1.0
C      1  0.5330120000000  0.5018520000000  0.5396350000000 1.0
C      1  0.4411090000000  0.5155260000000  0.5602820000000 1.0
C      1  0.4858970000000  0.5253930000000  0.5345420000000 1.0
C      1  0.5612620000000  0.4521130000000  0.5024540000000 1.0
C      1  0.4303100000000  0.5316050000000  0.5131000000000 1.0
C      1  0.5627800000000  0.5205630000000  0.4724510000000 1.0
C      1  0.5229060000000  0.5669830000000  0.4978420000000 1.0
C      1  0.5189110000000  0.4346860000000  0.4972700000000 1.0
END
