TITL C-105740-8556-2 60.5927630635704 125000 -823.003550135829 0 0 117 (C1) n - 1
REM
REM in /rds/project/t2_vol4/rds-t2-cs072/BORA/CARBON/from-Arr/AIRSS/Generating-Clusters/GAP-ML-2020/Only-C1/SD-CG/HFTN-CG
REM
REM
REM
REM
REM
REM ./C.cell (11c1c37f851c82e70ff6c80c92926a4b)
REM AIRSS Version 0.9.1 bugfix July 2018 build 013d7b7c2542+ Fri, 06 Jul 2018 19:26:36 +0100
REM compiler GCC version 9.3.0
REM options -cpp -mtune=generic -march=x86-64 -g -O0
REM seed -2127339712 723172461 540018885 -1461173973 43771664 -443990446 2143086197 -1880642707 -1868650310 1776774468 391092133 999039078 155273980 -1602264229 590652029 1418403707 252299845 -233721582 -572478098 -306046165 577974907 2029391884 -1958884999 -1298553004 411398992 904490097 1069698147 1864116793 1766677261 -961238267 1114141604 -2017604366 -1667476995
REM
CELL 1.54180   50.00000   50.00000   50.00000   90.00000   90.00000   90.00000
LATT -1
SFAC C  
C      1  0.4401520000000  0.5212400000000  0.5660220000000 1.0
C      1  0.4926230000000  0.4675520000000  0.5613080000000 1.0
C      1  0.4724930000000  0.5282280000000  0.4922790000000 1.0
C      1  0.5311450000000  0.5616060000000  0.4478340000000 1.0
C      1  0.5816590000000  0.5140760000000  0.5483720000000 1.0
C      1  0.4685290000000  0.4677150000000  0.5796350000000 1.0
C      1  0.5787660000000  0.4427510000000  0.4752880000000 1.0
C      1  0.5634430000000  0.5685800000000  0.5046220000000 1.0
C      1  0.5693400000000  0.4573140000000  0.4522850000000 1.0
C      1  0.5050600000000  0.4744670000000  0.5136340000000 1.0
C      1  0.4169470000000  0.5203270000000  0.4729280000000 1.0
C      1  0.5698280000000  0.5511840000000  0.4820100000000 1.0
C      1  0.5500570000000  0.4779190000000  0.5341050000000 1.0
C      1  0.4511230000000  0.4585380000000  0.4515790000000 1.0
C      1  0.4410810000000  0.4361380000000  0.5053550000000 1.0
C      1  0.5170750000000  0.5170160000000  0.5383000000000 1.0
C      1  0.4194180000000  0.4574470000000  0.5042500000000 1.0
C      1  0.5341620000000  0.4361290000000  0.5729950000000 1.0
C      1  0.5402280000000  0.5075720000000  0.4975900000000 1.0
C      1  0.5233800000000  0.4832720000000  0.4288560000000 1.0
C      1  0.5061100000000  0.5589840000000  0.5680380000000 1.0
C      1  0.4101280000000  0.5021630000000  0.4940180000000 1.0
C      1  0.5472470000000  0.5002510000000  0.4425430000000 1.0
C      1  0.5225970000000  0.5871060000000  0.5275160000000 1.0
C      1  0.5110570000000  0.4227280000000  0.5032480000000 1.0
C      1  0.5279620000000  0.5264270000000  0.5144240000000 1.0
C      1  0.4408480000000  0.5584820000000  0.4564260000000 1.0
C      1  0.4745840000000  0.4534500000000  0.4725460000000 1.0
C      1  0.4156650000000  0.4710350000000  0.5284620000000 1.0
C      1  0.5396820000000  0.4182120000000  0.4616750000000 1.0
C      1  0.4649470000000  0.4925670000000  0.5930400000000 1.0
C      1  0.4956640000000  0.4895080000000  0.4896110000000 1.0
C      1  0.4263230000000  0.5259980000000  0.5413980000000 1.0
C      1  0.4634510000000  0.5664570000000  0.5391830000000 1.0
C      1  0.4839970000000  0.5764430000000  0.4507560000000 1.0
C      1  0.4633100000000  0.4741460000000  0.5218230000000 1.0
C      1  0.4152100000000  0.4755710000000  0.4831210000000 1.0
C      1  0.5416530000000  0.4444830000000  0.4465430000000 1.0
C      1  0.4927700000000  0.4459720000000  0.4330530000000 1.0
C      1  0.4288070000000  0.4771050000000  0.4581200000000 1.0
C      1  0.5772670000000  0.4720480000000  0.5250910000000 1.0
C      1  0.4684070000000  0.4999640000000  0.4896130000000 1.0
C      1  0.4197710000000  0.5014520000000  0.5222420000000 1.0
C      1  0.4504200000000  0.5144630000000  0.4343930000000 1.0
C      1  0.4595090000000  0.5778640000000  0.4665900000000 1.0
C      1  0.5058150000000  0.5064690000000  0.3851720000000 1.0
C      1  0.4724440000000  0.5834380000000  0.5171260000000 1.0
C      1  0.4397440000000  0.4955810000000  0.5787170000000 1.0
C      1  0.5487020000000  0.5459600000000  0.4642270000000 1.0
C      1  0.5338300000000  0.4803990000000  0.5096180000000 1.0
C      1  0.4972190000000  0.5414110000000  0.4171630000000 1.0
C      1  0.5907800000000  0.4960940000000  0.5267420000000 1.0
C      1  0.5400840000000  0.5203100000000  0.4203470000000 1.0
C      1  0.4873620000000  0.4285590000000  0.4585080000000 1.0
C      1  0.5222970000000  0.4266270000000  0.5484080000000 1.0
C      1  0.5578990000000  0.4248000000000  0.5080920000000 1.0
C      1  0.5167370000000  0.5891140000000  0.4862670000000 1.0
C      1  0.4533360000000  0.5429600000000  0.4361070000000 1.0
C      1  0.5400440000000  0.5847150000000  0.5037310000000 1.0
C      1  0.5586680000000  0.5130390000000  0.5640670000000 1.0
C      1  0.4988610000000  0.4704560000000  0.4687690000000 1.0
C      1  0.4442010000000  0.4325870000000  0.5362180000000 1.0
C      1  0.4782450000000  0.5564690000000  0.4307860000000 1.0
C      1  0.5867680000000  0.5060660000000  0.4638610000000 1.0
C      1  0.4512110000000  0.4978160000000  0.5132200000000 1.0
C      1  0.4684240000000  0.4269600000000  0.5464540000000 1.0
C      1  0.4406440000000  0.4299440000000  0.4549130000000 1.0
C      1  0.5607130000000  0.4191920000000  0.4798960000000 1.0
C      1  0.5693690000000  0.5591310000000  0.5314140000000 1.0
C      1  0.5329250000000  0.4205080000000  0.5215670000000 1.0
C      1  0.5260740000000  0.5733630000000  0.5519550000000 1.0
C      1  0.5379770000000  0.5153200000000  0.4680930000000 1.0
C      1  0.5085180000000  0.5125020000000  0.4684700000000 1.0
C      1  0.5373960000000  0.4950290000000  0.5544310000000 1.0
C      1  0.4677870000000  0.4503640000000  0.5022520000000 1.0
C      1  0.5117620000000  0.5801330000000  0.4593480000000 1.0
C      1  0.4409520000000  0.4679660000000  0.5696790000000 1.0
C      1  0.4774510000000  0.5575710000000  0.5630420000000 1.0
C      1  0.5207880000000  0.5366510000000  0.5807350000000 1.0
C      1  0.4285840000000  0.4547850000000  0.5481670000000 1.0
C      1  0.5952430000000  0.5201960000000  0.5096640000000 1.0
C      1  0.4889540000000  0.5120930000000  0.5380060000000 1.0
C      1  0.5719230000000  0.4518230000000  0.5032860000000 1.0
C      1  0.5866680000000  0.5371810000000  0.5318280000000 1.0
C      1  0.4705700000000  0.4654390000000  0.4296540000000 1.0
C      1  0.4289500000000  0.5048410000000  0.4508590000000 1.0
C      1  0.4875310000000  0.4832890000000  0.5361070000000 1.0
C      1  0.4411480000000  0.4187460000000  0.4807680000000 1.0
C      1  0.4745010000000  0.4964210000000  0.4276220000000 1.0
C      1  0.4946990000000  0.4435760000000  0.5144830000000 1.0
C      1  0.5082190000000  0.5115700000000  0.5871840000000 1.0
C      1  0.4349400000000  0.5594500000000  0.5016590000000 1.0
C      1  0.4427800000000  0.5470210000000  0.5275710000000 1.0
C      1  0.5731730000000  0.4867350000000  0.4499090000000 1.0
C      1  0.4250220000000  0.5472130000000  0.4771730000000 1.0
C      1  0.4994130000000  0.5915370000000  0.5106980000000 1.0
C      1  0.5480790000000  0.5381650000000  0.5719420000000 1.0
C      1  0.4997880000000  0.4930970000000  0.4465020000000 1.0
C      1  0.5240430000000  0.5012300000000  0.4050170000000 1.0
C      1  0.5515530000000  0.5604520000000  0.5542120000000 1.0
C      1  0.4543980000000  0.5792200000000  0.4950000000000 1.0
C      1  0.5176830000000  0.4830640000000  0.5750240000000 1.0
C      1  0.5880550000000  0.5263040000000  0.4824950000000 1.0
C      1  0.4668350000000  0.5243210000000  0.5212370000000 1.0
C      1  0.4897110000000  0.5148540000000  0.4067160000000 1.0
C      1  0.5133130000000  0.4240380000000  0.4740840000000 1.0
C      1  0.4945270000000  0.4390810000000  0.5453440000000 1.0
C      1  0.5203750000000  0.4537360000000  0.4290060000000 1.0
C      1  0.5429120000000  0.4611490000000  0.4919940000000 1.0
C      1  0.5248240000000  0.5443660000000  0.4256320000000 1.0
C      1  0.4625520000000  0.4129290000000  0.4621600000000 1.0
C      1  0.4966280000000  0.5353380000000  0.4816490000000 1.0
C      1  0.5131110000000  0.5452910000000  0.5014960000000 1.0
C      1  0.4804290000000  0.5155890000000  0.5909210000000 1.0
C      1  0.4647960000000  0.5348750000000  0.5753200000000 1.0
C      1  0.5309330000000  0.4579480000000  0.5863200000000 1.0
C      1  0.5242140000000  0.4535840000000  0.4711720000000 1.0
END
