TITL C-105678-572-1 87.2973011001326 125000 -769.461955408089 0 0 110 (C1) n - 1
REM
REM in /rds/project/t2_vol4/rds-t2-cs072/BORA/CARBON/from-Arr/AIRSS/Generating-Clusters/GAP-ML-2020/Only-C1/SD-CG/HFTN-CG
REM
REM
REM
REM
REM
REM ./C.cell (11c1c37f851c82e70ff6c80c92926a4b)
REM AIRSS Version 0.9.1 bugfix July 2018 build 013d7b7c2542+ Fri, 06 Jul 2018 19:26:36 +0100
REM compiler GCC version 9.3.0
REM options -cpp -mtune=generic -march=x86-64 -g -O0
REM seed -809354557 -1506333220 1960841595 -1960061155 -626518293 -344656678 1074905790 1642535985 -1915613886 -1418205969 1992322198 1744746988 1747950242 1546586283 1100539276 -1128814609 955864424 775028225 1720219761 1987205315 2015096123 -1398305792 -1913795033 -1639329297 1463757278 -223943698 -1572531466 1077849244 1746485792 -1914631400 -1341285944 -1773072592 983848409
REM
CELL 1.54180   50.00000   50.00000   50.00000   90.00000   90.00000   90.00000
LATT -1
SFAC C  
C      1  0.5508550000000  0.4581000000000  0.5702340000000 1.0
C      1  0.5614070000000  0.4544190000000  0.5430480000000 1.0
C      1  0.4464690000000  0.4618540000000  0.5389850000000 1.0
C      1  0.4883110000000  0.4602210000000  0.5671670000000 1.0
C      1  0.5061210000000  0.5156180000000  0.4096970000000 1.0
C      1  0.4342820000000  0.4718990000000  0.5646450000000 1.0
C      1  0.4594170000000  0.5031380000000  0.4181550000000 1.0
C      1  0.4859880000000  0.5211130000000  0.4982080000000 1.0
C      1  0.5235100000000  0.5592290000000  0.5451790000000 1.0
C      1  0.5592250000000  0.5267030000000  0.5317120000000 1.0
C      1  0.5657040000000  0.5374210000000  0.4694680000000 1.0
C      1  0.5032560000000  0.5116840000000  0.5451980000000 1.0
C      1  0.5378180000000  0.4462650000000  0.4349470000000 1.0
C      1  0.4844290000000  0.5003670000000  0.5233160000000 1.0
C      1  0.4704280000000  0.4143540000000  0.5164620000000 1.0
C      1  0.5802510000000  0.4915930000000  0.4554800000000 1.0
C      1  0.4913440000000  0.4129000000000  0.4965330000000 1.0
C      1  0.4710530000000  0.5344960000000  0.5813760000000 1.0
C      1  0.4507930000000  0.4609200000000  0.4423560000000 1.0
C      1  0.5344670000000  0.5789740000000  0.5259060000000 1.0
C      1  0.5073510000000  0.5120760000000  0.4754440000000 1.0
C      1  0.4638110000000  0.5252380000000  0.4810350000000 1.0
C      1  0.5188510000000  0.5368930000000  0.4638500000000 1.0
C      1  0.4801830000000  0.4206760000000  0.4712960000000 1.0
C      1  0.4503180000000  0.4830380000000  0.5845380000000 1.0
C      1  0.4938180000000  0.5521950000000  0.5839130000000 1.0
C      1  0.4798690000000  0.5692000000000  0.4207250000000 1.0
C      1  0.4296700000000  0.4657810000000  0.4906260000000 1.0
C      1  0.4966070000000  0.4396170000000  0.4573970000000 1.0
C      1  0.5611860000000  0.4456180000000  0.4839990000000 1.0
C      1  0.5781460000000  0.4651060000000  0.4974870000000 1.0
C      1  0.5211310000000  0.5497200000000  0.4375890000000 1.0
C      1  0.5049130000000  0.5722940000000  0.4331060000000 1.0
C      1  0.4195150000000  0.5418230000000  0.4952700000000 1.0
C      1  0.4470170000000  0.4254100000000  0.5044090000000 1.0
C      1  0.5136630000000  0.5356870000000  0.5285470000000 1.0
C      1  0.5355840000000  0.5251290000000  0.5097150000000 1.0
C      1  0.5276470000000  0.5767950000000  0.4791550000000 1.0
C      1  0.5607240000000  0.5731050000000  0.5199990000000 1.0
C      1  0.4658890000000  0.4747750000000  0.4236310000000 1.0
C      1  0.4667600000000  0.5512850000000  0.4626710000000 1.0
C      1  0.5166190000000  0.5838080000000  0.5042470000000 1.0
C      1  0.4230040000000  0.5238570000000  0.4488640000000 1.0
C      1  0.5371390000000  0.4423550000000  0.5003630000000 1.0
C      1  0.5087210000000  0.4374840000000  0.5735570000000 1.0
C      1  0.4268420000000  0.4997060000000  0.4623400000000 1.0
C      1  0.4982410000000  0.4737730000000  0.5170350000000 1.0
C      1  0.5676320000000  0.5166740000000  0.4483190000000 1.0
C      1  0.4432390000000  0.5243350000000  0.4289230000000 1.0
C      1  0.5129070000000  0.4881690000000  0.4091450000000 1.0
C      1  0.5543490000000  0.4654430000000  0.4204640000000 1.0
C      1  0.5450420000000  0.5410540000000  0.5564870000000 1.0
C      1  0.4548110000000  0.4903830000000  0.5242880000000 1.0
C      1  0.5046040000000  0.4188820000000  0.5517970000000 1.0
C      1  0.5731350000000  0.4678370000000  0.4424050000000 1.0
C      1  0.5729000000000  0.5493530000000  0.5169270000000 1.0
C      1  0.4902610000000  0.5111340000000  0.5758670000000 1.0
C      1  0.5413640000000  0.4883840000000  0.4144170000000 1.0
C      1  0.5499900000000  0.5135600000000  0.4255050000000 1.0
C      1  0.5501260000000  0.5061200000000  0.5885130000000 1.0
C      1  0.4677670000000  0.5618270000000  0.5459310000000 1.0
C      1  0.4524850000000  0.4269880000000  0.4762540000000 1.0
C      1  0.5390840000000  0.5471610000000  0.4810170000000 1.0
C      1  0.4791170000000  0.4844370000000  0.5820420000000 1.0
C      1  0.4201410000000  0.5451270000000  0.4669220000000 1.0
C      1  0.4953160000000  0.5642000000000  0.5584240000000 1.0
C      1  0.5281690000000  0.5304960000000  0.4194550000000 1.0
C      1  0.4670530000000  0.4456230000000  0.5527380000000 1.0
C      1  0.5177260000000  0.4183350000000  0.5044200000000 1.0
C      1  0.5089650000000  0.4676150000000  0.5437970000000 1.0
C      1  0.4311230000000  0.4989390000000  0.5727070000000 1.0
C      1  0.4801290000000  0.5221320000000  0.4151730000000 1.0
C      1  0.4973200000000  0.4648170000000  0.4742930000000 1.0
C      1  0.4789190000000  0.4619520000000  0.4980120000000 1.0
C      1  0.5286910000000  0.5004970000000  0.4919790000000 1.0
C      1  0.5890110000000  0.5095040000000  0.5004710000000 1.0
C      1  0.4623980000000  0.5691840000000  0.5178980000000 1.0
C      1  0.4526370000000  0.5425340000000  0.5618620000000 1.0
C      1  0.4781070000000  0.4220210000000  0.5422790000000 1.0
C      1  0.5588860000000  0.4468970000000  0.4562600000000 1.0
C      1  0.4931910000000  0.5447750000000  0.5109580000000 1.0
C      1  0.4600460000000  0.4981840000000  0.4723990000000 1.0
C      1  0.4323570000000  0.5097710000000  0.5282400000000 1.0
C      1  0.5386950000000  0.5300130000000  0.5816370000000 1.0
C      1  0.5063880000000  0.5813770000000  0.4603260000000 1.0
C      1  0.4669650000000  0.5450730000000  0.4312240000000 1.0
C      1  0.5235160000000  0.4904220000000  0.5512500000000 1.0
C      1  0.5114370000000  0.5304360000000  0.5887180000000 1.0
C      1  0.5342640000000  0.4398740000000  0.5814960000000 1.0
C      1  0.4894930000000  0.4913080000000  0.4633600000000 1.0
C      1  0.5471180000000  0.4357820000000  0.5286130000000 1.0
C      1  0.5823950000000  0.5355450000000  0.4924990000000 1.0
C      1  0.4835120000000  0.5731850000000  0.4733900000000 1.0
C      1  0.4556660000000  0.4796080000000  0.4957990000000 1.0
C      1  0.5779160000000  0.5027420000000  0.5259110000000 1.0
C      1  0.5209090000000  0.4720190000000  0.4967170000000 1.0
C      1  0.5874900000000  0.4875880000000  0.4827630000000 1.0
C      1  0.5740450000000  0.4736880000000  0.5251750000000 1.0
C      1  0.4953360000000  0.4678800000000  0.4178670000000 1.0
C      1  0.5093050000000  0.4464260000000  0.4329630000000 1.0
C      1  0.4173660000000  0.5150090000000  0.5047700000000 1.0
C      1  0.4404590000000  0.4503680000000  0.4647460000000 1.0
C      1  0.4337930000000  0.4479400000000  0.5143830000000 1.0
C      1  0.5419230000000  0.4855460000000  0.5734020000000 1.0
C      1  0.5251920000000  0.4173950000000  0.5325210000000 1.0
C      1  0.4155510000000  0.4918960000000  0.4865240000000 1.0
C      1  0.4342360000000  0.5209260000000  0.5547500000000 1.0
C      1  0.4414440000000  0.5642220000000  0.4714520000000 1.0
C      1  0.4402440000000  0.5631980000000  0.5003630000000 1.0
C      1  0.4880000000000  0.5724800000000  0.5019120000000 1.0
END
