TITL C-102213-7205-4 -105.430073791379 125000 -565.784132369263 0 0 80 (C1) n - 1
REM
REM in /rds/project/t2_vol4/rds-t2-cs072/BORA/CARBON/from-Arr/AIRSS/Generating-Clusters/GAP-ML-2020/Only-C1/SD-CG/HFTN-CG
REM
REM
REM
REM
REM
REM ./C.cell (11c1c37f851c82e70ff6c80c92926a4b)
REM AIRSS Version 0.9.1 bugfix July 2018 build 013d7b7c2542+ Fri, 06 Jul 2018 19:26:36 +0100
REM compiler GCC version 9.3.0
REM options -cpp -mtune=generic -march=x86-64 -g -O0
REM seed 1757223949 627201507 -222598410 1399627394 1118003554 -1334020043 -1724426226 740612788 706882250 -1864347067 -617176138 -1621716449 1611874893 -1215387981 211361662 1250293005 2109785280 -380077443 1976150687 -878395127 -4847699 516328735 341016067 1460922055 1805317575 802195667 437163901 -589971517 746667816 557218043 981591553 -2138803502 1629675905
REM
CELL 1.54180   50.00000   50.00000   50.00000   90.00000   90.00000   90.00000
LATT -1
SFAC C  
C      1  0.5210050000000  0.4895090000000  0.5407180000000 1.0
C      1  0.4729870000000  0.4961000000000  0.4960110000000 1.0
C      1  0.5707150000000  0.4726070000000  0.4766760000000 1.0
C      1  0.4794040000000  0.5848820000000  0.4850190000000 1.0
C      1  0.5033150000000  0.4776120000000  0.5842940000000 1.0
C      1  0.4487910000000  0.5384420000000  0.4607080000000 1.0
C      1  0.4343320000000  0.5350290000000  0.5086890000000 1.0
C      1  0.4915880000000  0.5174530000000  0.4844560000000 1.0
C      1  0.4491660000000  0.5098990000000  0.4580530000000 1.0
C      1  0.4546890000000  0.4267890000000  0.5169680000000 1.0
C      1  0.4942280000000  0.4537930000000  0.5694250000000 1.0
C      1  0.5613020000000  0.5417710000000  0.4815810000000 1.0
C      1  0.4513450000000  0.4446150000000  0.4718210000000 1.0
C      1  0.4196870000000  0.4572630000000  0.5044430000000 1.0
C      1  0.4935450000000  0.4231970000000  0.4855670000000 1.0
C      1  0.5518630000000  0.4643890000000  0.4562870000000 1.0
C      1  0.4730050000000  0.4708440000000  0.5553640000000 1.0
C      1  0.4584420000000  0.5707580000000  0.4973640000000 1.0
C      1  0.5265800000000  0.5036930000000  0.5145700000000 1.0
C      1  0.5637090000000  0.5085190000000  0.4502330000000 1.0
C      1  0.4933270000000  0.4180310000000  0.5355360000000 1.0
C      1  0.4794370000000  0.5953520000000  0.4598650000000 1.0
C      1  0.5497470000000  0.5644920000000  0.5218400000000 1.0
C      1  0.4340570000000  0.4656060000000  0.4828770000000 1.0
C      1  0.5216630000000  0.4965500000000  0.4305630000000 1.0
C      1  0.5424210000000  0.4680720000000  0.5413590000000 1.0
C      1  0.5313960000000  0.5450130000000  0.4416610000000 1.0
C      1  0.5277210000000  0.5110460000000  0.5622070000000 1.0
C      1  0.4658400000000  0.4525820000000  0.4505160000000 1.0
C      1  0.5328800000000  0.4281610000000  0.5147580000000 1.0
C      1  0.4307580000000  0.5073730000000  0.5086330000000 1.0
C      1  0.4783380000000  0.5187700000000  0.5676110000000 1.0
C      1  0.5497300000000  0.5234580000000  0.5461690000000 1.0
C      1  0.4782930000000  0.5277790000000  0.4272740000000 1.0
C      1  0.4491380000000  0.5436060000000  0.5319420000000 1.0
C      1  0.5396620000000  0.5501310000000  0.5416440000000 1.0
C      1  0.4457490000000  0.4708750000000  0.5424880000000 1.0
C      1  0.5109360000000  0.5540930000000  0.5467820000000 1.0
C      1  0.4923750000000  0.4564300000000  0.4484110000000 1.0
C      1  0.5471120000000  0.4876910000000  0.4397310000000 1.0
C      1  0.5362280000000  0.4428300000000  0.4677910000000 1.0
C      1  0.5327140000000  0.4415370000000  0.5401840000000 1.0
C      1  0.5240890000000  0.5728120000000  0.4825160000000 1.0
C      1  0.4366550000000  0.4495530000000  0.5249930000000 1.0
C      1  0.5030830000000  0.5798440000000  0.5008590000000 1.0
C      1  0.4652610000000  0.4272630000000  0.4896670000000 1.0
C      1  0.5709650000000  0.5185730000000  0.4959880000000 1.0
C      1  0.4926000000000  0.4741110000000  0.5043140000000 1.0
C      1  0.5481820000000  0.5633450000000  0.4946460000000 1.0
C      1  0.5180510000000  0.4842640000000  0.4932600000000 1.0
C      1  0.4795230000000  0.4922400000000  0.5753560000000 1.0
C      1  0.4585700000000  0.5196260000000  0.5449240000000 1.0
C      1  0.4878590000000  0.5699470000000  0.4509700000000 1.0
C      1  0.5660260000000  0.4606020000000  0.5015450000000 1.0
C      1  0.4422640000000  0.5503350000000  0.4858650000000 1.0
C      1  0.5754400000000  0.4999750000000  0.4748720000000 1.0
C      1  0.4396000000000  0.4976720000000  0.5354550000000 1.0
C      1  0.5160520000000  0.5640890000000  0.4562410000000 1.0
C      1  0.4923400000000  0.4828440000000  0.5336400000000 1.0
C      1  0.4972760000000  0.5303040000000  0.4077080000000 1.0
C      1  0.5035630000000  0.5228110000000  0.5108240000000 1.0
C      1  0.5081070000000  0.4372750000000  0.4643380000000 1.0
C      1  0.4949090000000  0.5690450000000  0.5269200000000 1.0
C      1  0.4428360000000  0.4939330000000  0.4835500000000 1.0
C      1  0.5039420000000  0.5314780000000  0.5624950000000 1.0
C      1  0.4668450000000  0.4113090000000  0.5365100000000 1.0
C      1  0.4806930000000  0.5084220000000  0.5238790000000 1.0
C      1  0.5258710000000  0.4929630000000  0.5866000000000 1.0
C      1  0.5544270000000  0.5350700000000  0.4546070000000 1.0
C      1  0.5082710000000  0.4350330000000  0.5539380000000 1.0
C      1  0.4684260000000  0.5495300000000  0.4433050000000 1.0
C      1  0.5089990000000  0.4997750000000  0.4704920000000 1.0
C      1  0.5070090000000  0.4178030000000  0.5099870000000 1.0
C      1  0.4667100000000  0.5644720000000  0.5236470000000 1.0
C      1  0.5188330000000  0.5248630000000  0.4240800000000 1.0
C      1  0.5480070000000  0.4390240000000  0.4942960000000 1.0
C      1  0.5586410000000  0.5075940000000  0.5209900000000 1.0
C      1  0.4970580000000  0.4856880000000  0.4445360000000 1.0
C      1  0.5627760000000  0.4772030000000  0.5243340000000 1.0
C      1  0.4710210000000  0.5026690000000  0.4397630000000 1.0
END
