TITL C-105651-488-1 178.12291391699 125000 -582.813676268405 0 0 85 (C1) n - 1
REM
REM in /rds/project/t2_vol4/rds-t2-cs072/BORA/CARBON/from-Arr/AIRSS/Generating-Clusters/GAP-ML-2020/Only-C1/SD-CG/HFTN-CG
REM
REM
REM
REM
REM
REM ./C.cell (11c1c37f851c82e70ff6c80c92926a4b)
REM AIRSS Version 0.9.1 bugfix July 2018 build 013d7b7c2542+ Fri, 06 Jul 2018 19:26:36 +0100
REM compiler GCC version 9.3.0
REM options -cpp -mtune=generic -march=x86-64 -g -O0
REM seed -1507046306 1824177430 250524057 1268171456 111125595 -2103272079 1550677854 1247746022 -309265383 -533328676 -983315719 216349819 -1279264162 -948788847 848703723 506008605 2053924375 1801395270 322247635 -1365226747 1712833594 140818727 338772044 -1350536549 309654886 -983129549 -273103492 -1008665857 -1494099995 1701498857 -316412818 1374109876 -764152061
REM
CELL 1.54180   50.00000   50.00000   50.00000   90.00000   90.00000   90.00000
LATT -1
SFAC C  
C      1  0.4306870000000  0.4876150000000  0.4647880000000 1.0
C      1  0.5532890000000  0.4479350000000  0.5208760000000 1.0
C      1  0.4972110000000  0.5131820000000  0.4732500000000 1.0
C      1  0.4683770000000  0.5250160000000  0.5601900000000 1.0
C      1  0.5061840000000  0.5574450000000  0.5530140000000 1.0
C      1  0.4766640000000  0.4805750000000  0.5818410000000 1.0
C      1  0.4229290000000  0.5016360000000  0.5137560000000 1.0
C      1  0.5390670000000  0.4709710000000  0.5065900000000 1.0
C      1  0.4397920000000  0.5235250000000  0.5151380000000 1.0
C      1  0.5789640000000  0.4867840000000  0.5302950000000 1.0
C      1  0.5579560000000  0.5564390000000  0.5012290000000 1.0
C      1  0.4530580000000  0.5373030000000  0.5376830000000 1.0
C      1  0.5416990000000  0.4669430000000  0.5599750000000 1.0
C      1  0.5422180000000  0.5049420000000  0.4248610000000 1.0
C      1  0.5018350000000  0.4782500000000  0.4388050000000 1.0
C      1  0.5461340000000  0.4625830000000  0.4614190000000 1.0
C      1  0.5761800000000  0.4624180000000  0.5133870000000 1.0
C      1  0.5353410000000  0.5204630000000  0.5111560000000 1.0
C      1  0.5236650000000  0.5004990000000  0.4721000000000 1.0
C      1  0.5391750000000  0.4434550000000  0.5442220000000 1.0
C      1  0.4651560000000  0.5594290000000  0.5253470000000 1.0
C      1  0.5467410000000  0.5455490000000  0.4474650000000 1.0
C      1  0.4567590000000  0.5255920000000  0.4386120000000 1.0
C      1  0.5338820000000  0.5598890000000  0.5428700000000 1.0
C      1  0.4385490000000  0.4429750000000  0.4796160000000 1.0
C      1  0.4267360000000  0.4571340000000  0.5275540000000 1.0
C      1  0.4355740000000  0.4602960000000  0.4558270000000 1.0
C      1  0.4674660000000  0.5558490000000  0.4953470000000 1.0
C      1  0.4790460000000  0.4910540000000  0.4624790000000 1.0
C      1  0.5459820000000  0.5164360000000  0.4832510000000 1.0
C      1  0.5646580000000  0.5346770000000  0.5207300000000 1.0
C      1  0.5131590000000  0.5807130000000  0.5054170000000 1.0
C      1  0.5189740000000  0.5128620000000  0.4099330000000 1.0
C      1  0.5381130000000  0.5709580000000  0.5163430000000 1.0
C      1  0.5629460000000  0.4727270000000  0.4867270000000 1.0
C      1  0.5172820000000  0.5119690000000  0.5637730000000 1.0
C      1  0.4412670000000  0.4807570000000  0.5587610000000 1.0
C      1  0.5012820000000  0.4493590000000  0.4443870000000 1.0
C      1  0.5793140000000  0.5097300000000  0.5133780000000 1.0
C      1  0.5109810000000  0.4932980000000  0.5412830000000 1.0
C      1  0.5137050000000  0.4307720000000  0.5392220000000 1.0
C      1  0.4454930000000  0.4518380000000  0.5494370000000 1.0
C      1  0.4733130000000  0.4704890000000  0.4835610000000 1.0
C      1  0.4917560000000  0.4380290000000  0.5572360000000 1.0
C      1  0.5576380000000  0.5277730000000  0.4289530000000 1.0
C      1  0.4531500000000  0.5079270000000  0.4630490000000 1.0
C      1  0.4879810000000  0.5730820000000  0.5367140000000 1.0
C      1  0.5536420000000  0.5441170000000  0.4754990000000 1.0
C      1  0.4240400000000  0.4566200000000  0.4997790000000 1.0
C      1  0.5177580000000  0.5474440000000  0.4427170000000 1.0
C      1  0.4747200000000  0.4394440000000  0.4485460000000 1.0
C      1  0.4914520000000  0.4746950000000  0.5042750000000 1.0
C      1  0.4201210000000  0.4843440000000  0.4908150000000 1.0
C      1  0.4521330000000  0.5533750000000  0.4448740000000 1.0
C      1  0.5166040000000  0.4779200000000  0.5665660000000 1.0
C      1  0.4594280000000  0.5250680000000  0.4927880000000 1.0
C      1  0.5559180000000  0.4905440000000  0.5485630000000 1.0
C      1  0.5168860000000  0.4775470000000  0.4913860000000 1.0
C      1  0.4956430000000  0.4969240000000  0.4164260000000 1.0
C      1  0.4965030000000  0.5329180000000  0.5641480000000 1.0
C      1  0.4235490000000  0.4847060000000  0.5366840000000 1.0
C      1  0.5046740000000  0.5359600000000  0.4198590000000 1.0
C      1  0.4545570000000  0.5661490000000  0.4709350000000 1.0
C      1  0.4880890000000  0.4203900000000  0.4922320000000 1.0
C      1  0.4995400000000  0.5570620000000  0.4921480000000 1.0
C      1  0.5347460000000  0.4934980000000  0.5247490000000 1.0
C      1  0.4983110000000  0.5946920000000  0.5235370000000 1.0
C      1  0.4604690000000  0.4990400000000  0.5704250000000 1.0
C      1  0.4876920000000  0.4935150000000  0.5238160000000 1.0
C      1  0.5533270000000  0.5396460000000  0.5472290000000 1.0
C      1  0.5700150000000  0.5006640000000  0.4878960000000 1.0
C      1  0.4878460000000  0.5150260000000  0.5028000000000 1.0
C      1  0.5240720000000  0.4424610000000  0.4624340000000 1.0
C      1  0.4983670000000  0.5466880000000  0.4638140000000 1.0
C      1  0.5081540000000  0.5338020000000  0.5103390000000 1.0
C      1  0.4649070000000  0.4336990000000  0.5531730000000 1.0
C      1  0.4789810000000  0.5206340000000  0.4218230000000 1.0
C      1  0.4679080000000  0.4380090000000  0.4788620000000 1.0
C      1  0.5314210000000  0.4858580000000  0.4470350000000 1.0
C      1  0.4516440000000  0.4488170000000  0.4371140000000 1.0
C      1  0.5079070000000  0.4214420000000  0.5121280000000 1.0
C      1  0.5151500000000  0.4253850000000  0.4850210000000 1.0
C      1  0.4756750000000  0.5645190000000  0.4522140000000 1.0
C      1  0.4949090000000  0.4617760000000  0.5748880000000 1.0
C      1  0.5459140000000  0.5164600000000  0.5606210000000 1.0
END
