TITL C-101229-5672-8 -0.0268982120051382 125000 -516.576292364165 0 0 75 (C1) n - 1
REM
REM in /rds/project/t2_vol4/rds-t2-cs072/BORA/CARBON/from-Arr/AIRSS/Generating-Clusters/GAP-ML-2020/Only-C1/SD-CG/HFTN-CG
REM
REM
REM
REM
REM
REM ./C.cell (11c1c37f851c82e70ff6c80c92926a4b)
REM AIRSS Version 0.9.1 bugfix July 2018 build 013d7b7c2542+ Fri, 06 Jul 2018 19:26:36 +0100
REM compiler GCC version 9.3.0
REM options -cpp -mtune=generic -march=x86-64 -g -O0
REM seed 759552483 -610301969 -2027927797 1525694932 1855838986 -571716816 1774246839 594629688 920081328 1405318297 -393098870 -98986278 881820426 890540123 1820412687 426099161 23214283 488344045 988316451 771346496 -989683236 1211090604 -1426432654 1900080787 1705391075 799274967 1654691468 1935377855 1130264151 -1494875487 1207067588 -358663408 185884459
REM
CELL 1.54180   50.00000   50.00000   50.00000   90.00000   90.00000   90.00000
LATT -1
SFAC C  
C      1  0.4989560000000  0.4460050000000  0.5702590000000 1.0
C      1  0.4811350000000  0.4934720000000  0.4786090000000 1.0
C      1  0.5323220000000  0.4406960000000  0.5390950000000 1.0
C      1  0.5440220000000  0.5267770000000  0.4939380000000 1.0
C      1  0.4530740000000  0.4650940000000  0.5167570000000 1.0
C      1  0.4523260000000  0.5371550000000  0.5458810000000 1.0
C      1  0.5171950000000  0.5302660000000  0.5454450000000 1.0
C      1  0.5502190000000  0.4632970000000  0.5337670000000 1.0
C      1  0.4799950000000  0.4796190000000  0.5053910000000 1.0
C      1  0.5648820000000  0.5338690000000  0.5399350000000 1.0
C      1  0.4691240000000  0.4916360000000  0.5759130000000 1.0
C      1  0.4624920000000  0.4373580000000  0.5065960000000 1.0
C      1  0.4380350000000  0.5214650000000  0.4767120000000 1.0
C      1  0.4347250000000  0.5313330000000  0.5033120000000 1.0
C      1  0.4542840000000  0.4669590000000  0.5459700000000 1.0
C      1  0.5049560000000  0.5580220000000  0.4494880000000 1.0
C      1  0.5735760000000  0.4962570000000  0.5096370000000 1.0
C      1  0.5542340000000  0.4855380000000  0.5521710000000 1.0
C      1  0.5205750000000  0.4624940000000  0.5791740000000 1.0
C      1  0.4585850000000  0.5628730000000  0.4625690000000 1.0
C      1  0.4358360000000  0.4931720000000  0.4768720000000 1.0
C      1  0.4854230000000  0.5141110000000  0.5742370000000 1.0
C      1  0.4331760000000  0.4844440000000  0.5041090000000 1.0
C      1  0.4986860000000  0.5349080000000  0.4331070000000 1.0
C      1  0.4698880000000  0.5768040000000  0.4837050000000 1.0
C      1  0.5312120000000  0.4936250000000  0.4270200000000 1.0
C      1  0.5274740000000  0.5632820000000  0.5168130000000 1.0
C      1  0.4894800000000  0.4351060000000  0.5197780000000 1.0
C      1  0.4281970000000  0.5082290000000  0.5189320000000 1.0
C      1  0.4522400000000  0.5480480000000  0.5195610000000 1.0
C      1  0.5212130000000  0.5086160000000  0.4980120000000 1.0
C      1  0.5482920000000  0.4405410000000  0.4459460000000 1.0
C      1  0.5013720000000  0.4830320000000  0.5459580000000 1.0
C      1  0.5680120000000  0.5141080000000  0.4867850000000 1.0
C      1  0.4841670000000  0.5738990000000  0.4589210000000 1.0
C      1  0.4845960000000  0.5360020000000  0.5009560000000 1.0
C      1  0.4793230000000  0.4507220000000  0.4335650000000 1.0
C      1  0.4618580000000  0.4520020000000  0.4565080000000 1.0
C      1  0.5543770000000  0.4891240000000  0.4441370000000 1.0
C      1  0.4831060000000  0.4770500000000  0.4210290000000 1.0
C      1  0.5054510000000  0.4323400000000  0.5439800000000 1.0
C      1  0.4457890000000  0.4906850000000  0.5595470000000 1.0
C      1  0.5001210000000  0.5680320000000  0.5271730000000 1.0
C      1  0.4859390000000  0.4984210000000  0.5260650000000 1.0
C      1  0.5590170000000  0.4636620000000  0.4570660000000 1.0
C      1  0.4610550000000  0.4366090000000  0.4793540000000 1.0
C      1  0.4758330000000  0.5382450000000  0.5620290000000 1.0
C      1  0.4569650000000  0.5344830000000  0.4591520000000 1.0
C      1  0.4806270000000  0.4674980000000  0.5618760000000 1.0
C      1  0.5682210000000  0.5060530000000  0.5373350000000 1.0
C      1  0.4758830000000  0.5632010000000  0.5089410000000 1.0
C      1  0.5243030000000  0.5215890000000  0.4301070000000 1.0
C      1  0.5124130000000  0.5067180000000  0.5640250000000 1.0
C      1  0.4571560000000  0.4817340000000  0.4594110000000 1.0
C      1  0.4668230000000  0.4957090000000  0.4342150000000 1.0
C      1  0.5322270000000  0.4866560000000  0.5723780000000 1.0
C      1  0.4978980000000  0.5518670000000  0.5504350000000 1.0
C      1  0.5077840000000  0.4471800000000  0.4321250000000 1.0
C      1  0.5439150000000  0.5338950000000  0.4475060000000 1.0
C      1  0.5110680000000  0.4902570000000  0.4780160000000 1.0
C      1  0.5364540000000  0.5548830000000  0.4906580000000 1.0
C      1  0.5187690000000  0.4655900000000  0.5292670000000 1.0
C      1  0.4719390000000  0.5232340000000  0.4361410000000 1.0
C      1  0.5224190000000  0.4415840000000  0.4557140000000 1.0
C      1  0.4363840000000  0.5129800000000  0.5459990000000 1.0
C      1  0.5025660000000  0.5198020000000  0.5169990000000 1.0
C      1  0.5030940000000  0.4581250000000  0.5059310000000 1.0
C      1  0.5515940000000  0.4613690000000  0.4851090000000 1.0
C      1  0.5409330000000  0.5458170000000  0.5370610000000 1.0
C      1  0.4757250000000  0.5221660000000  0.4789690000000 1.0
C      1  0.5610420000000  0.5134370000000  0.4589770000000 1.0
C      1  0.5637780000000  0.4693780000000  0.5087310000000 1.0
C      1  0.5210380000000  0.4607140000000  0.4809890000000 1.0
C      1  0.5310670000000  0.5549740000000  0.4623460000000 1.0
C      1  0.5120680000000  0.4740990000000  0.4198060000000 1.0
END
