TITL C-102219-7247-5 -0.00204546922529566 125000 -69.6114112324995 0 0 11 (C1) n - 1
REM
REM in /rds/project/t2_vol4/rds-t2-cs072/BORA/CARBON/from-Arr/AIRSS/Generating-Clusters/GAP-ML-2020/Only-C1/SD-CG/HFTN-CG
REM
REM
REM
REM
REM
REM ./C.cell (11c1c37f851c82e70ff6c80c92926a4b)
REM AIRSS Version 0.9.1 bugfix July 2018 build 013d7b7c2542+ Fri, 06 Jul 2018 19:26:36 +0100
REM compiler GCC version 9.3.0
REM options -cpp -mtune=generic -march=x86-64 -g -O0
REM seed 1897939818 -198385599 -1845359219 -846313225 -809748756 -359658117 589701669 -1467972003 -165958397 711256082 -694938062 -591060110 -1928343707 310169407 -234762922 330392424 -1915835837 -511140802 1744160104 -1319975397 -2591099 -2089816369 101583935 123946073 -565878312 -1414341984 714401001 499767171 1917068154 -1310176010 -346852650 -1639360909 -1617240788
REM
CELL 1.54180   50.00000   50.00000   50.00000   90.00000   90.00000   90.00000
LATT -1
SFAC C  
C      1  0.4647990000000  0.5609760000000  0.4989730000000 1.0
C      1  0.5254700000000  0.4653590000000  0.5254350000000 1.0
C      1  0.4998550000000  0.5134180000000  0.4600360000000 1.0
C      1  0.4703890000000  0.5429290000000  0.5164720000000 1.0
C      1  0.5063350000000  0.4865220000000  0.4678400000000 1.0
C      1  0.5215040000000  0.4706530000000  0.4825960000000 1.0
C      1  0.4815470000000  0.5227760000000  0.5283000000000 1.0
C      1  0.5330150000000  0.4570000000000  0.5011840000000 1.0
C      1  0.4947870000000  0.5030270000000  0.5365530000000 1.0
C      1  0.4911870000000  0.4944740000000  0.4455400000000 1.0
C      1  0.5111130000000  0.4828680000000  0.5370720000000 1.0
END
