TITL C-107223-8309-10 -226.209361310472 125000 -232.080913054031 0 0 35 (C1) n - 1
REM
REM in /rds/project/t2_vol4/rds-t2-cs072/BORA/CARBON/from-Arr/AIRSS/Generating-Clusters/GAP-ML-2020/Only-C1/SD-CG/HFTN-CG
REM
REM
REM
REM
REM
REM ./C.cell (11c1c37f851c82e70ff6c80c92926a4b)
REM AIRSS Version 0.9.1 bugfix July 2018 build 013d7b7c2542+ Fri, 06 Jul 2018 19:26:36 +0100
REM compiler GCC version 9.3.0
REM options -cpp -mtune=generic -march=x86-64 -g -O0
REM seed -1171376946 1560839206 909607307 109714338 997872606 581612056 -635001952 -9336086 -428278748 1471967882 1612498958 351564864 858884358 1877405095 2126953731 -1550198169 640923724 -1272564702 836471146 67826349 -1204395970 -295428807 882492082 321343453 -1241309067 -1216854483 127225587 1147801775 1771655937 -1964829834 -119716158 1583715601 1240040446
REM
CELL 1.54180   50.00000   50.00000   50.00000   90.00000   90.00000   90.00000
LATT -1
SFAC C  
C      1  0.5657640000000  0.5160530000000  0.5141930000000 1.0
C      1  0.4590040000000  0.5420560000000  0.5039390000000 1.0
C      1  0.5570460000000  0.5379200000000  0.5231630000000 1.0
C      1  0.5515050000000  0.4937820000000  0.5044320000000 1.0
C      1  0.5375240000000  0.4423880000000  0.4816940000000 1.0
C      1  0.5259980000000  0.4906720000000  0.5173450000000 1.0
C      1  0.5274660000000  0.5191110000000  0.4427660000000 1.0
C      1  0.5390400000000  0.4665600000000  0.4677740000000 1.0
C      1  0.4862100000000  0.5165530000000  0.5215470000000 1.0
C      1  0.4510890000000  0.5296750000000  0.5531470000000 1.0
C      1  0.5143300000000  0.5146690000000  0.5262700000000 1.0
C      1  0.5288480000000  0.5390520000000  0.5284930000000 1.0
C      1  0.4837450000000  0.5307600000000  0.4938780000000 1.0
C      1  0.5100170000000  0.4669910000000  0.5174460000000 1.0
C      1  0.4703400000000  0.4406280000000  0.5282120000000 1.0
C      1  0.5534760000000  0.5203180000000  0.4437480000000 1.0
C      1  0.4444630000000  0.5206000000000  0.4936490000000 1.0
C      1  0.4845980000000  0.5173150000000  0.4690430000000 1.0
C      1  0.5671130000000  0.5051310000000  0.4601920000000 1.0
C      1  0.4678100000000  0.4931050000000  0.5261050000000 1.0
C      1  0.4530570000000  0.4814760000000  0.4803980000000 1.0
C      1  0.4828050000000  0.4674490000000  0.5258120000000 1.0
C      1  0.4624140000000  0.4437000000000  0.5039900000000 1.0
C      1  0.5122150000000  0.4772310000000  0.4619260000000 1.0
C      1  0.4947780000000  0.4588580000000  0.4746960000000 1.0
C      1  0.4672340000000  0.4572970000000  0.4794870000000 1.0
C      1  0.5142260000000  0.4475610000000  0.4956430000000 1.0
C      1  0.5072870000000  0.5056310000000  0.4558550000000 1.0
C      1  0.4576020000000  0.5073700000000  0.4698960000000 1.0
C      1  0.4448740000000  0.4946410000000  0.5055150000000 1.0
C      1  0.5574720000000  0.4861610000000  0.4779190000000 1.0
C      1  0.5130200000000  0.5618790000000  0.5340340000000 1.0
C      1  0.4881110000000  0.5619820000000  0.5359390000000 1.0
C      1  0.4507650000000  0.5043030000000  0.5494470000000 1.0
C      1  0.4687530000000  0.5411230000000  0.5324070000000 1.0
END
