TITL C-102195-7107-2 -20.0111521089112 125000 -473.602348560482 0 0 69 (C1) n - 1
REM
REM in /rds/project/t2_vol4/rds-t2-cs072/BORA/CARBON/from-Arr/AIRSS/Generating-Clusters/GAP-ML-2020/Only-C1/SD-CG/HFTN-CG
REM
REM
REM
REM
REM
REM ./C.cell (11c1c37f851c82e70ff6c80c92926a4b)
REM AIRSS Version 0.9.1 bugfix July 2018 build 013d7b7c2542+ Fri, 06 Jul 2018 19:26:36 +0100
REM compiler GCC version 9.3.0
REM options -cpp -mtune=generic -march=x86-64 -g -O0
REM seed -735370920 1993233508 -498405283 -654821812 -994431063 437010873 1588725306 447498735 -142978669 -551825720 -1004916274 -927843727 -2104659927 -1405799728 1685077680 -1237475454 -1033306854 -1984309421 2046425330 -589577074 -727500605 -1328521267 1029187151 1028152334 -1183528395 1506358839 -522410451 -1910341032 -1787117820 844696086 -1202377989 62943602 -1767643576
REM
CELL 1.54180   50.00000   50.00000   50.00000   90.00000   90.00000   90.00000
LATT -1
SFAC C  
C      1  0.5254030000000  0.5238980000000  0.4312330000000 1.0
C      1  0.5046070000000  0.4832270000000  0.4304230000000 1.0
C      1  0.5319980000000  0.4708780000000  0.5524650000000 1.0
C      1  0.5357630000000  0.5074330000000  0.5751280000000 1.0
C      1  0.4632020000000  0.4458530000000  0.4763900000000 1.0
C      1  0.4821660000000  0.5167950000000  0.5190450000000 1.0
C      1  0.5256000000000  0.5290830000000  0.5164940000000 1.0
C      1  0.4364850000000  0.4767920000000  0.5361780000000 1.0
C      1  0.4954030000000  0.5253330000000  0.5635510000000 1.0
C      1  0.5623740000000  0.4946630000000  0.5346670000000 1.0
C      1  0.5049810000000  0.5716460000000  0.4592730000000 1.0
C      1  0.5517050000000  0.4842720000000  0.4477530000000 1.0
C      1  0.5076790000000  0.4836670000000  0.5408330000000 1.0
C      1  0.5473030000000  0.4575520000000  0.4589480000000 1.0
C      1  0.5499280000000  0.4504490000000  0.5127590000000 1.0
C      1  0.4969760000000  0.5285580000000  0.4343290000000 1.0
C      1  0.4339290000000  0.5429280000000  0.5284300000000 1.0
C      1  0.4444170000000  0.4530750000000  0.4575260000000 1.0
C      1  0.5089350000000  0.5060220000000  0.5801070000000 1.0
C      1  0.4992170000000  0.4799850000000  0.5682810000000 1.0
C      1  0.4975690000000  0.5838730000000  0.4832360000000 1.0
C      1  0.4658840000000  0.5139540000000  0.4761620000000 1.0
C      1  0.5015000000000  0.4585980000000  0.4439250000000 1.0
C      1  0.5158000000000  0.5216240000000  0.4872840000000 1.0
C      1  0.4793540000000  0.4595550000000  0.5685390000000 1.0
C      1  0.5165890000000  0.4353510000000  0.4746920000000 1.0
C      1  0.5319300000000  0.5631260000000  0.4607790000000 1.0
C      1  0.5511550000000  0.4905800000000  0.5604140000000 1.0
C      1  0.4525820000000  0.4495910000000  0.5021470000000 1.0
C      1  0.5306840000000  0.4956230000000  0.4309690000000 1.0
C      1  0.4791570000000  0.5463190000000  0.5061390000000 1.0
C      1  0.5625690000000  0.4758810000000  0.5128680000000 1.0
C      1  0.4262250000000  0.4855880000000  0.4859950000000 1.0
C      1  0.5667810000000  0.5472960000000  0.4846400000000 1.0
C      1  0.5643080000000  0.5302050000000  0.4610790000000 1.0
C      1  0.4459760000000  0.5291320000000  0.5516190000000 1.0
C      1  0.4898410000000  0.5480980000000  0.4535910000000 1.0
C      1  0.5058610000000  0.5138600000000  0.5354600000000 1.0
C      1  0.5211070000000  0.4942700000000  0.4868250000000 1.0
C      1  0.4499810000000  0.5484070000000  0.5058120000000 1.0
C      1  0.4992310000000  0.5692730000000  0.5059890000000 1.0
C      1  0.4176130000000  0.5190200000000  0.5212950000000 1.0
C      1  0.4297920000000  0.5037740000000  0.5421060000000 1.0
C      1  0.4695440000000  0.5333510000000  0.5638320000000 1.0
C      1  0.4971630000000  0.4622760000000  0.5221510000000 1.0
C      1  0.4883190000000  0.5331020000000  0.4791900000000 1.0
C      1  0.4214590000000  0.5124840000000  0.4937130000000 1.0
C      1  0.5248020000000  0.4435220000000  0.4476090000000 1.0
C      1  0.4976780000000  0.4770550000000  0.4947650000000 1.0
C      1  0.5425940000000  0.5410980000000  0.4460210000000 1.0
C      1  0.5086470000000  0.4375950000000  0.5381650000000 1.0
C      1  0.4755330000000  0.4969910000000  0.4998820000000 1.0
C      1  0.4696730000000  0.4507630000000  0.5238640000000 1.0
C      1  0.5641480000000  0.5021920000000  0.4659630000000 1.0
C      1  0.5534150000000  0.4953550000000  0.4929370000000 1.0
C      1  0.5356680000000  0.4466970000000  0.5368270000000 1.0
C      1  0.5549420000000  0.5172370000000  0.5160100000000 1.0
C      1  0.4835850000000  0.5028250000000  0.4349410000000 1.0
C      1  0.4915960000000  0.4541420000000  0.4729530000000 1.0
C      1  0.5251900000000  0.5583190000000  0.5099470000000 1.0
C      1  0.5434180000000  0.5629800000000  0.4870950000000 1.0
C      1  0.4420370000000  0.5298290000000  0.4853800000000 1.0
C      1  0.4953090000000  0.4370650000000  0.5615060000000 1.0
C      1  0.4578530000000  0.4606530000000  0.5474120000000 1.0
C      1  0.5416100000000  0.4451660000000  0.4858610000000 1.0
C      1  0.4316840000000  0.4678090000000  0.5080370000000 1.0
C      1  0.4606270000000  0.4993010000000  0.4518080000000 1.0
C      1  0.5740600000000  0.5368760000000  0.5083010000000 1.0
C      1  0.4398870000000  0.4802090000000  0.4604540000000 1.0
END
