TITL C-107211-8350-1 -0.235788853646993 125000 -502.078465177314 0 0 74 (C1) n - 1
REM
REM in /rds/project/t2_vol4/rds-t2-cs072/BORA/CARBON/from-Arr/AIRSS/Generating-Clusters/GAP-ML-2020/Only-C1/SD-CG/HFTN-CG
REM
REM
REM
REM
REM
REM ./C.cell (11c1c37f851c82e70ff6c80c92926a4b)
REM AIRSS Version 0.9.1 bugfix July 2018 build 013d7b7c2542+ Fri, 06 Jul 2018 19:26:36 +0100
REM compiler GCC version 9.3.0
REM options -cpp -mtune=generic -march=x86-64 -g -O0
REM seed 762532595 -2134804673 -491815857 1881727635 -1922577374 -1759513429 387837636 612579921 -1899394554 -1644694223 182673934 -72931064 -1179686886 404275505 -279913024 -1330003634 -1106928324 326975347 429582653 720672804 -179914090 888780079 576271795 -1753200751 -1339273891 1539347078 -174604829 1440362003 467849541 1316670796 -234043642 -1508932759 -1304933961
REM
CELL 1.54180   50.00000   50.00000   50.00000   90.00000   90.00000   90.00000
LATT -1
SFAC C  
C      1  0.4687720000000  0.5043930000000  0.5718480000000 1.0
C      1  0.4780300000000  0.5162760000000  0.4455310000000 1.0
C      1  0.5481240000000  0.5646060000000  0.4902310000000 1.0
C      1  0.5412210000000  0.4614690000000  0.4405200000000 1.0
C      1  0.5379440000000  0.5239880000000  0.4778830000000 1.0
C      1  0.4842750000000  0.5161390000000  0.5174230000000 1.0
C      1  0.4937540000000  0.5836870000000  0.5095850000000 1.0
C      1  0.4290800000000  0.4879580000000  0.5087740000000 1.0
C      1  0.5027770000000  0.5242230000000  0.4300130000000 1.0
C      1  0.4878890000000  0.4264040000000  0.4994760000000 1.0
C      1  0.4627430000000  0.5426860000000  0.4558630000000 1.0
C      1  0.5179000000000  0.4462150000000  0.4409880000000 1.0
C      1  0.4430330000000  0.4946140000000  0.4827060000000 1.0
C      1  0.5455350000000  0.4912560000000  0.5627750000000 1.0
C      1  0.4906900000000  0.4606300000000  0.4474500000000 1.0
C      1  0.5005750000000  0.4993540000000  0.5352750000000 1.0
C      1  0.5004760000000  0.4458600000000  0.5403500000000 1.0
C      1  0.5210380000000  0.5024520000000  0.4656840000000 1.0
C      1  0.5021730000000  0.4723310000000  0.5217650000000 1.0
C      1  0.4970160000000  0.5370240000000  0.5607860000000 1.0
C      1  0.5689260000000  0.4713910000000  0.4931060000000 1.0
C      1  0.4541810000000  0.4521800000000  0.5289630000000 1.0
C      1  0.5273100000000  0.5522460000000  0.4722180000000 1.0
C      1  0.5269120000000  0.4776480000000  0.4804200000000 1.0
C      1  0.5468280000000  0.4644620000000  0.5480410000000 1.0
C      1  0.5304770000000  0.5051470000000  0.5255400000000 1.0
C      1  0.5503810000000  0.4593680000000  0.5185070000000 1.0
C      1  0.5186500000000  0.5521910000000  0.5501910000000 1.0
C      1  0.4496760000000  0.4760470000000  0.4614760000000 1.0
C      1  0.5207270000000  0.4581620000000  0.5588420000000 1.0
C      1  0.5358710000000  0.4350040000000  0.5078050000000 1.0
C      1  0.4970250000000  0.5066490000000  0.5655080000000 1.0
C      1  0.4443790000000  0.5030050000000  0.5803600000000 1.0
C      1  0.4444310000000  0.5021960000000  0.5504540000000 1.0
C      1  0.5469520000000  0.5142880000000  0.5476520000000 1.0
C      1  0.4296370000000  0.5210410000000  0.4847700000000 1.0
C      1  0.4827150000000  0.5628300000000  0.4644860000000 1.0
C      1  0.4760180000000  0.5010760000000  0.4935670000000 1.0
C      1  0.4702110000000  0.4853140000000  0.4438660000000 1.0
C      1  0.5380080000000  0.4837230000000  0.4247260000000 1.0
C      1  0.4933210000000  0.5143220000000  0.4712010000000 1.0
C      1  0.5500910000000  0.4600060000000  0.4711300000000 1.0
C      1  0.5187550000000  0.4269790000000  0.4626410000000 1.0
C      1  0.4752800000000  0.5759550000000  0.4907240000000 1.0
C      1  0.4723990000000  0.4402640000000  0.5451240000000 1.0
C      1  0.5295050000000  0.4786660000000  0.5104720000000 1.0
C      1  0.4533240000000  0.5483800000000  0.5288810000000 1.0
C      1  0.5019140000000  0.5386780000000  0.5090010000000 1.0
C      1  0.5295470000000  0.5274060000000  0.5072910000000 1.0
C      1  0.5221930000000  0.5030540000000  0.4354410000000 1.0
C      1  0.4991950000000  0.5636060000000  0.5285110000000 1.0
C      1  0.4928340000000  0.4217990000000  0.4721190000000 1.0
C      1  0.4538640000000  0.5594140000000  0.5009660000000 1.0
C      1  0.5449970000000  0.5433510000000  0.5447100000000 1.0
C      1  0.5103690000000  0.5646870000000  0.4506040000000 1.0
C      1  0.4653700000000  0.4480250000000  0.5006840000000 1.0
C      1  0.5096520000000  0.4301680000000  0.5172100000000 1.0
C      1  0.4766770000000  0.5518500000000  0.5450040000000 1.0
C      1  0.5498050000000  0.5484870000000  0.5156550000000 1.0
C      1  0.5762340000000  0.4973600000000  0.4907470000000 1.0
C      1  0.5085030000000  0.5505260000000  0.4269330000000 1.0
C      1  0.5397040000000  0.4337380000000  0.4802030000000 1.0
C      1  0.4452380000000  0.5432060000000  0.4786230000000 1.0
C      1  0.5701700000000  0.5486160000000  0.4959060000000 1.0
C      1  0.5681230000000  0.5221450000000  0.4822450000000 1.0
C      1  0.5184470000000  0.4849780000000  0.5720300000000 1.0
C      1  0.4218450000000  0.5160470000000  0.5117230000000 1.0
C      1  0.4361270000000  0.5258510000000  0.5335280000000 1.0
C      1  0.4846880000000  0.4725570000000  0.4979200000000 1.0
C      1  0.4544880000000  0.4494010000000  0.4722460000000 1.0
C      1  0.4404800000000  0.4779240000000  0.5319670000000 1.0
C      1  0.4987040000000  0.5423370000000  0.4805950000000 1.0
C      1  0.4741600000000  0.4377020000000  0.4569990000000 1.0
C      1  0.5016330000000  0.4669820000000  0.4755440000000 1.0
END
