TITL C-105665-487-4 0.130600179220092 125000 -926.878573926875 0 0 131 (C1) n - 1
REM
REM in /rds/project/t2_vol4/rds-t2-cs072/BORA/CARBON/from-Arr/AIRSS/Generating-Clusters/GAP-ML-2020/Only-C1/SD-CG/HFTN-CG
REM
REM
REM
REM
REM
REM ./C.cell (11c1c37f851c82e70ff6c80c92926a4b)
REM AIRSS Version 0.9.1 bugfix July 2018 build 013d7b7c2542+ Fri, 06 Jul 2018 19:26:36 +0100
REM compiler GCC version 9.3.0
REM options -cpp -mtune=generic -march=x86-64 -g -O0
REM seed 1517391870 2129197037 141843743 270944267 -187316819 -445017410 -641557274 985540956 -338049169 222978773 2093998753 -1219286230 2043590647 -1606223890 -944394151 -947934268 2122708712 444783762 1765298274 1841148191 942766360 576792953 1156987889 -271214381 1234899876 -2143799240 772591086 2088838316 1713597100 -404346923 248318752 -1812315169 -1177429214
REM
CELL 1.54180   50.00000   50.00000   50.00000   90.00000   90.00000   90.00000
LATT -1
SFAC C  
C      1  0.5110750000000  0.5807840000000  0.4782070000000 1.0
C      1  0.5511030000000  0.5445410000000  0.5875630000000 1.0
C      1  0.5446390000000  0.5781560000000  0.5238380000000 1.0
C      1  0.5836940000000  0.4977360000000  0.4415190000000 1.0
C      1  0.4550800000000  0.5248560000000  0.4903940000000 1.0
C      1  0.5217160000000  0.4666610000000  0.4109670000000 1.0
C      1  0.5721450000000  0.4351610000000  0.5514540000000 1.0
C      1  0.5691630000000  0.5406490000000  0.4493810000000 1.0
C      1  0.5412930000000  0.4572850000000  0.5114690000000 1.0
C      1  0.4770070000000  0.4867940000000  0.4061300000000 1.0
C      1  0.5136790000000  0.4635680000000  0.4971200000000 1.0
C      1  0.5011470000000  0.5791010000000  0.5046600000000 1.0
C      1  0.4868440000000  0.4761450000000  0.5803710000000 1.0
C      1  0.4662100000000  0.4786050000000  0.4673580000000 1.0
C      1  0.5789040000000  0.5455260000000  0.4980270000000 1.0
C      1  0.4180260000000  0.4992270000000  0.4392570000000 1.0
C      1  0.5013020000000  0.5417860000000  0.4205590000000 1.0
C      1  0.5044960000000  0.5432140000000  0.5944970000000 1.0
C      1  0.4111940000000  0.4783060000000  0.5206650000000 1.0
C      1  0.5448780000000  0.5187180000000  0.4157490000000 1.0
C      1  0.5369090000000  0.4262910000000  0.4711610000000 1.0
C      1  0.5504570000000  0.4211760000000  0.5423440000000 1.0
C      1  0.4835740000000  0.5148960000000  0.4186330000000 1.0
C      1  0.5242570000000  0.4593680000000  0.5577240000000 1.0
C      1  0.5576280000000  0.4577580000000  0.4425080000000 1.0
C      1  0.5277120000000  0.5782790000000  0.5676770000000 1.0
C      1  0.4964200000000  0.5304690000000  0.4638090000000 1.0
C      1  0.4861960000000  0.5524240000000  0.4452500000000 1.0
C      1  0.5138300000000  0.5384040000000  0.5263510000000 1.0
C      1  0.5164700000000  0.5163200000000  0.6006740000000 1.0
C      1  0.4963900000000  0.4706230000000  0.5530960000000 1.0
C      1  0.4925900000000  0.4253680000000  0.4428960000000 1.0
C      1  0.4176340000000  0.4707640000000  0.4435910000000 1.0
C      1  0.4565410000000  0.5260190000000  0.4220780000000 1.0
C      1  0.5662070000000  0.5516670000000  0.5644570000000 1.0
C      1  0.5160000000000  0.4627910000000  0.4655150000000 1.0
C      1  0.5324780000000  0.5109010000000  0.4865460000000 1.0
C      1  0.5549530000000  0.5188800000000  0.5246930000000 1.0
C      1  0.5441930000000  0.4707600000000  0.5380680000000 1.0
C      1  0.4385630000000  0.5341860000000  0.4673800000000 1.0
C      1  0.5260260000000  0.5253050000000  0.4617250000000 1.0
C      1  0.4048920000000  0.5065850000000  0.4841960000000 1.0
C      1  0.4048350000000  0.5236900000000  0.5067820000000 1.0
C      1  0.5705690000000  0.5204690000000  0.4297740000000 1.0
C      1  0.5000680000000  0.4134860000000  0.5081430000000 1.0
C      1  0.4276820000000  0.4600460000000  0.5353000000000 1.0
C      1  0.4435910000000  0.4275490000000  0.4991390000000 1.0
C      1  0.4801760000000  0.5515980000000  0.5803610000000 1.0
C      1  0.4894880000000  0.5516870000000  0.5136330000000 1.0
C      1  0.5632080000000  0.4648330000000  0.4913910000000 1.0
C      1  0.4413520000000  0.5653640000000  0.5170320000000 1.0
C      1  0.5364220000000  0.5332200000000  0.5075770000000 1.0
C      1  0.4827290000000  0.4551320000000  0.5062520000000 1.0
C      1  0.5567030000000  0.4959600000000  0.5832950000000 1.0
C      1  0.5796120000000  0.5042170000000  0.5647440000000 1.0
C      1  0.5195590000000  0.4338790000000  0.4484940000000 1.0
C      1  0.4441730000000  0.4911600000000  0.5983460000000 1.0
C      1  0.4914100000000  0.4981830000000  0.5383870000000 1.0
C      1  0.5140750000000  0.5149740000000  0.5425540000000 1.0
C      1  0.4833510000000  0.5309470000000  0.4917360000000 1.0
C      1  0.5369390000000  0.5694680000000  0.4738510000000 1.0
C      1  0.4434900000000  0.5714400000000  0.4499730000000 1.0
C      1  0.4222780000000  0.5282770000000  0.5417540000000 1.0
C      1  0.4450570000000  0.5167940000000  0.5967090000000 1.0
C      1  0.4890720000000  0.5035740000000  0.5075700000000 1.0
C      1  0.5052640000000  0.5834840000000  0.5513850000000 1.0
C      1  0.4493290000000  0.4827410000000  0.4097200000000 1.0
C      1  0.4589700000000  0.5006230000000  0.5070530000000 1.0
C      1  0.4562300000000  0.5460230000000  0.4422870000000 1.0
C      1  0.4493240000000  0.4160560000000  0.5437930000000 1.0
C      1  0.5396850000000  0.5003750000000  0.5390010000000 1.0
C      1  0.4586680000000  0.4761430000000  0.5796960000000 1.0
C      1  0.5804930000000  0.5304270000000  0.5521410000000 1.0
C      1  0.4575410000000  0.5341710000000  0.5783580000000 1.0
C      1  0.5884260000000  0.4856630000000  0.5451070000000 1.0
C      1  0.4137200000000  0.4593490000000  0.4700530000000 1.0
C      1  0.5875730000000  0.4844890000000  0.4948610000000 1.0
C      1  0.5834420000000  0.5263860000000  0.5222600000000 1.0
C      1  0.4435460000000  0.5779280000000  0.4920650000000 1.0
C      1  0.4735540000000  0.4201430000000  0.4641880000000 1.0
C      1  0.5267880000000  0.5596570000000  0.5884110000000 1.0
C      1  0.5516920000000  0.5607930000000  0.4992020000000 1.0
C      1  0.5511360000000  0.5726280000000  0.5512920000000 1.0
C      1  0.4935410000000  0.4634600000000  0.4087580000000 1.0
C      1  0.5414710000000  0.5503660000000  0.4509880000000 1.0
C      1  0.4610500000000  0.5016270000000  0.5391440000000 1.0
C      1  0.4740930000000  0.4264700000000  0.5459150000000 1.0
C      1  0.4518610000000  0.4727880000000  0.5490050000000 1.0
C      1  0.5098830000000  0.4883640000000  0.5939430000000 1.0
C      1  0.5002420000000  0.4179680000000  0.5368040000000 1.0
C      1  0.4300890000000  0.4351190000000  0.4746500000000 1.0
C      1  0.4187650000000  0.5464890000000  0.5199230000000 1.0
C      1  0.4613890000000  0.5853570000000  0.4687150000000 1.0
C      1  0.5269130000000  0.5013520000000  0.4407490000000 1.0
C      1  0.4813250000000  0.5689060000000  0.5569760000000 1.0
C      1  0.4931720000000  0.4831770000000  0.4621960000000 1.0
C      1  0.5317360000000  0.4939020000000  0.4118120000000 1.0
C      1  0.5930000000000  0.4977880000000  0.5195070000000 1.0
C      1  0.5170900000000  0.5878890000000  0.5253850000000 1.0
C      1  0.4092720000000  0.5057380000000  0.5290800000000 1.0
C      1  0.5822130000000  0.5326620000000  0.4735730000000 1.0
C      1  0.4513270000000  0.5297650000000  0.5493940000000 1.0
C      1  0.5335160000000  0.4762440000000  0.5828220000000 1.0
C      1  0.5235810000000  0.4294170000000  0.5495580000000 1.0
C      1  0.5430710000000  0.4275030000000  0.5160570000000 1.0
C      1  0.4758520000000  0.4555470000000  0.5381940000000 1.0
C      1  0.5290270000000  0.5430190000000  0.4222160000000 1.0
C      1  0.4360390000000  0.4610540000000  0.4234200000000 1.0
C      1  0.4480460000000  0.4269030000000  0.4540470000000 1.0
C      1  0.5392980000000  0.4788080000000  0.4556170000000 1.0
C      1  0.4288730000000  0.5625160000000  0.4725410000000 1.0
C      1  0.4749600000000  0.4255440000000  0.4940740000000 1.0
C      1  0.5094000000000  0.4921280000000  0.4914090000000 1.0
C      1  0.4970700000000  0.5057380000000  0.4453680000000 1.0
C      1  0.5450240000000  0.5183800000000  0.5959850000000 1.0
C      1  0.4651000000000  0.5560500000000  0.5343840000000 1.0
C      1  0.4637220000000  0.4758670000000  0.4945690000000 1.0
C      1  0.4067070000000  0.4786330000000  0.4913080000000 1.0
C      1  0.5726770000000  0.4618610000000  0.5473670000000 1.0
C      1  0.4344150000000  0.4329290000000  0.5261980000000 1.0
C      1  0.4160070000000  0.5166600000000  0.4606300000000 1.0
C      1  0.4523200000000  0.4394930000000  0.4286740000000 1.0
C      1  0.5592320000000  0.4439600000000  0.4691660000000 1.0
C      1  0.4882320000000  0.5780390000000  0.4609200000000 1.0
C      1  0.4370130000000  0.5061810000000  0.4193300000000 1.0
C      1  0.5348590000000  0.4469910000000  0.4268810000000 1.0
C      1  0.4802130000000  0.4403880000000  0.4219590000000 1.0
C      1  0.5825870000000  0.5027380000000  0.4715070000000 1.0
C      1  0.5792800000000  0.4725610000000  0.4320240000000 1.0
C      1  0.5538320000000  0.4912540000000  0.4775980000000 1.0
C      1  0.5268800000000  0.4153290000000  0.4964370000000 1.0
END
