TITL C-102200-7107-2 -0.0796197686134098 125000 -291.129958950368 0 0 44 (C1) n - 1
REM
REM in /rds/project/t2_vol4/rds-t2-cs072/BORA/CARBON/from-Arr/AIRSS/Generating-Clusters/GAP-ML-2020/Only-C1/SD-CG/HFTN-CG
REM
REM
REM
REM
REM
REM ./C.cell (11c1c37f851c82e70ff6c80c92926a4b)
REM AIRSS Version 0.9.1 bugfix July 2018 build 013d7b7c2542+ Fri, 06 Jul 2018 19:26:36 +0100
REM compiler GCC version 9.3.0
REM options -cpp -mtune=generic -march=x86-64 -g -O0
REM seed 2050048786 -445129623 494348860 577889174 392911675 -67066596 -605451702 -1156152473 333485975 1307073325 -100471715 -1559398379 232045949 -1760920558 -1619514624 -1569052518 -644935696 279422184 -393034493 1115617532 -1615855175 -1593632727 170855580 562474118 -1378380422 1345004027 531583664 -1766990331 -96247092 725093175 -1090137584 -945613934 -209082549
REM
CELL 1.54180   50.00000   50.00000   50.00000   90.00000   90.00000   90.00000
LATT -1
SFAC C  
C      1  0.4902620000000  0.5041050000000  0.5273830000000 1.0
C      1  0.5299580000000  0.5023800000000  0.5009610000000 1.0
C      1  0.5244270000000  0.5157700000000  0.5630840000000 1.0
C      1  0.4450570000000  0.4545010000000  0.5009480000000 1.0
C      1  0.5142930000000  0.4946940000000  0.5447040000000 1.0
C      1  0.4297460000000  0.5042190000000  0.5085960000000 1.0
C      1  0.5347580000000  0.4498880000000  0.4978920000000 1.0
C      1  0.4435850000000  0.5475590000000  0.5235650000000 1.0
C      1  0.5443940000000  0.4940750000000  0.4777320000000 1.0
C      1  0.4759740000000  0.5081590000000  0.4584130000000 1.0
C      1  0.4402830000000  0.4878680000000  0.5311300000000 1.0
C      1  0.5200530000000  0.4298430000000  0.4840660000000 1.0
C      1  0.5342290000000  0.4588510000000  0.4498850000000 1.0
C      1  0.4655170000000  0.5336060000000  0.4678540000000 1.0
C      1  0.4838260000000  0.4850670000000  0.4765380000000 1.0
C      1  0.4915240000000  0.5448070000000  0.4545280000000 1.0
C      1  0.5200580000000  0.5058190000000  0.4385270000000 1.0
C      1  0.4410460000000  0.5401540000000  0.4767420000000 1.0
C      1  0.5471890000000  0.4669380000000  0.4742560000000 1.0
C      1  0.5623900000000  0.5296940000000  0.5410190000000 1.0
C      1  0.5087190000000  0.4642430000000  0.5414280000000 1.0
C      1  0.4684880000000  0.5486310000000  0.5290170000000 1.0
C      1  0.5317640000000  0.5391280000000  0.4745090000000 1.0
C      1  0.5138580000000  0.5574150000000  0.4633860000000 1.0
C      1  0.4370430000000  0.4594120000000  0.5250810000000 1.0
C      1  0.5399780000000  0.5427640000000  0.5276200000000 1.0
C      1  0.4340890000000  0.4901260000000  0.4851810000000 1.0
C      1  0.4340160000000  0.5321610000000  0.5032110000000 1.0
C      1  0.5171960000000  0.5393380000000  0.5460450000000 1.0
C      1  0.5118230000000  0.4422770000000  0.4614050000000 1.0
C      1  0.5383180000000  0.5145390000000  0.4585420000000 1.0
C      1  0.5308330000000  0.4608100000000  0.5236450000000 1.0
C      1  0.4678770000000  0.4871780000000  0.5370910000000 1.0
C      1  0.5392270000000  0.4890750000000  0.5259770000000 1.0
C      1  0.5629670000000  0.5014370000000  0.5387990000000 1.0
C      1  0.4951610000000  0.4660330000000  0.4552100000000 1.0
C      1  0.5156160000000  0.4776610000000  0.4381480000000 1.0
C      1  0.5544730000000  0.5149610000000  0.5632180000000 1.0
C      1  0.4953520000000  0.5194690000000  0.4410940000000 1.0
C      1  0.4566750000000  0.4742720000000  0.4839660000000 1.0
C      1  0.5005140000000  0.4927040000000  0.5008540000000 1.0
C      1  0.5351860000000  0.5318290000000  0.5019880000000 1.0
C      1  0.4814970000000  0.4624850000000  0.5424720000000 1.0
C      1  0.4907620000000  0.5340520000000  0.5342890000000 1.0
END
