TITL C-105659-558-5 -0.0786781843938019 125000 -310.898562696584 0 0 46 (C1) n - 1
REM
REM in /rds/project/t2_vol4/rds-t2-cs072/BORA/CARBON/from-Arr/AIRSS/Generating-Clusters/GAP-ML-2020/Only-C1/SD-CG/HFTN-CG
REM
REM
REM
REM
REM
REM ./C.cell (11c1c37f851c82e70ff6c80c92926a4b)
REM AIRSS Version 0.9.1 bugfix July 2018 build 013d7b7c2542+ Fri, 06 Jul 2018 19:26:36 +0100
REM compiler GCC version 9.3.0
REM options -cpp -mtune=generic -march=x86-64 -g -O0
REM seed -1318860132 1983001652 -611124202 784599323 65603541 1441046566 -2139308416 -37473223 667673107 2100638963 725205434 -2025531568 -1535484698 428160424 -1265244858 -1782860029 1454719872 2115126828 -1605377706 1655203535 -1162959243 -671552024 1150883360 -141985414 -1643146506 -1930903282 1223914044 1814863701 -2108966212 1193084613 2053269686 -1821946068 643142658
REM
CELL 1.54180   50.00000   50.00000   50.00000   90.00000   90.00000   90.00000
LATT -1
SFAC C  
C      1  0.5206780000000  0.4781260000000  0.5382460000000 1.0
C      1  0.5625220000000  0.4670510000000  0.5087440000000 1.0
C      1  0.5634540000000  0.5211590000000  0.5116670000000 1.0
C      1  0.5291890000000  0.4548820000000  0.4771710000000 1.0
C      1  0.4949630000000  0.4655240000000  0.5398860000000 1.0
C      1  0.4548560000000  0.5210640000000  0.5333490000000 1.0
C      1  0.4486730000000  0.5223150000000  0.5048350000000 1.0
C      1  0.5351620000000  0.5463150000000  0.4775700000000 1.0
C      1  0.4388940000000  0.4968650000000  0.4967500000000 1.0
C      1  0.4934670000000  0.4266460000000  0.4782940000000 1.0
C      1  0.4594580000000  0.5004030000000  0.4514920000000 1.0
C      1  0.5515230000000  0.5249210000000  0.4871250000000 1.0
C      1  0.4485370000000  0.4856430000000  0.4713940000000 1.0
C      1  0.4546200000000  0.4930730000000  0.5409430000000 1.0
C      1  0.5134290000000  0.5651030000000  0.4890040000000 1.0
C      1  0.5482320000000  0.4776480000000  0.5295680000000 1.0
C      1  0.4453700000000  0.4786990000000  0.5179150000000 1.0
C      1  0.5180410000000  0.5427740000000  0.4549130000000 1.0
C      1  0.5028790000000  0.5709550000000  0.5135640000000 1.0
C      1  0.4936830000000  0.5501240000000  0.5285700000000 1.0
C      1  0.4860750000000  0.5268400000000  0.5686620000000 1.0
C      1  0.4602240000000  0.4602400000000  0.4788730000000 1.0
C      1  0.4977370000000  0.5175130000000  0.4933340000000 1.0
C      1  0.5427170000000  0.4992480000000  0.4739600000000 1.0
C      1  0.4589410000000  0.4564860000000  0.5075460000000 1.0
C      1  0.4734840000000  0.5445760000000  0.4641240000000 1.0
C      1  0.5070520000000  0.4694810000000  0.4687120000000 1.0
C      1  0.5466080000000  0.4978450000000  0.4427080000000 1.0
C      1  0.5201980000000  0.4293690000000  0.4871040000000 1.0
C      1  0.5033980000000  0.5225470000000  0.5208290000000 1.0
C      1  0.5120780000000  0.5164440000000  0.5691320000000 1.0
C      1  0.5112270000000  0.4990930000000  0.4726310000000 1.0
C      1  0.4842970000000  0.4521360000000  0.4670820000000 1.0
C      1  0.4771670000000  0.4825700000000  0.5550540000000 1.0
C      1  0.4977650000000  0.5599320000000  0.4646830000000 1.0
C      1  0.4878510000000  0.5001420000000  0.5745130000000 1.0
C      1  0.4831050000000  0.4469920000000  0.5210000000000 1.0
C      1  0.4969580000000  0.4276580000000  0.5054920000000 1.0
C      1  0.5215120000000  0.5089670000000  0.5402970000000 1.0
C      1  0.5510300000000  0.5071290000000  0.5312300000000 1.0
C      1  0.4766520000000  0.5206600000000  0.4471710000000 1.0
C      1  0.5267100000000  0.5041880000000  0.4274790000000 1.0
C      1  0.4737290000000  0.5387930000000  0.5458920000000 1.0
C      1  0.5067320000000  0.5164440000000  0.4467020000000 1.0
C      1  0.4694750000000  0.5329390000000  0.4891940000000 1.0
C      1  0.5496480000000  0.4724760000000  0.4855960000000 1.0
END
