TITL C-105652-516-4 15.0597293604309 125000 -644.92029590352 0 0 92 (C1) n - 1
REM
REM in /rds/project/t2_vol4/rds-t2-cs072/BORA/CARBON/from-Arr/AIRSS/Generating-Clusters/GAP-ML-2020/Only-C1/SD-CG/HFTN-CG
REM
REM
REM
REM
REM
REM ./C.cell (11c1c37f851c82e70ff6c80c92926a4b)
REM AIRSS Version 0.9.1 bugfix July 2018 build 013d7b7c2542+ Fri, 06 Jul 2018 19:26:36 +0100
REM compiler GCC version 9.3.0
REM options -cpp -mtune=generic -march=x86-64 -g -O0
REM seed -1664758055 -857274795 1845459180 -1395422275 -2122963856 -1985304686 134455735 703845072 375679647 932363025 154514007 -724642851 1874723304 1847848896 1125781704 -605782752 320113489 -2065253732 1182909762 1089156398 424964764 614758763 491815146 -418023440 -1980619941 1910182184 1741879225 -162012110 -602098260 -676044777 1314899038 84056513 352109393
REM
CELL 1.54180   50.00000   50.00000   50.00000   90.00000   90.00000   90.00000
LATT -1
SFAC C  
C      1  0.5678840000000  0.5138120000000  0.4495190000000 1.0
C      1  0.4752180000000  0.5265220000000  0.5532170000000 1.0
C      1  0.5016400000000  0.5137180000000  0.4213110000000 1.0
C      1  0.5037750000000  0.4878970000000  0.5208200000000 1.0
C      1  0.5124120000000  0.4849270000000  0.5727040000000 1.0
C      1  0.5160770000000  0.5487630000000  0.5687290000000 1.0
C      1  0.4193560000000  0.4593570000000  0.4808350000000 1.0
C      1  0.4782030000000  0.5667740000000  0.4713960000000 1.0
C      1  0.4434790000000  0.5390110000000  0.4889400000000 1.0
C      1  0.4909370000000  0.5397020000000  0.4312510000000 1.0
C      1  0.5360760000000  0.5517950000000  0.5010590000000 1.0
C      1  0.5002200000000  0.5722200000000  0.5239260000000 1.0
C      1  0.4562880000000  0.5592620000000  0.5753710000000 1.0
C      1  0.4274580000000  0.4658570000000  0.5409750000000 1.0
C      1  0.4930980000000  0.5321280000000  0.5785720000000 1.0
C      1  0.5824940000000  0.4684310000000  0.4561390000000 1.0
C      1  0.5286240000000  0.5360240000000  0.5261780000000 1.0
C      1  0.4568000000000  0.5533100000000  0.5478230000000 1.0
C      1  0.5342670000000  0.5257270000000  0.5696820000000 1.0
C      1  0.4141630000000  0.5059790000000  0.4718230000000 1.0
C      1  0.4916270000000  0.4348780000000  0.5351250000000 1.0
C      1  0.4571620000000  0.4670710000000  0.5491930000000 1.0
C      1  0.4773780000000  0.4454790000000  0.5107430000000 1.0
C      1  0.4605320000000  0.4395720000000  0.4674760000000 1.0
C      1  0.5056230000000  0.5746390000000  0.4734700000000 1.0
C      1  0.5138770000000  0.4459040000000  0.4445150000000 1.0
C      1  0.5608030000000  0.5613870000000  0.4898660000000 1.0
C      1  0.4072160000000  0.4837430000000  0.4881560000000 1.0
C      1  0.5473500000000  0.4636710000000  0.5404590000000 1.0
C      1  0.4537650000000  0.5112360000000  0.5706450000000 1.0
C      1  0.4734980000000  0.5610760000000  0.5221310000000 1.0
C      1  0.4884750000000  0.4703380000000  0.5760550000000 1.0
C      1  0.5034430000000  0.5195760000000  0.4844980000000 1.0
C      1  0.5415210000000  0.4281250000000  0.4825490000000 1.0
C      1  0.5540880000000  0.5634140000000  0.4612000000000 1.0
C      1  0.5721610000000  0.5410760000000  0.4584690000000 1.0
C      1  0.5310290000000  0.4840920000000  0.4774760000000 1.0
C      1  0.5395000000000  0.4398930000000  0.4561700000000 1.0
C      1  0.5777860000000  0.4576380000000  0.5064260000000 1.0
C      1  0.4725890000000  0.4757500000000  0.5213410000000 1.0
C      1  0.4706520000000  0.5481080000000  0.4500610000000 1.0
C      1  0.4296090000000  0.5136510000000  0.5536950000000 1.0
C      1  0.5266310000000  0.4851780000000  0.5455250000000 1.0
C      1  0.4272670000000  0.4407360000000  0.5012250000000 1.0
C      1  0.5433460000000  0.5138180000000  0.5425320000000 1.0
C      1  0.4641220000000  0.5363920000000  0.5899830000000 1.0
C      1  0.5145120000000  0.5719780000000  0.4998690000000 1.0
C      1  0.5180020000000  0.5494140000000  0.4329530000000 1.0
C      1  0.4366410000000  0.5347480000000  0.5369720000000 1.0
C      1  0.4963330000000  0.4863570000000  0.4259580000000 1.0
C      1  0.5135570000000  0.5109560000000  0.5829180000000 1.0
C      1  0.5499100000000  0.5057160000000  0.4281140000000 1.0
C      1  0.5264270000000  0.5668020000000  0.4538500000000 1.0
C      1  0.4549260000000  0.4334060000000  0.4949630000000 1.0
C      1  0.5579220000000  0.4366110000000  0.5047240000000 1.0
C      1  0.5788880000000  0.5401950000000  0.4865500000000 1.0
C      1  0.5896520000000  0.4965220000000  0.4554110000000 1.0
C      1  0.4521170000000  0.4827560000000  0.4524170000000 1.0
C      1  0.4804210000000  0.4487770000000  0.5574360000000 1.0
C      1  0.4170700000000  0.4454710000000  0.5260660000000 1.0
C      1  0.4154170000000  0.5240650000000  0.4944760000000 1.0
C      1  0.5481630000000  0.5068490000000  0.4784990000000 1.0
C      1  0.4552100000000  0.4917130000000  0.5061650000000 1.0
C      1  0.5296580000000  0.5291660000000  0.4802540000000 1.0
C      1  0.5035790000000  0.5176230000000  0.5140260000000 1.0
C      1  0.5017730000000  0.4933070000000  0.4735620000000 1.0
C      1  0.5444630000000  0.4775180000000  0.4272910000000 1.0
C      1  0.4632950000000  0.4842830000000  0.5726940000000 1.0
C      1  0.5585700000000  0.4591340000000  0.4445090000000 1.0
C      1  0.5164790000000  0.4248000000000  0.4960310000000 1.0
C      1  0.4819850000000  0.4795920000000  0.4518740000000 1.0
C      1  0.5950620000000  0.4966230000000  0.4842540000000 1.0
C      1  0.4401570000000  0.4587630000000  0.4609770000000 1.0
C      1  0.5906680000000  0.4682620000000  0.4843880000000 1.0
C      1  0.4884830000000  0.4491610000000  0.4605690000000 1.0
C      1  0.5287110000000  0.5234300000000  0.4234530000000 1.0
C      1  0.4989960000000  0.4472910000000  0.4897120000000 1.0
C      1  0.4372500000000  0.5068340000000  0.4555570000000 1.0
C      1  0.5748100000000  0.5132720000000  0.4983550000000 1.0
C      1  0.4490420000000  0.5326130000000  0.4606880000000 1.0
C      1  0.4076270000000  0.5008250000000  0.5124060000000 1.0
C      1  0.5676570000000  0.5043050000000  0.5266570000000 1.0
C      1  0.5167980000000  0.4256690000000  0.5253470000000 1.0
C      1  0.4792610000000  0.5283600000000  0.5239350000000 1.0
C      1  0.5179760000000  0.4679750000000  0.4256830000000 1.0
C      1  0.4167490000000  0.4930240000000  0.5385540000000 1.0
C      1  0.5170860000000  0.5576410000000  0.5426720000000 1.0
C      1  0.4534330000000  0.5204430000000  0.5125870000000 1.0
C      1  0.5696290000000  0.4755980000000  0.5279420000000 1.0
C      1  0.5120160000000  0.4745660000000  0.4955740000000 1.0
C      1  0.4616110000000  0.5622440000000  0.4947170000000 1.0
C      1  0.5424900000000  0.4376850000000  0.5291400000000 1.0
END
