TITL C-101239-5657-7 7.26451424629181 125000 -691.356844112351 0 0 95 (C1) n - 1
REM
REM in /rds/project/t2_vol4/rds-t2-cs072/BORA/CARBON/from-Arr/AIRSS/Generating-Clusters/GAP-ML-2020/Only-C1/SD-CG/HFTN-CG
REM
REM
REM
REM
REM
REM ./C.cell (11c1c37f851c82e70ff6c80c92926a4b)
REM AIRSS Version 0.9.1 bugfix July 2018 build 013d7b7c2542+ Fri, 06 Jul 2018 19:26:36 +0100
REM compiler GCC version 9.3.0
REM options -cpp -mtune=generic -march=x86-64 -g -O0
REM seed 767450166 -784517349 -2051639356 363546472 323227218 1013078292 1613027147 459248833 1416067338 276690777 -1708347149 500642184 1601704554 -1356927870 -543305925 949515989 1174691359 802177824 -1210854307 -753092002 -858051609 -2067361966 -1597590728 -78004094 1500938083 -678913752 -1345859705 -1644559449 -1112770655 -702390162 -177022861 677594149 806802408
REM
CELL 1.54180   50.00000   50.00000   50.00000   90.00000   90.00000   90.00000
LATT -1
SFAC C  
C      1  0.4231530000000  0.5108740000000  0.4754720000000 1.0
C      1  0.4967400000000  0.4210020000000  0.5338960000000 1.0
C      1  0.5595540000000  0.5454850000000  0.5339320000000 1.0
C      1  0.5090570000000  0.5132920000000  0.5233670000000 1.0
C      1  0.5800640000000  0.5311130000000  0.5199540000000 1.0
C      1  0.5706980000000  0.4650030000000  0.4734080000000 1.0
C      1  0.5214350000000  0.5727560000000  0.4738200000000 1.0
C      1  0.5200530000000  0.4312290000000  0.5483180000000 1.0
C      1  0.5521550000000  0.5285430000000  0.5569480000000 1.0
C      1  0.4790050000000  0.5628810000000  0.4525670000000 1.0
C      1  0.4962310000000  0.5229470000000  0.4203980000000 1.0
C      1  0.4815230000000  0.4223430000000  0.4700610000000 1.0
C      1  0.5334570000000  0.4907710000000  0.4149000000000 1.0
C      1  0.5300320000000  0.4752560000000  0.5696520000000 1.0
C      1  0.4175610000000  0.5020570000000  0.5358710000000 1.0
C      1  0.5827760000000  0.5322740000000  0.4920970000000 1.0
C      1  0.4787760000000  0.4369900000000  0.4452490000000 1.0
C      1  0.4828290000000  0.4723260000000  0.4887960000000 1.0
C      1  0.4484220000000  0.4392190000000  0.5309640000000 1.0
C      1  0.4525960000000  0.4467200000000  0.4531760000000 1.0
C      1  0.5843190000000  0.5061180000000  0.5326710000000 1.0
C      1  0.5164040000000  0.5668880000000  0.5338400000000 1.0
C      1  0.5094360000000  0.4950760000000  0.4688390000000 1.0
C      1  0.5415850000000  0.5626220000000  0.5196630000000 1.0
C      1  0.5097670000000  0.5498660000000  0.5580030000000 1.0
C      1  0.5119770000000  0.4688870000000  0.4842770000000 1.0
C      1  0.5865260000000  0.4817470000000  0.4910800000000 1.0
C      1  0.4799180000000  0.4952900000000  0.4692520000000 1.0
C      1  0.4654200000000  0.5067710000000  0.5125040000000 1.0
C      1  0.5078780000000  0.4206260000000  0.4811210000000 1.0
C      1  0.4884500000000  0.4968290000000  0.5805840000000 1.0
C      1  0.5248930000000  0.4750750000000  0.5093170000000 1.0
C      1  0.4703450000000  0.5179510000000  0.4871920000000 1.0
C      1  0.4538510000000  0.4314660000000  0.4782140000000 1.0
C      1  0.5533100000000  0.4462300000000  0.4840380000000 1.0
C      1  0.5648880000000  0.4793020000000  0.4492210000000 1.0
C      1  0.5652640000000  0.5481790000000  0.4758510000000 1.0
C      1  0.5625850000000  0.5331060000000  0.4505180000000 1.0
C      1  0.4712330000000  0.4738150000000  0.5750670000000 1.0
C      1  0.5485920000000  0.5129650000000  0.4105120000000 1.0
C      1  0.5120480000000  0.4177290000000  0.5089390000000 1.0
C      1  0.4603780000000  0.5414250000000  0.4475550000000 1.0
C      1  0.4474960000000  0.5616610000000  0.5347300000000 1.0
C      1  0.4878550000000  0.4770880000000  0.4235650000000 1.0
C      1  0.4245970000000  0.4656280000000  0.4974350000000 1.0
C      1  0.4779550000000  0.4823520000000  0.5150000000000 1.0
C      1  0.4447410000000  0.4766560000000  0.5644760000000 1.0
C      1  0.5448160000000  0.5643550000000  0.4890740000000 1.0
C      1  0.5165960000000  0.4999900000000  0.5766580000000 1.0
C      1  0.4328640000000  0.5023050000000  0.5602790000000 1.0
C      1  0.5551340000000  0.4775400000000  0.5559320000000 1.0
C      1  0.4404510000000  0.4411990000000  0.5017900000000 1.0
C      1  0.4981920000000  0.4516060000000  0.4318230000000 1.0
C      1  0.4950380000000  0.5261710000000  0.4998230000000 1.0
C      1  0.5434530000000  0.5334270000000  0.4288380000000 1.0
C      1  0.4836190000000  0.5456540000000  0.5671140000000 1.0
C      1  0.5159160000000  0.5423200000000  0.4298280000000 1.0
C      1  0.5005370000000  0.5830930000000  0.4894880000000 1.0
C      1  0.5133220000000  0.4515340000000  0.5663030000000 1.0
C      1  0.5875900000000  0.5072040000000  0.4791280000000 1.0
C      1  0.4760930000000  0.5797170000000  0.4748080000000 1.0
C      1  0.5028630000000  0.4848310000000  0.5271110000000 1.0
C      1  0.5483720000000  0.4503190000000  0.5134410000000 1.0
C      1  0.5662020000000  0.5038490000000  0.5546460000000 1.0
C      1  0.4559660000000  0.5495380000000  0.5585120000000 1.0
C      1  0.4447170000000  0.5333000000000  0.4720870000000 1.0
C      1  0.4194720000000  0.4758180000000  0.5244720000000 1.0
C      1  0.5182420000000  0.5164740000000  0.4837690000000 1.0
C      1  0.4664180000000  0.5770660000000  0.5193220000000 1.0
C      1  0.4343090000000  0.4599440000000  0.5435900000000 1.0
C      1  0.4285110000000  0.5491660000000  0.5166130000000 1.0
C      1  0.4734920000000  0.4334840000000  0.5449950000000 1.0
C      1  0.4750080000000  0.5206990000000  0.5791090000000 1.0
C      1  0.5264260000000  0.5274150000000  0.5679080000000 1.0
C      1  0.4363500000000  0.5559720000000  0.4899320000000 1.0
C      1  0.5076360000000  0.5612700000000  0.4492600000000 1.0
C      1  0.5273690000000  0.4415300000000  0.4699980000000 1.0
C      1  0.4130210000000  0.5250750000000  0.5190500000000 1.0
C      1  0.4666650000000  0.4908960000000  0.4400420000000 1.0
C      1  0.5665970000000  0.4634540000000  0.5323750000000 1.0
C      1  0.4956570000000  0.5795590000000  0.5178210000000 1.0
C      1  0.5848250000000  0.4812060000000  0.5192400000000 1.0
C      1  0.5436200000000  0.4699720000000  0.4323660000000 1.0
C      1  0.5745180000000  0.5068240000000  0.4539570000000 1.0
C      1  0.5054610000000  0.4964480000000  0.4139190000000 1.0
C      1  0.4703430000000  0.5202040000000  0.4318160000000 1.0
C      1  0.4278200000000  0.4823080000000  0.4727090000000 1.0
C      1  0.4438590000000  0.4731030000000  0.4503400000000 1.0
C      1  0.4557190000000  0.5764170000000  0.4929190000000 1.0
C      1  0.5318150000000  0.5044270000000  0.5061080000000 1.0
C      1  0.4478720000000  0.5239710000000  0.5699040000000 1.0
C      1  0.5258860000000  0.4495370000000  0.4410890000000 1.0
C      1  0.4046250000000  0.5166580000000  0.4939850000000 1.0
C      1  0.4842670000000  0.4506930000000  0.5663650000000 1.0
C      1  0.5346230000000  0.4280280000000  0.5240320000000 1.0
END
