TITL C-101241-5586-5 -1616.53884198249 125000 -833.858448250002 0 0 121 (C1) n - 1
REM
REM in /rds/project/t2_vol4/rds-t2-cs072/BORA/CARBON/from-Arr/AIRSS/Generating-Clusters/GAP-ML-2020/Only-C1/SD-CG/HFTN-CG
REM
REM
REM
REM
REM
REM ./C.cell (11c1c37f851c82e70ff6c80c92926a4b)
REM AIRSS Version 0.9.1 bugfix July 2018 build 013d7b7c2542+ Fri, 06 Jul 2018 19:26:36 +0100
REM compiler GCC version 9.3.0
REM options -cpp -mtune=generic -march=x86-64 -g -O0
REM seed -451017168 1029595891 2100671828 -147066431 504204318 548538741 -1482168752 -1240962853 -846869957 2009044097 -1311884075 952971344 441157687 -1439363885 -1479393675 -2112152827 -1009541381 2060921483 2069206218 -1781498817 -1991046265 358573060 1201660029 -1169984780 -1343726928 222931527 -816561458 1480626494 823149801 -342860429 2030899729 -1444022490 562162996
REM
CELL 1.54180   50.00000   50.00000   50.00000   90.00000   90.00000   90.00000
LATT -1
SFAC C  
C      1  0.4932940000000  0.4627130000000  0.5553550000000 1.0
C      1  0.4904930000000  0.5266500000000  0.5971630000000 1.0
C      1  0.5609970000000  0.4922220000000  0.4478290000000 1.0
C      1  0.5619340000000  0.5405960000000  0.5627960000000 1.0
C      1  0.5377290000000  0.4377610000000  0.5557100000000 1.0
C      1  0.4895550000000  0.4217660000000  0.5483240000000 1.0
C      1  0.5324360000000  0.4690390000000  0.4100520000000 1.0
C      1  0.4697550000000  0.4210770000000  0.4553020000000 1.0
C      1  0.4929940000000  0.5668510000000  0.4339590000000 1.0
C      1  0.4811750000000  0.5460510000000  0.5312360000000 1.0
C      1  0.4653080000000  0.4927080000000  0.5815200000000 1.0
C      1  0.5096450000000  0.4378970000000  0.5596700000000 1.0
C      1  0.5313310000000  0.5335050000000  0.5124920000000 1.0
C      1  0.4332010000000  0.5481410000000  0.4483830000000 1.0
C      1  0.5459070000000  0.5333140000000  0.5848410000000 1.0
C      1  0.5609020000000  0.5162540000000  0.4641620000000 1.0
C      1  0.5255580000000  0.4240390000000  0.4346770000000 1.0
C      1  0.4666510000000  0.5216840000000  0.5787550000000 1.0
C      1  0.5045750000000  0.5483090000000  0.5095740000000 1.0
C      1  0.4312950000000  0.5741330000000  0.4813610000000 1.0
C      1  0.4736900000000  0.5810910000000  0.4512670000000 1.0
C      1  0.4907490000000  0.4821710000000  0.5777270000000 1.0
C      1  0.4644040000000  0.4180190000000  0.4839450000000 1.0
C      1  0.5369600000000  0.4206920000000  0.4817910000000 1.0
C      1  0.4644500000000  0.4834150000000  0.4642560000000 1.0
C      1  0.4574670000000  0.5069180000000  0.4235650000000 1.0
C      1  0.4433280000000  0.5218060000000  0.4451180000000 1.0
C      1  0.5530830000000  0.4834600000000  0.5815830000000 1.0
C      1  0.5593620000000  0.5436480000000  0.4566560000000 1.0
C      1  0.5522690000000  0.4596210000000  0.5674100000000 1.0
C      1  0.4887980000000  0.4087410000000  0.4968830000000 1.0
C      1  0.4132410000000  0.5037280000000  0.5356010000000 1.0
C      1  0.5836530000000  0.4754680000000  0.5011090000000 1.0
C      1  0.4699090000000  0.5048530000000  0.5301910000000 1.0
C      1  0.4914000000000  0.5357290000000  0.4862710000000 1.0
C      1  0.4258840000000  0.5040780000000  0.5614590000000 1.0
C      1  0.4200350000000  0.4783370000000  0.4955860000000 1.0
C      1  0.4493400000000  0.4770040000000  0.5263000000000 1.0
C      1  0.5489700000000  0.5618350000000  0.5489700000000 1.0
C      1  0.5105180000000  0.4110660000000  0.4783590000000 1.0
C      1  0.5767780000000  0.4710290000000  0.4521030000000 1.0
C      1  0.5377000000000  0.5053160000000  0.5905640000000 1.0
C      1  0.5953820000000  0.5126450000000  0.5335100000000 1.0
C      1  0.5089590000000  0.5042400000000  0.5848190000000 1.0
C      1  0.4943410000000  0.5406370000000  0.4214580000000 1.0
C      1  0.4628380000000  0.5851430000000  0.5172890000000 1.0
C      1  0.4981820000000  0.4988390000000  0.5190500000000 1.0
C      1  0.4166160000000  0.5222410000000  0.5140590000000 1.0
C      1  0.4970370000000  0.5086570000000  0.4910820000000 1.0
C      1  0.4806510000000  0.4890130000000  0.4395350000000 1.0
C      1  0.5350200000000  0.5482020000000  0.4422900000000 1.0
C      1  0.4853140000000  0.5925130000000  0.5012320000000 1.0
C      1  0.4224620000000  0.5063390000000  0.4893950000000 1.0
C      1  0.4328750000000  0.5492160000000  0.5526510000000 1.0
C      1  0.5178270000000  0.5874770000000  0.4689010000000 1.0
C      1  0.4824210000000  0.5246310000000  0.5526740000000 1.0
C      1  0.5720200000000  0.4463580000000  0.4630230000000 1.0
C      1  0.5051920000000  0.5813000000000  0.5432630000000 1.0
C      1  0.4665710000000  0.4423900000000  0.5494460000000 1.0
C      1  0.4471850000000  0.5731310000000  0.4563290000000 1.0
C      1  0.4201000000000  0.4792100000000  0.5234880000000 1.0
C      1  0.5087190000000  0.4798550000000  0.3957890000000 1.0
C      1  0.4482110000000  0.5102680000000  0.4718760000000 1.0
C      1  0.5247930000000  0.5708670000000  0.5613220000000 1.0
C      1  0.5322140000000  0.5843640000000  0.4936140000000 1.0
C      1  0.4835980000000  0.4598300000000  0.4309710000000 1.0
C      1  0.5696670000000  0.5626260000000  0.4739580000000 1.0
C      1  0.4788040000000  0.5211730000000  0.4068360000000 1.0
C      1  0.5188580000000  0.4996250000000  0.4757570000000 1.0
C      1  0.5989550000000  0.4873730000000  0.5206220000000 1.0
C      1  0.5121030000000  0.5002260000000  0.4448880000000 1.0
C      1  0.5426170000000  0.4650760000000  0.5033660000000 1.0
C      1  0.4419780000000  0.4804680000000  0.5716600000000 1.0
C      1  0.4992990000000  0.4506510000000  0.4543950000000 1.0
C      1  0.5544240000000  0.5504030000000  0.5218860000000 1.0
C      1  0.5508850000000  0.4357050000000  0.5037900000000 1.0
C      1  0.4980160000000  0.4535890000000  0.4057510000000 1.0
C      1  0.4320320000000  0.5470050000000  0.5237350000000 1.0
C      1  0.4989900000000  0.4717100000000  0.5260640000000 1.0
C      1  0.5225710000000  0.4408360000000  0.4121720000000 1.0
C      1  0.5441560000000  0.5121850000000  0.4893720000000 1.0
C      1  0.5569670000000  0.4898400000000  0.5075690000000 1.0
C      1  0.5698840000000  0.5265010000000  0.5372990000000 1.0
C      1  0.5761220000000  0.4482440000000  0.4908600000000 1.0
C      1  0.4382690000000  0.5730090000000  0.5090190000000 1.0
C      1  0.4469660000000  0.4372410000000  0.4979930000000 1.0
C      1  0.4767770000000  0.5740940000000  0.5397600000000 1.0
C      1  0.5233320000000  0.5116870000000  0.5329470000000 1.0
C      1  0.4594890000000  0.4439010000000  0.4395900000000 1.0
C      1  0.4537620000000  0.4487000000000  0.5236080000000 1.0
C      1  0.5004490000000  0.4200610000000  0.4523550000000 1.0
C      1  0.5347850000000  0.4803900000000  0.4372930000000 1.0
C      1  0.5657540000000  0.4833350000000  0.5555070000000 1.0
C      1  0.4435130000000  0.4629050000000  0.4567190000000 1.0
C      1  0.4385500000000  0.5289380000000  0.5694630000000 1.0
C      1  0.4421080000000  0.4834990000000  0.4147110000000 1.0
C      1  0.5252030000000  0.4026360000000  0.5265730000000 1.0
C      1  0.4592410000000  0.5307240000000  0.5166530000000 1.0
C      1  0.5525730000000  0.5011060000000  0.5345930000000 1.0
C      1  0.5942560000000  0.4884520000000  0.5479800000000 1.0
C      1  0.5032900000000  0.5487810000000  0.6043160000000 1.0
C      1  0.4838030000000  0.4630370000000  0.4774980000000 1.0
C      1  0.4457020000000  0.4538860000000  0.5655830000000 1.0
C      1  0.5239640000000  0.4712700000000  0.4834380000000 1.0
C      1  0.4314390000000  0.4560480000000  0.4824330000000 1.0
C      1  0.5194510000000  0.5720680000000  0.4447530000000 1.0
C      1  0.5432290000000  0.4232870000000  0.5302330000000 1.0
C      1  0.4897580000000  0.5926990000000  0.4731190000000 1.0
C      1  0.5101670000000  0.5814900000000  0.5136270000000 1.0
C      1  0.4975730000000  0.4068540000000  0.5246410000000 1.0
C      1  0.5277610000000  0.4584320000000  0.4574120000000 1.0
C      1  0.4163280000000  0.5519440000000  0.4709330000000 1.0
C      1  0.5243080000000  0.5539030000000  0.5862980000000 1.0
C      1  0.4377490000000  0.4604080000000  0.4276350000000 1.0
C      1  0.5448040000000  0.4333100000000  0.4566520000000 1.0
C      1  0.5570410000000  0.5689820000000  0.4970400000000 1.0
C      1  0.5014830000000  0.4620760000000  0.4998000000000 1.0
C      1  0.5167110000000  0.5279620000000  0.4334180000000 1.0
C      1  0.4950490000000  0.5023370000000  0.3935740000000 1.0
C      1  0.5092890000000  0.5178640000000  0.5573850000000 1.0
C      1  0.4644920000000  0.5293420000000  0.4885260000000 1.0
END
