TITL C-105718-8646-1 43.5550929144 125000 -566.67931300977 0 0 82 (C1) n - 1
REM
REM in /rds/project/t2_vol4/rds-t2-cs072/BORA/CARBON/from-Arr/AIRSS/Generating-Clusters/GAP-ML-2020/Only-C1/SD-CG/HFTN-CG
REM
REM
REM
REM
REM
REM ./C.cell (11c1c37f851c82e70ff6c80c92926a4b)
REM AIRSS Version 0.9.1 bugfix July 2018 build 013d7b7c2542+ Fri, 06 Jul 2018 19:26:36 +0100
REM compiler GCC version 9.3.0
REM options -cpp -mtune=generic -march=x86-64 -g -O0
REM seed -919665319 1694756001 2057436088 -452585219 1287326041 -166048619 2099337276 168103963 -1224393033 -905777155 -1922458867 1740188016 1783793896 -1430308579 684894410 473343950 -2113798906 1483482487 -589050678 1984331941 846756856 550593729 -1489575338 -1144759461 -473899269 112237216 36313673 -1118048218 499375434 1176170766 -233038840 -1025177916 313225948
REM
CELL 1.54180   50.00000   50.00000   50.00000   90.00000   90.00000   90.00000
LATT -1
SFAC C  
C      1  0.4520710000000  0.5172030000000  0.5043710000000 1.0
C      1  0.5696350000000  0.5523990000000  0.4960150000000 1.0
C      1  0.5193530000000  0.4660870000000  0.4327330000000 1.0
C      1  0.5230130000000  0.4794490000000  0.4796060000000 1.0
C      1  0.5493330000000  0.5498740000000  0.5374560000000 1.0
C      1  0.5732880000000  0.5426870000000  0.5223900000000 1.0
C      1  0.5751900000000  0.5313630000000  0.4771210000000 1.0
C      1  0.4654300000000  0.5714150000000  0.5118810000000 1.0
C      1  0.4948700000000  0.5112400000000  0.5721430000000 1.0
C      1  0.4841390000000  0.4826090000000  0.5033820000000 1.0
C      1  0.4771810000000  0.4650620000000  0.4310790000000 1.0
C      1  0.4830480000000  0.4263770000000  0.5061230000000 1.0
C      1  0.5086000000000  0.5754710000000  0.5307810000000 1.0
C      1  0.4732430000000  0.4345400000000  0.5327030000000 1.0
C      1  0.4933940000000  0.5148290000000  0.4726020000000 1.0
C      1  0.4738410000000  0.4316000000000  0.4790770000000 1.0
C      1  0.4614190000000  0.5364270000000  0.4290100000000 1.0
C      1  0.5753730000000  0.4844610000000  0.4799900000000 1.0
C      1  0.5163120000000  0.5146740000000  0.5189950000000 1.0
C      1  0.5365690000000  0.5716480000000  0.5243560000000 1.0
C      1  0.4981190000000  0.4327100000000  0.4632180000000 1.0
C      1  0.5057230000000  0.5600980000000  0.4885720000000 1.0
C      1  0.4442400000000  0.5116010000000  0.5518570000000 1.0
C      1  0.5854770000000  0.5088830000000  0.4914820000000 1.0
C      1  0.5108980000000  0.4859450000000  0.5741510000000 1.0
C      1  0.4973710000000  0.4392470000000  0.5493730000000 1.0
C      1  0.5430920000000  0.5040710000000  0.5125960000000 1.0
C      1  0.5294780000000  0.5613860000000  0.4744980000000 1.0
C      1  0.4714210000000  0.5285620000000  0.4866300000000 1.0
C      1  0.5582280000000  0.4924040000000  0.4587930000000 1.0
C      1  0.4745870000000  0.5238030000000  0.4085760000000 1.0
C      1  0.4234120000000  0.5497510000000  0.4959920000000 1.0
C      1  0.5382250000000  0.4774960000000  0.5035820000000 1.0
C      1  0.5210820000000  0.4376060000000  0.5311590000000 1.0
C      1  0.5279510000000  0.5312340000000  0.5442090000000 1.0
C      1  0.4509360000000  0.5312450000000  0.5326410000000 1.0
C      1  0.5327620000000  0.5394370000000  0.4554280000000 1.0
C      1  0.4995670000000  0.4877210000000  0.5263770000000 1.0
C      1  0.5216970000000  0.4319280000000  0.4796650000000 1.0
C      1  0.5114850000000  0.4269260000000  0.5058470000000 1.0
C      1  0.4521410000000  0.4481000000000  0.4708830000000 1.0
C      1  0.4984810000000  0.4468480000000  0.4395100000000 1.0
C      1  0.5451710000000  0.4467540000000  0.4724510000000 1.0
C      1  0.4680260000000  0.5027080000000  0.5644370000000 1.0
C      1  0.5382650000000  0.4705580000000  0.4549740000000 1.0
C      1  0.5721610000000  0.4717030000000  0.5395760000000 1.0
C      1  0.4999860000000  0.5309690000000  0.4971300000000 1.0
C      1  0.4965450000000  0.4622420000000  0.5663720000000 1.0
C      1  0.4532060000000  0.4652790000000  0.4473770000000 1.0
C      1  0.4135060000000  0.4996320000000  0.5131290000000 1.0
C      1  0.4286840000000  0.4643970000000  0.5332720000000 1.0
C      1  0.4288650000000  0.5122190000000  0.4629490000000 1.0
C      1  0.4969700000000  0.4876730000000  0.4793270000000 1.0
C      1  0.4240230000000  0.5204300000000  0.4928100000000 1.0
C      1  0.4931500000000  0.5779450000000  0.5069410000000 1.0
C      1  0.4663150000000  0.5553430000000  0.5353210000000 1.0
C      1  0.5538880000000  0.4592970000000  0.5583800000000 1.0
C      1  0.4481310000000  0.4461760000000  0.5368360000000 1.0
C      1  0.5313450000000  0.4761640000000  0.5575890000000 1.0
C      1  0.4971840000000  0.5131370000000  0.4217480000000 1.0
C      1  0.5461140000000  0.5685090000000  0.4959780000000 1.0
C      1  0.5850480000000  0.5166130000000  0.5197880000000 1.0
C      1  0.5617210000000  0.4605930000000  0.4937230000000 1.0
C      1  0.5230890000000  0.4696910000000  0.5278960000000 1.0
C      1  0.4598740000000  0.5496940000000  0.4693710000000 1.0
C      1  0.5042120000000  0.5301770000000  0.4482140000000 1.0
C      1  0.4260440000000  0.4933080000000  0.5391880000000 1.0
C      1  0.4423270000000  0.5334190000000  0.4500770000000 1.0
C      1  0.4926320000000  0.5583820000000  0.5482920000000 1.0
C      1  0.4986710000000  0.4846990000000  0.4230510000000 1.0
C      1  0.4163300000000  0.4719300000000  0.5062820000000 1.0
C      1  0.5690120000000  0.4498070000000  0.5202210000000 1.0
C      1  0.5562140000000  0.5224340000000  0.4574090000000 1.0
C      1  0.4349030000000  0.4848490000000  0.4604320000000 1.0
C      1  0.5057710000000  0.5359050000000  0.5613080000000 1.0
C      1  0.4571200000000  0.4884170000000  0.5043620000000 1.0
C      1  0.5687650000000  0.4982870000000  0.5329700000000 1.0
C      1  0.4462310000000  0.5648670000000  0.4913790000000 1.0
C      1  0.4805900000000  0.5505850000000  0.4471350000000 1.0
C      1  0.4370800000000  0.4696850000000  0.4861620000000 1.0
C      1  0.4815510000000  0.4815950000000  0.5509690000000 1.0
C      1  0.5496060000000  0.4375110000000  0.5383170000000 1.0
END
