TITL C-105722-8532-4 881.338877591817 125000 -911.320055142143 0 0 130 (C1) n - 1
REM
REM in /rds/project/t2_vol4/rds-t2-cs072/BORA/CARBON/from-Arr/AIRSS/Generating-Clusters/GAP-ML-2020/Only-C1/SD-CG/HFTN-CG
REM
REM
REM
REM
REM
REM ./C.cell (11c1c37f851c82e70ff6c80c92926a4b)
REM AIRSS Version 0.9.1 bugfix July 2018 build 013d7b7c2542+ Fri, 06 Jul 2018 19:26:36 +0100
REM compiler GCC version 9.3.0
REM options -cpp -mtune=generic -march=x86-64 -g -O0
REM seed 829815591 889174706 -484087420 -674340205 -1066844492 1468962207 1829005269 -650221724 -1560654507 -539086853 2043008406 1113245967 1826757781 1641849029 -418986158 -991794449 -1563528763 224658550 -1818660664 2003655068 -1641950872 2043972749 -1324616191 -2019927063 458053582 -892755602 -390793930 1007227981 1291607924 -798030242 2000512781 638977961 -1255788880
REM
CELL 1.54180   50.00000   50.00000   50.00000   90.00000   90.00000   90.00000
LATT -1
SFAC C  
C      1  0.4996160000000  0.5432930000000  0.4357650000000 1.0
C      1  0.5320230000000  0.5835840000000  0.5271820000000 1.0
C      1  0.5228310000000  0.4162970000000  0.4635380000000 1.0
C      1  0.5085300000000  0.5433420000000  0.4851480000000 1.0
C      1  0.5242280000000  0.5885190000000  0.4989830000000 1.0
C      1  0.5656910000000  0.4746270000000  0.4287240000000 1.0
C      1  0.4797270000000  0.5234180000000  0.5215170000000 1.0
C      1  0.4898970000000  0.5839550000000  0.5505890000000 1.0
C      1  0.5069060000000  0.4479080000000  0.5013650000000 1.0
C      1  0.5943200000000  0.5476910000000  0.5032020000000 1.0
C      1  0.4970840000000  0.4239890000000  0.4543220000000 1.0
C      1  0.5016300000000  0.4972240000000  0.5895190000000 1.0
C      1  0.4502510000000  0.5639330000000  0.5634460000000 1.0
C      1  0.4437840000000  0.4902590000000  0.5788180000000 1.0
C      1  0.5207520000000  0.4876490000000  0.4613800000000 1.0
C      1  0.4615270000000  0.4687740000000  0.5840520000000 1.0
C      1  0.4162530000000  0.5462220000000  0.5240700000000 1.0
C      1  0.4220280000000  0.4845060000000  0.5602450000000 1.0
C      1  0.4755420000000  0.4822320000000  0.4856120000000 1.0
C      1  0.5615480000000  0.5013730000000  0.5381340000000 1.0
C      1  0.5397060000000  0.4423740000000  0.4599460000000 1.0
C      1  0.6008130000000  0.5312410000000  0.4664810000000 1.0
C      1  0.5898420000000  0.5576360000000  0.4761720000000 1.0
C      1  0.5943780000000  0.4721990000000  0.4937700000000 1.0
C      1  0.5821430000000  0.5198360000000  0.4479450000000 1.0
C      1  0.5316350000000  0.5047800000000  0.4188670000000 1.0
C      1  0.4236580000000  0.5042230000000  0.4648280000000 1.0
C      1  0.5444010000000  0.5083600000000  0.5627560000000 1.0
C      1  0.4059780000000  0.4788830000000  0.5058280000000 1.0
C      1  0.4524440000000  0.4535270000000  0.5403570000000 1.0
C      1  0.6046510000000  0.5217070000000  0.4940700000000 1.0
C      1  0.4587590000000  0.4315060000000  0.5169680000000 1.0
C      1  0.4773380000000  0.5635740000000  0.4404640000000 1.0
C      1  0.4627390000000  0.5281130000000  0.4722450000000 1.0
C      1  0.5172290000000  0.4399390000000  0.5801760000000 1.0
C      1  0.4872400000000  0.4730030000000  0.5952260000000 1.0
C      1  0.4551400000000  0.5148060000000  0.4248190000000 1.0
C      1  0.4311050000000  0.4395640000000  0.5024160000000 1.0
C      1  0.5753230000000  0.4260100000000  0.5078360000000 1.0
C      1  0.4366680000000  0.5368740000000  0.4248890000000 1.0
C      1  0.5845010000000  0.4593730000000  0.5359920000000 1.0
C      1  0.5513300000000  0.5822210000000  0.4903190000000 1.0
C      1  0.5325410000000  0.4618190000000  0.5697070000000 1.0
C      1  0.5191760000000  0.5544770000000  0.5686390000000 1.0
C      1  0.4484510000000  0.5576510000000  0.4427280000000 1.0
C      1  0.5646380000000  0.5044250000000  0.4670810000000 1.0
C      1  0.4983870000000  0.4806950000000  0.5279240000000 1.0
C      1  0.5720960000000  0.4756430000000  0.4753490000000 1.0
C      1  0.4524150000000  0.5068170000000  0.4532640000000 1.0
C      1  0.5053860000000  0.4190400000000  0.5638990000000 1.0
C      1  0.5906300000000  0.4477530000000  0.5109670000000 1.0
C      1  0.4413540000000  0.5509570000000  0.4713080000000 1.0
C      1  0.5652010000000  0.5704750000000  0.4687800000000 1.0
C      1  0.4530480000000  0.4888210000000  0.5016430000000 1.0
C      1  0.5660080000000  0.4581570000000  0.4529840000000 1.0
C      1  0.5283450000000  0.4897230000000  0.5774020000000 1.0
C      1  0.4766340000000  0.4138380000000  0.5347020000000 1.0
C      1  0.5062450000000  0.4073930000000  0.5358400000000 1.0
C      1  0.4184570000000  0.5305970000000  0.4780700000000 1.0
C      1  0.5387620000000  0.4759990000000  0.4213500000000 1.0
C      1  0.5172510000000  0.5782380000000  0.5507110000000 1.0
C      1  0.4719800000000  0.5872640000000  0.5282900000000 1.0
C      1  0.4619220000000  0.4463610000000  0.5665730000000 1.0
C      1  0.5027890000000  0.5139280000000  0.4227430000000 1.0
C      1  0.4790140000000  0.4324380000000  0.4955430000000 1.0
C      1  0.5558950000000  0.4726300000000  0.5278730000000 1.0
C      1  0.5253330000000  0.4022400000000  0.5159300000000 1.0
C      1  0.4730470000000  0.4861550000000  0.4570470000000 1.0
C      1  0.5334370000000  0.5338110000000  0.5570230000000 1.0
C      1  0.5200740000000  0.5636930000000  0.4415890000000 1.0
C      1  0.4547870000000  0.5170470000000  0.5816610000000 1.0
C      1  0.4134910000000  0.4553280000000  0.5196600000000 1.0
C      1  0.5578850000000  0.5741290000000  0.5176290000000 1.0
C      1  0.4626070000000  0.5157100000000  0.4986500000000 1.0
C      1  0.5494400000000  0.4705090000000  0.4976480000000 1.0
C      1  0.4718920000000  0.4275530000000  0.4676650000000 1.0
C      1  0.4760320000000  0.4763890000000  0.4101770000000 1.0
C      1  0.4253830000000  0.4491800000000  0.4489580000000 1.0
C      1  0.6022850000000  0.4750300000000  0.5493590000000 1.0
C      1  0.4236910000000  0.4599880000000  0.5451830000000 1.0
C      1  0.4261480000000  0.4820340000000  0.4851950000000 1.0
C      1  0.6013150000000  0.4973730000000  0.5069340000000 1.0
C      1  0.5016750000000  0.4497680000000  0.6000710000000 1.0
C      1  0.5636440000000  0.5395600000000  0.4321340000000 1.0
C      1  0.4997010000000  0.5774950000000  0.4845350000000 1.0
C      1  0.5927080000000  0.4971230000000  0.5355170000000 1.0
C      1  0.4766970000000  0.4228270000000  0.5625700000000 1.0
C      1  0.4735890000000  0.4622760000000  0.4360570000000 1.0
C      1  0.4604460000000  0.4809060000000  0.5293520000000 1.0
C      1  0.4106360000000  0.5056730000000  0.5453950000000 1.0
C      1  0.5485910000000  0.4209680000000  0.5032410000000 1.0
C      1  0.5770450000000  0.5003300000000  0.4252590000000 1.0
C      1  0.4971050000000  0.5027870000000  0.4522810000000 1.0
C      1  0.4292240000000  0.4533110000000  0.4769720000000 1.0
C      1  0.5473740000000  0.5557890000000  0.4500670000000 1.0
C      1  0.5294730000000  0.4030920000000  0.4884800000000 1.0
C      1  0.4536400000000  0.4431220000000  0.4505770000000 1.0
C      1  0.5230810000000  0.4614600000000  0.4434920000000 1.0
C      1  0.4138730000000  0.5216810000000  0.4256830000000 1.0
C      1  0.5097280000000  0.4545980000000  0.5308650000000 1.0
C      1  0.4917300000000  0.5304010000000  0.4639060000000 1.0
C      1  0.5015480000000  0.4778790000000  0.4985690000000 1.0
C      1  0.4079720000000  0.5281560000000  0.5040070000000 1.0
C      1  0.4475450000000  0.5708810000000  0.4926860000000 1.0
C      1  0.4982940000000  0.4472280000000  0.4392210000000 1.0
C      1  0.5281750000000  0.4895870000000  0.4902180000000 1.0
C      1  0.4321170000000  0.5682050000000  0.5170300000000 1.0
C      1  0.4806160000000  0.4990880000000  0.5376510000000 1.0
C      1  0.5382000000000  0.5073740000000  0.4505570000000 1.0
C      1  0.5048140000000  0.5337880000000  0.5132050000000 1.0
C      1  0.5362200000000  0.4453300000000  0.4905820000000 1.0
C      1  0.4199770000000  0.5319700000000  0.5489630000000 1.0
C      1  0.4774000000000  0.5033790000000  0.4093120000000 1.0
C      1  0.4398300000000  0.5380140000000  0.5682690000000 1.0
C      1  0.5716860000000  0.5493160000000  0.5199540000000 1.0
C      1  0.5360990000000  0.4572500000000  0.5420850000000 1.0
C      1  0.5564820000000  0.5187030000000  0.4140650000000 1.0
C      1  0.4105760000000  0.4696030000000  0.4364480000000 1.0
C      1  0.4472040000000  0.5776670000000  0.5385080000000 1.0
C      1  0.5540700000000  0.5237470000000  0.5183450000000 1.0
C      1  0.4022550000000  0.5035720000000  0.5180050000000 1.0
C      1  0.4840140000000  0.5208550000000  0.5872130000000 1.0
C      1  0.4078430000000  0.4969320000000  0.4390700000000 1.0
C      1  0.4937220000000  0.5476310000000  0.5809930000000 1.0
C      1  0.4736490000000  0.5821240000000  0.4995470000000 1.0
C      1  0.5471680000000  0.5153880000000  0.4902160000000 1.0
C      1  0.4768760000000  0.5678580000000  0.5708600000000 1.0
C      1  0.5344230000000  0.5348240000000  0.4730800000000 1.0
C      1  0.5283560000000  0.5320960000000  0.5287740000000 1.0
C      1  0.4982480000000  0.5785390000000  0.4544620000000 1.0
END
