TITL C-105673-560-5 -22.1620735618989 125000 -36.3841346236251 0 0 6 (Cs) n - 1
REM
REM in /rds/project/t2_vol4/rds-t2-cs072/BORA/CARBON/from-Arr/AIRSS/Generating-Clusters/GAP-ML-2020/Only-C1/SD-CG/HFTN-CG
REM
REM
REM
REM
REM
REM ./C.cell (11c1c37f851c82e70ff6c80c92926a4b)
REM AIRSS Version 0.9.1 bugfix July 2018 build 013d7b7c2542+ Fri, 06 Jul 2018 19:26:36 +0100
REM compiler GCC version 9.3.0
REM options -cpp -mtune=generic -march=x86-64 -g -O0
REM seed -1441749590 -1390600782 727133007 -1496409357 1998537670 1305328880 2138150523 -1044436181 255558490 410581531 974212471 -75602638 -2005026258 42996580 1602891851 1555567478 283800953 -950374918 952699571 -407940821 1935687838 166714202 -13625255 1272938869 -1727002118 971796747 1303632800 1034923937 976311517 -902961766 846448277 1028250119 399862453
REM
CELL 1.54180   50.00000   50.00000   50.00000   90.00000   90.00000   90.00000
LATT -1
SFAC C  
C      1  0.4910660000000  0.4990900000000  0.5070910000000 1.0
C      1  0.4510500000000  0.5251980000000  0.5011730000000 1.0
C      1  0.4673020000000  0.5080530000000  0.5117420000000 1.0
C      1  0.5423880000000  0.4971540000000  0.4973060000000 1.0
C      1  0.5326180000000  0.4788550000000  0.4826480000000 1.0
C      1  0.5155760000000  0.4916510000000  0.5000400000000 1.0
END
