TITL C-102206-7135-10 -0.0202476691780212 125000 -60.6677456518223 0 0 10 (C1) n - 1
REM
REM in /rds/project/t2_vol4/rds-t2-cs072/BORA/CARBON/from-Arr/AIRSS/Generating-Clusters/GAP-ML-2020/Only-C1/SD-CG/HFTN-CG
REM
REM
REM
REM
REM
REM ./C.cell (11c1c37f851c82e70ff6c80c92926a4b)
REM AIRSS Version 0.9.1 bugfix July 2018 build 013d7b7c2542+ Fri, 06 Jul 2018 19:26:36 +0100
REM compiler GCC version 9.3.0
REM options -cpp -mtune=generic -march=x86-64 -g -O0
REM seed -1258339495 1797737885 1386226828 331031780 72975261 1362881675 1341253081 -839326583 -2008410031 1724560115 -1552435036 644458730 -177021975 1809098456 -1957905913 -1869109517 -1172269510 -107820571 955394067 1110353131 -844308254 -1358798079 -420862041 73449972 -302492646 -665811849 1617806748 -1081686408 -1522055999 -375726160 1276166319 -1973867925 -926824364
REM
CELL 1.54180   50.00000   50.00000   50.00000   90.00000   90.00000   90.00000
LATT -1
SFAC C  
C      1  0.5087790000000  0.4569560000000  0.5011700000000 1.0
C      1  0.5226470000000  0.5254510000000  0.5103350000000 1.0
C      1  0.4750430000000  0.4809740000000  0.5369700000000 1.0
C      1  0.4997750000000  0.5173840000000  0.4663590000000 1.0
C      1  0.5120880000000  0.5105560000000  0.4896810000000 1.0
C      1  0.5091610000000  0.4828940000000  0.4960700000000 1.0
C      1  0.4868200000000  0.4715510000000  0.5122800000000 1.0
C      1  0.5340380000000  0.5402960000000  0.5268270000000 1.0
C      1  0.4894910000000  0.5247370000000  0.4449550000000 1.0
C      1  0.4621580000000  0.4892010000000  0.5153540000000 1.0
END
