TITL C-105724-8823-8 22.7159800135836 125000 -524.589949699619 0 0 74 (C1) n - 1
REM
REM in /rds/project/t2_vol4/rds-t2-cs072/BORA/CARBON/from-Arr/AIRSS/Generating-Clusters/GAP-ML-2020/Only-C1/SD-CG/HFTN-CG
REM
REM
REM
REM
REM
REM ./C.cell (11c1c37f851c82e70ff6c80c92926a4b)
REM AIRSS Version 0.9.1 bugfix July 2018 build 013d7b7c2542+ Fri, 06 Jul 2018 19:26:36 +0100
REM compiler GCC version 9.3.0
REM options -cpp -mtune=generic -march=x86-64 -g -O0
REM seed 2094802825 327279175 -175919529 1203810711 1784264460 1410588707 2134709582 436767865 210503637 -1884542397 1619214887 1168302189 -1553239608 462680801 -1953531049 -2132542693 82686779 524098178 -56436200 -701165918 1298017027 1636909453 -2112300802 -1031597550 509585441 -428958076 1264670026 -1099637224 -803179100 13728571 98111218 -2109366034 -1708912740
REM
CELL 1.54180   50.00000   50.00000   50.00000   90.00000   90.00000   90.00000
LATT -1
SFAC C  
C      1  0.5078270000000  0.4306350000000  0.4841090000000 1.0
C      1  0.4678420000000  0.4430850000000  0.4593170000000 1.0
C      1  0.5057160000000  0.5391060000000  0.5633720000000 1.0
C      1  0.5502390000000  0.5464140000000  0.4781930000000 1.0
C      1  0.4980590000000  0.5254540000000  0.5089170000000 1.0
C      1  0.5823870000000  0.4828280000000  0.5122070000000 1.0
C      1  0.5011550000000  0.4852100000000  0.4711800000000 1.0
C      1  0.5360700000000  0.4791710000000  0.4405250000000 1.0
C      1  0.4915130000000  0.4834600000000  0.4271590000000 1.0
C      1  0.4241540000000  0.4891080000000  0.4797110000000 1.0
C      1  0.4274220000000  0.4947600000000  0.5281880000000 1.0
C      1  0.5379400000000  0.4742140000000  0.5603840000000 1.0
C      1  0.5213100000000  0.5069160000000  0.5062360000000 1.0
C      1  0.4546750000000  0.4477140000000  0.5295770000000 1.0
C      1  0.5714940000000  0.4524020000000  0.4458510000000 1.0
C      1  0.5649590000000  0.5307440000000  0.5253160000000 1.0
C      1  0.4518190000000  0.5639740000000  0.4975400000000 1.0
C      1  0.4845870000000  0.4849650000000  0.4960290000000 1.0
C      1  0.5265670000000  0.5612180000000  0.5207190000000 1.0
C      1  0.4189300000000  0.5318170000000  0.4950800000000 1.0
C      1  0.5277070000000  0.5476870000000  0.5478060000000 1.0
C      1  0.4621090000000  0.4327800000000  0.5056990000000 1.0
C      1  0.5361890000000  0.5037940000000  0.5630210000000 1.0
C      1  0.4529540000000  0.5538910000000  0.4705670000000 1.0
C      1  0.4855620000000  0.4961040000000  0.5697900000000 1.0
C      1  0.4764310000000  0.5268370000000  0.4387820000000 1.0
C      1  0.4326750000000  0.4640250000000  0.4912050000000 1.0
C      1  0.5152280000000  0.4625580000000  0.5693260000000 1.0
C      1  0.5245980000000  0.4975130000000  0.4788390000000 1.0
C      1  0.5476360000000  0.5275000000000  0.5486480000000 1.0
C      1  0.5079080000000  0.4685790000000  0.4464070000000 1.0
C      1  0.4887440000000  0.4671480000000  0.5662040000000 1.0
C      1  0.4648550000000  0.5146900000000  0.5620210000000 1.0
C      1  0.5747190000000  0.4568940000000  0.4733160000000 1.0
C      1  0.5013930000000  0.5590100000000  0.4736730000000 1.0
C      1  0.4170690000000  0.5049210000000  0.5030250000000 1.0
C      1  0.5294660000000  0.5651910000000  0.4700170000000 1.0
C      1  0.4641490000000  0.5560350000000  0.5408450000000 1.0
C      1  0.5465220000000  0.4558660000000  0.5396030000000 1.0
C      1  0.4738270000000  0.5657460000000  0.5154140000000 1.0
C      1  0.4961910000000  0.5109350000000  0.4279580000000 1.0
C      1  0.4400250000000  0.5146420000000  0.5459850000000 1.0
C      1  0.4312050000000  0.5345840000000  0.4694990000000 1.0
C      1  0.5295830000000  0.5906350000000  0.5125760000000 1.0
C      1  0.4504380000000  0.4427130000000  0.4824040000000 1.0
C      1  0.5807710000000  0.5122460000000  0.5114160000000 1.0
C      1  0.4351800000000  0.4674870000000  0.5204040000000 1.0
C      1  0.4969300000000  0.4418720000000  0.4597500000000 1.0
C      1  0.4550990000000  0.4597340000000  0.4422450000000 1.0
C      1  0.4534120000000  0.5076810000000  0.4389150000000 1.0
C      1  0.4785990000000  0.4478700000000  0.5465900000000 1.0
C      1  0.4893040000000  0.4259720000000  0.5060190000000 1.0
C      1  0.5611110000000  0.5220350000000  0.4655340000000 1.0
C      1  0.4391060000000  0.5421140000000  0.5370870000000 1.0
C      1  0.5861540000000  0.4812370000000  0.4834800000000 1.0
C      1  0.5556850000000  0.4629320000000  0.4286910000000 1.0
C      1  0.5065230000000  0.4848010000000  0.5148940000000 1.0
C      1  0.5272000000000  0.4378330000000  0.5278350000000 1.0
C      1  0.5334850000000  0.5889840000000  0.4869990000000 1.0
C      1  0.5660690000000  0.4601520000000  0.5191640000000 1.0
C      1  0.4307720000000  0.5501680000000  0.5116810000000 1.0
C      1  0.4632960000000  0.4820600000000  0.4306510000000 1.0
C      1  0.4778390000000  0.5409540000000  0.5599070000000 1.0
C      1  0.5100950000000  0.5118860000000  0.5714720000000 1.0
C      1  0.4994470000000  0.5548550000000  0.5047560000000 1.0
C      1  0.5326190000000  0.4340770000000  0.4991120000000 1.0
C      1  0.5419790000000  0.5017390000000  0.4572960000000 1.0
C      1  0.4328380000000  0.5086860000000  0.4584730000000 1.0
C      1  0.4756600000000  0.5108010000000  0.5016820000000 1.0
C      1  0.5585520000000  0.4462370000000  0.4951310000000 1.0
C      1  0.5814240000000  0.5104290000000  0.4818040000000 1.0
C      1  0.5511320000000  0.5483690000000  0.5072340000000 1.0
C      1  0.4785050000000  0.5498220000000  0.4575860000000 1.0
C      1  0.4993670000000  0.4334930000000  0.5319480000000 1.0
END
