TITL C-107218-8374-6 22.028404620756 125000 -861.199217324379 0 0 124 (C1) n - 1
REM
REM in /rds/project/t2_vol4/rds-t2-cs072/BORA/CARBON/from-Arr/AIRSS/Generating-Clusters/GAP-ML-2020/Only-C1/SD-CG/HFTN-CG
REM
REM
REM
REM
REM
REM ./C.cell (11c1c37f851c82e70ff6c80c92926a4b)
REM AIRSS Version 0.9.1 bugfix July 2018 build 013d7b7c2542+ Fri, 06 Jul 2018 19:26:36 +0100
REM compiler GCC version 9.3.0
REM options -cpp -mtune=generic -march=x86-64 -g -O0
REM seed -2106632779 1787489183 -211586727 -55435927 -1051740812 -1221039470 624194050 542913736 -2100126724 1132238190 1867473475 7662709 733728265 121010736 -2108357566 336919027 -862558731 -1633573329 -950397361 -1937109613 1637370744 -77904648 1933602378 1457590708 -289660285 -1971645331 -1669922298 -319371870 -282550560 1781587347 1368366403 -134839478 -1780244608
REM
CELL 1.54180   50.00000   50.00000   50.00000   90.00000   90.00000   90.00000
LATT -1
SFAC C  
C      1  0.4873240000000  0.4754700000000  0.4992560000000 1.0
C      1  0.5025070000000  0.4597100000000  0.5244630000000 1.0
C      1  0.4619090000000  0.5815120000000  0.4939750000000 1.0
C      1  0.5294450000000  0.4792260000000  0.4888260000000 1.0
C      1  0.4894650000000  0.5342330000000  0.4077480000000 1.0
C      1  0.5333580000000  0.5565690000000  0.5776070000000 1.0
C      1  0.4286230000000  0.5071250000000  0.4466450000000 1.0
C      1  0.4671260000000  0.4186030000000  0.5347480000000 1.0
C      1  0.4257250000000  0.4873070000000  0.5606680000000 1.0
C      1  0.5578930000000  0.5405520000000  0.5719030000000 1.0
C      1  0.5077810000000  0.5932040000000  0.5224140000000 1.0
C      1  0.5712080000000  0.5308750000000  0.5488850000000 1.0
C      1  0.4262900000000  0.4522830000000  0.4612470000000 1.0
C      1  0.4945120000000  0.6098990000000  0.5054470000000 1.0
C      1  0.5333300000000  0.4865140000000  0.4313970000000 1.0
C      1  0.5796960000000  0.5377390000000  0.4968650000000 1.0
C      1  0.4407620000000  0.4247920000000  0.5257870000000 1.0
C      1  0.4973300000000  0.5848280000000  0.5481730000000 1.0
C      1  0.4376320000000  0.5104830000000  0.5675270000000 1.0
C      1  0.5080820000000  0.4984450000000  0.5472720000000 1.0
C      1  0.4459260000000  0.4331020000000  0.4540440000000 1.0
C      1  0.5275290000000  0.4761560000000  0.5870210000000 1.0
C      1  0.5688470000000  0.5632700000000  0.4886520000000 1.0
C      1  0.5244580000000  0.5345100000000  0.5956990000000 1.0
C      1  0.4177260000000  0.4614040000000  0.5120540000000 1.0
C      1  0.5365030000000  0.4290160000000  0.4306310000000 1.0
C      1  0.5206080000000  0.5219420000000  0.5428920000000 1.0
C      1  0.4721990000000  0.5229320000000  0.4622320000000 1.0
C      1  0.4744500000000  0.4281480000000  0.5613590000000 1.0
C      1  0.4357820000000  0.4787300000000  0.4486550000000 1.0
C      1  0.5333130000000  0.4566320000000  0.5624240000000 1.0
C      1  0.4347250000000  0.5386930000000  0.5603080000000 1.0
C      1  0.4681610000000  0.4918320000000  0.4090150000000 1.0
C      1  0.4374500000000  0.5478670000000  0.4571470000000 1.0
C      1  0.4592760000000  0.5534670000000  0.5660490000000 1.0
C      1  0.4883290000000  0.4163690000000  0.5147820000000 1.0
C      1  0.5715520000000  0.5026370000000  0.4332870000000 1.0
C      1  0.5298190000000  0.5386840000000  0.4285670000000 1.0
C      1  0.5515720000000  0.4929200000000  0.4742230000000 1.0
C      1  0.5381570000000  0.4267140000000  0.4772710000000 1.0
C      1  0.5617180000000  0.5387180000000  0.5215330000000 1.0
C      1  0.5688220000000  0.4850040000000  0.5671780000000 1.0
C      1  0.5500920000000  0.4931920000000  0.5870580000000 1.0
C      1  0.5377660000000  0.5200120000000  0.4686760000000 1.0
C      1  0.5516820000000  0.5426680000000  0.4509360000000 1.0
C      1  0.4685020000000  0.5755270000000  0.5481860000000 1.0
C      1  0.5042580000000  0.5528010000000  0.4252340000000 1.0
C      1  0.4510250000000  0.5262520000000  0.4384440000000 1.0
C      1  0.5087800000000  0.4708810000000  0.4238550000000 1.0
C      1  0.5528480000000  0.4302790000000  0.4530220000000 1.0
C      1  0.5206260000000  0.5112200000000  0.4455580000000 1.0
C      1  0.4688440000000  0.5176670000000  0.5238990000000 1.0
C      1  0.4060350000000  0.5278020000000  0.4914930000000 1.0
C      1  0.5051410000000  0.4969790000000  0.4869390000000 1.0
C      1  0.5762390000000  0.5244230000000  0.4507410000000 1.0
C      1  0.5037530000000  0.5884540000000  0.4633920000000 1.0
C      1  0.4940250000000  0.5666000000000  0.4481410000000 1.0
C      1  0.4262810000000  0.4469400000000  0.5360590000000 1.0
C      1  0.5731920000000  0.4587280000000  0.5304170000000 1.0
C      1  0.4806710000000  0.4182650000000  0.4874860000000 1.0
C      1  0.5517430000000  0.5026480000000  0.4130780000000 1.0
C      1  0.5195360000000  0.4302350000000  0.5545430000000 1.0
C      1  0.5077040000000  0.5141840000000  0.3979300000000 1.0
C      1  0.5523570000000  0.5658530000000  0.5116640000000 1.0
C      1  0.5692520000000  0.4538510000000  0.4580150000000 1.0
C      1  0.4939270000000  0.4391180000000  0.4708000000000 1.0
C      1  0.5019040000000  0.4895850000000  0.5932600000000 1.0
C      1  0.5237780000000  0.5737040000000  0.5046110000000 1.0
C      1  0.5286590000000  0.5816430000000  0.4757710000000 1.0
C      1  0.5782600000000  0.4898340000000  0.4910070000000 1.0
C      1  0.4850060000000  0.5968540000000  0.4836510000000 1.0
C      1  0.5149580000000  0.4303400000000  0.5233220000000 1.0
C      1  0.4947080000000  0.5036740000000  0.4587090000000 1.0
C      1  0.5007910000000  0.5416810000000  0.5483890000000 1.0
C      1  0.5408810000000  0.4289250000000  0.5050490000000 1.0
C      1  0.4537910000000  0.4175870000000  0.4778310000000 1.0
C      1  0.5521810000000  0.5679280000000  0.4662280000000 1.0
C      1  0.4663120000000  0.5058440000000  0.5699770000000 1.0
C      1  0.5662870000000  0.4439850000000  0.5072980000000 1.0
C      1  0.5193200000000  0.5241560000000  0.4933750000000 1.0
C      1  0.5011570000000  0.5475910000000  0.4966900000000 1.0
C      1  0.5855680000000  0.5167680000000  0.4790520000000 1.0
C      1  0.4488960000000  0.4820040000000  0.4755630000000 1.0
C      1  0.4154810000000  0.5417070000000  0.5407210000000 1.0
C      1  0.4383980000000  0.4819460000000  0.5051810000000 1.0
C      1  0.4808330000000  0.5322080000000  0.5731170000000 1.0
C      1  0.4992650000000  0.4186010000000  0.5683880000000 1.0
C      1  0.5136550000000  0.5653420000000  0.5597220000000 1.0
C      1  0.5764870000000  0.5027870000000  0.5467830000000 1.0
C      1  0.5625080000000  0.4593060000000  0.5568610000000 1.0
C      1  0.4834440000000  0.5433140000000  0.5215700000000 1.0
C      1  0.5125830000000  0.4408390000000  0.4255530000000 1.0
C      1  0.4752350000000  0.4685990000000  0.5397900000000 1.0
C      1  0.4184160000000  0.4448930000000  0.4887310000000 1.0
C      1  0.4502140000000  0.5123110000000  0.4803170000000 1.0
C      1  0.4233800000000  0.5249220000000  0.4696980000000 1.0
C      1  0.4170390000000  0.5293040000000  0.5164360000000 1.0
C      1  0.4550440000000  0.5630150000000  0.4738600000000 1.0
C      1  0.4440050000000  0.5119140000000  0.5103220000000 1.0
C      1  0.4648270000000  0.4575080000000  0.5663240000000 1.0
C      1  0.4626360000000  0.4709580000000  0.5148870000000 1.0
C      1  0.5727400000000  0.4867670000000  0.5211380000000 1.0
C      1  0.5772470000000  0.4592380000000  0.4847750000000 1.0
C      1  0.5008620000000  0.5201610000000  0.5934400000000 1.0
C      1  0.4766510000000  0.4809810000000  0.5835160000000 1.0
C      1  0.4962010000000  0.4883800000000  0.4026430000000 1.0
C      1  0.4771980000000  0.4661230000000  0.4734620000000 1.0
C      1  0.4344310000000  0.4229800000000  0.4976040000000 1.0
C      1  0.4863700000000  0.4785890000000  0.4464700000000 1.0
C      1  0.5491810000000  0.5205970000000  0.5916820000000 1.0
C      1  0.4597800000000  0.4721210000000  0.4306410000000 1.0
C      1  0.5350010000000  0.5228430000000  0.4041860000000 1.0
C      1  0.5228380000000  0.4757970000000  0.5375700000000 1.0
C      1  0.5405270000000  0.4881490000000  0.5171630000000 1.0
C      1  0.4820690000000  0.5499210000000  0.4707300000000 1.0
C      1  0.5361530000000  0.5193800000000  0.5180220000000 1.0
C      1  0.4352420000000  0.4618530000000  0.5587330000000 1.0
C      1  0.5209550000000  0.4494700000000  0.4788460000000 1.0
C      1  0.4648160000000  0.5687490000000  0.5205530000000 1.0
C      1  0.5584370000000  0.4799580000000  0.4481090000000 1.0
C      1  0.4642840000000  0.5204350000000  0.4129970000000 1.0
C      1  0.4896190000000  0.4333530000000  0.4408370000000 1.0
C      1  0.4787350000000  0.4976600000000  0.5431800000000 1.0
C      1  0.4635570000000  0.4422250000000  0.4342170000000 1.0
END
