TITL C-105723-8489-6 -0.13045474966091 125000 -345.583168980278 0 0 52 (C1) n - 1
REM
REM in /rds/project/t2_vol4/rds-t2-cs072/BORA/CARBON/from-Arr/AIRSS/Generating-Clusters/GAP-ML-2020/Only-C1/SD-CG/HFTN-CG
REM
REM
REM
REM
REM
REM ./C.cell (11c1c37f851c82e70ff6c80c92926a4b)
REM AIRSS Version 0.9.1 bugfix July 2018 build 013d7b7c2542+ Fri, 06 Jul 2018 19:26:36 +0100
REM compiler GCC version 9.3.0
REM options -cpp -mtune=generic -march=x86-64 -g -O0
REM seed 1309286828 1101682647 -939001222 -1439586075 1442110688 1782253824 -876967705 -1225032849 1372630682 1940266524 -1502552903 1628003762 -2026773147 1761908566 246272842 -619467014 1230836951 70573713 -1358281194 159665536 1539746517 -1088552782 -460709827 -146859754 1171183846 1899396679 891543548 1102993692 387035775 846281122 -566958311 1375736134 -651013498
REM
CELL 1.54180   50.00000   50.00000   50.00000   90.00000   90.00000   90.00000
LATT -1
SFAC C  
C      1  0.4810590000000  0.4431700000000  0.5297850000000 1.0
C      1  0.5070050000000  0.4836400000000  0.5133730000000 1.0
C      1  0.5577380000000  0.4813280000000  0.5100930000000 1.0
C      1  0.4985570000000  0.5681740000000  0.5165170000000 1.0
C      1  0.5298230000000  0.4432070000000  0.5251050000000 1.0
C      1  0.5048420000000  0.4462940000000  0.5425090000000 1.0
C      1  0.5023460000000  0.5057800000000  0.4439370000000 1.0
C      1  0.5509150000000  0.4739760000000  0.4833330000000 1.0
C      1  0.5614290000000  0.5353410000000  0.5124350000000 1.0
C      1  0.5253690000000  0.5583080000000  0.5205510000000 1.0
C      1  0.4837440000000  0.5248260000000  0.5031440000000 1.0
C      1  0.5259300000000  0.5047660000000  0.5482530000000 1.0
C      1  0.5352620000000  0.4495490000000  0.4788250000000 1.0
C      1  0.5030020000000  0.4789020000000  0.4836930000000 1.0
C      1  0.5333340000000  0.4325510000000  0.5006820000000 1.0
C      1  0.4883620000000  0.5729700000000  0.4636780000000 1.0
C      1  0.5069880000000  0.4527760000000  0.4697300000000 1.0
C      1  0.4347970000000  0.4853280000000  0.4865850000000 1.0
C      1  0.5156130000000  0.5024150000000  0.4706540000000 1.0
C      1  0.4383260000000  0.5290930000000  0.5097450000000 1.0
C      1  0.4658740000000  0.4481910000000  0.4632400000000 1.0
C      1  0.5365260000000  0.4786720000000  0.5525140000000 1.0
C      1  0.4718310000000  0.4426240000000  0.5051850000000 1.0
C      1  0.4833700000000  0.5526070000000  0.4477090000000 1.0
C      1  0.4547760000000  0.5404790000000  0.5328090000000 1.0
C      1  0.4580780000000  0.5175780000000  0.5499480000000 1.0
C      1  0.5493770000000  0.5546600000000  0.5304940000000 1.0
C      1  0.4570250000000  0.5284120000000  0.4879800000000 1.0
C      1  0.4530080000000  0.5035180000000  0.4711950000000 1.0
C      1  0.5447170000000  0.4984690000000  0.4682640000000 1.0
C      1  0.4826330000000  0.5269120000000  0.4416280000000 1.0
C      1  0.5106950000000  0.4694160000000  0.5593360000000 1.0
C      1  0.4330320000000  0.5009230000000  0.5114270000000 1.0
C      1  0.4853600000000  0.4349270000000  0.4813540000000 1.0
C      1  0.5031110000000  0.5699940000000  0.4859450000000 1.0
C      1  0.4634290000000  0.5034390000000  0.4444900000000 1.0
C      1  0.4537570000000  0.4955410000000  0.5303050000000 1.0
C      1  0.4841020000000  0.4838850000000  0.4383800000000 1.0
C      1  0.5246300000000  0.5489720000000  0.4894500000000 1.0
C      1  0.4546270000000  0.4615210000000  0.4866450000000 1.0
C      1  0.5241890000000  0.5082010000000  0.5177270000000 1.0
C      1  0.5112960000000  0.5234310000000  0.4936040000000 1.0
C      1  0.4779300000000  0.5111630000000  0.5674220000000 1.0
C      1  0.5576100000000  0.5221080000000  0.4667510000000 1.0
C      1  0.4998810000000  0.4971660000000  0.5612300000000 1.0
C      1  0.4869350000000  0.4583870000000  0.4467830000000 1.0
C      1  0.5537620000000  0.5090240000000  0.5172880000000 1.0
C      1  0.4740150000000  0.4849670000000  0.4873540000000 1.0
C      1  0.4792680000000  0.4971620000000  0.5134710000000 1.0
C      1  0.5532630000000  0.5420040000000  0.4846040000000 1.0
C      1  0.5474530000000  0.4647820000000  0.5309100000000 1.0
C      1  0.4800000000000  0.5484730000000  0.5219320000000 1.0
END
