TITL C-105677-622-7 47.4023784995787 125000 -245.055311753956 0 0 38 (C1) n - 1
REM
REM in /rds/project/t2_vol4/rds-t2-cs072/BORA/CARBON/from-Arr/AIRSS/Generating-Clusters/GAP-ML-2020/Only-C1/SD-CG/HFTN-CG
REM
REM
REM
REM
REM
REM ./C.cell (11c1c37f851c82e70ff6c80c92926a4b)
REM AIRSS Version 0.9.1 bugfix July 2018 build 013d7b7c2542+ Fri, 06 Jul 2018 19:26:36 +0100
REM compiler GCC version 9.3.0
REM options -cpp -mtune=generic -march=x86-64 -g -O0
REM seed -911181393 -558801707 1713477718 254159636 -1334136013 1893160618 -308836538 -449397134 -2133204654 759144303 1465817221 -832233370 -1234603639 52627738 -1659740741 1135397563 1893307546 715103088 74793854 649240544 744012565 -592084272 592220976 -1986381731 -1063943801 -288598809 234253473 1590306327 1442891279 453470049 412122507 1560879017 -11023040
REM
CELL 1.54180   50.00000   50.00000   50.00000   90.00000   90.00000   90.00000
LATT -1
SFAC C  
C      1  0.4939510000000  0.4416810000000  0.5022870000000 1.0
C      1  0.5071530000000  0.4687940000000  0.4346390000000 1.0
C      1  0.4913700000000  0.4616470000000  0.5256070000000 1.0
C      1  0.5428220000000  0.5055050000000  0.5247070000000 1.0
C      1  0.5261100000000  0.5555470000000  0.5164540000000 1.0
C      1  0.4627780000000  0.5254840000000  0.5327460000000 1.0
C      1  0.5068960000000  0.5177960000000  0.5458370000000 1.0
C      1  0.5132570000000  0.4529940000000  0.5437230000000 1.0
C      1  0.5315710000000  0.5015400000000  0.5510550000000 1.0
C      1  0.4791390000000  0.5454620000000  0.5203200000000 1.0
C      1  0.4870930000000  0.4952720000000  0.4855610000000 1.0
C      1  0.5527010000000  0.4890190000000  0.5009480000000 1.0
C      1  0.5151220000000  0.5103960000000  0.5159130000000 1.0
C      1  0.5056070000000  0.4597510000000  0.4605720000000 1.0
C      1  0.5601780000000  0.5333680000000  0.4863800000000 1.0
C      1  0.4815920000000  0.5421800000000  0.4917690000000 1.0
C      1  0.4198670000000  0.4733100000000  0.5373330000000 1.0
C      1  0.4824320000000  0.4845480000000  0.4351500000000 1.0
C      1  0.5059550000000  0.5446190000000  0.5320500000000 1.0
C      1  0.5053160000000  0.4832540000000  0.5077810000000 1.0
C      1  0.4614730000000  0.5308870000000  0.4742500000000 1.0
C      1  0.5633230000000  0.5070820000000  0.4839400000000 1.0
C      1  0.5020300000000  0.5214600000000  0.4841000000000 1.0
C      1  0.4710640000000  0.4794050000000  0.5383400000000 1.0
C      1  0.4823300000000  0.4777470000000  0.4629770000000 1.0
C      1  0.4455320000000  0.5090060000000  0.5153660000000 1.0
C      1  0.5041860000000  0.5294020000000  0.4546990000000 1.0
C      1  0.5324560000000  0.4668730000000  0.5021010000000 1.0
C      1  0.4749900000000  0.5277400000000  0.4506910000000 1.0
C      1  0.4431350000000  0.4828940000000  0.5305190000000 1.0
C      1  0.5080380000000  0.5213650000000  0.4287800000000 1.0
C      1  0.5370080000000  0.4552810000000  0.5288680000000 1.0
C      1  0.5426090000000  0.5501680000000  0.4972130000000 1.0
C      1  0.5309290000000  0.4748220000000  0.5486090000000 1.0
C      1  0.4574600000000  0.5071460000000  0.4902140000000 1.0
C      1  0.4796240000000  0.5063970000000  0.5458010000000 1.0
C      1  0.4774680000000  0.5117260000000  0.4280360000000 1.0
C      1  0.5154330000000  0.4484340000000  0.4846660000000 1.0
END
