TITL C-105664-495-5 -0.0199149322856519 125000 -131.104622636979 0 0 21 (C1) n - 1
REM
REM in /rds/project/t2_vol4/rds-t2-cs072/BORA/CARBON/from-Arr/AIRSS/Generating-Clusters/GAP-ML-2020/Only-C1/SD-CG/HFTN-CG
REM
REM
REM
REM
REM
REM ./C.cell (11c1c37f851c82e70ff6c80c92926a4b)
REM AIRSS Version 0.9.1 bugfix July 2018 build 013d7b7c2542+ Fri, 06 Jul 2018 19:26:36 +0100
REM compiler GCC version 9.3.0
REM options -cpp -mtune=generic -march=x86-64 -g -O0
REM seed 1800392026 1867929944 -711171786 -626681914 -430800806 -730414227 -287362626 -288782489 -1824514109 1668818280 287466611 -221015248 -30810612 1613282541 581132565 1391384764 1881282291 1357652969 -1571364272 242312710 -685506383 -2044283631 -163336681 -1106508073 -5025508 1592331397 636504839 -1891856858 1560688433 2001036996 1274408227 -1022839805 1647330923
REM
CELL 1.54180   50.00000   50.00000   50.00000   90.00000   90.00000   90.00000
LATT -1
SFAC C  
C      1  0.4804850000000  0.4599960000000  0.4776850000000 1.0
C      1  0.5013840000000  0.4993640000000  0.5096520000000 1.0
C      1  0.5091770000000  0.5260340000000  0.5188720000000 1.0
C      1  0.4666390000000  0.5267660000000  0.5104390000000 1.0
C      1  0.5594300000000  0.4994970000000  0.4754040000000 1.0
C      1  0.5129140000000  0.5090500000000  0.4588690000000 1.0
C      1  0.5055030000000  0.4536890000000  0.4881890000000 1.0
C      1  0.5027660000000  0.5135850000000  0.5473860000000 1.0
C      1  0.4783740000000  0.5223890000000  0.5624370000000 1.0
C      1  0.5002030000000  0.5546200000000  0.4807900000000 1.0
C      1  0.5360330000000  0.4893920000000  0.4677670000000 1.0
C      1  0.5041680000000  0.4871170000000  0.5360510000000 1.0
C      1  0.5070240000000  0.4601680000000  0.5353070000000 1.0
C      1  0.4911880000000  0.5423210000000  0.5044750000000 1.0
C      1  0.4660990000000  0.5255060000000  0.5386740000000 1.0
C      1  0.4742410000000  0.5010960000000  0.5008230000000 1.0
C      1  0.4874260000000  0.5002440000000  0.4557110000000 1.0
C      1  0.5085230000000  0.5344190000000  0.4671590000000 1.0
C      1  0.5077780000000  0.4443870000000  0.5152170000000 1.0
C      1  0.4748190000000  0.4870990000000  0.4760650000000 1.0
C      1  0.5258260000000  0.4632610000000  0.4730280000000 1.0
END
