TITL C-101227-5621-7 0.155668532092309 125000 -652.286224130171 0 0 95 (C1) n - 1
REM
REM in /rds/project/t2_vol4/rds-t2-cs072/BORA/CARBON/from-Arr/AIRSS/Generating-Clusters/GAP-ML-2020/Only-C1/SD-CG/HFTN-CG
REM
REM
REM
REM
REM
REM ./C.cell (11c1c37f851c82e70ff6c80c92926a4b)
REM AIRSS Version 0.9.1 bugfix July 2018 build 013d7b7c2542+ Fri, 06 Jul 2018 19:26:36 +0100
REM compiler GCC version 9.3.0
REM options -cpp -mtune=generic -march=x86-64 -g -O0
REM seed -817749297 -1674044168 1142925401 -1204456141 2070655662 -656192503 -1456478927 -2039596537 -1749343507 1751245029 -70215509 -787528018 -1383617973 -1037184077 1873496096 -1988763686 -1936889112 76900985 675602027 180974991 -236508113 -1842204331 1333184108 1207616267 -1548483811 -1948630872 -215603292 -1263711846 849277964 -1565781519 1121319474 1489832069 232883196
REM
CELL 1.54180   50.00000   50.00000   50.00000   90.00000   90.00000   90.00000
LATT -1
SFAC C  
C      1  0.4784030000000  0.5821110000000  0.5154320000000 1.0
C      1  0.5790670000000  0.4786630000000  0.5051100000000 1.0
C      1  0.4888730000000  0.4698850000000  0.4323090000000 1.0
C      1  0.5447440000000  0.5278040000000  0.4414360000000 1.0
C      1  0.5700200000000  0.5633830000000  0.4598460000000 1.0
C      1  0.5352350000000  0.5485390000000  0.5830930000000 1.0
C      1  0.5690190000000  0.5071010000000  0.5584260000000 1.0
C      1  0.4629540000000  0.5744600000000  0.4767270000000 1.0
C      1  0.4574210000000  0.5451210000000  0.5414520000000 1.0
C      1  0.5855490000000  0.4946780000000  0.4823980000000 1.0
C      1  0.4809250000000  0.4574120000000  0.5385350000000 1.0
C      1  0.4173850000000  0.5174520000000  0.4908070000000 1.0
C      1  0.5130800000000  0.4663940000000  0.5768110000000 1.0
C      1  0.4870710000000  0.5872560000000  0.4875370000000 1.0
C      1  0.4708580000000  0.5516330000000  0.4598860000000 1.0
C      1  0.4393930000000  0.5311720000000  0.5586430000000 1.0
C      1  0.4813580000000  0.4831360000000  0.4841450000000 1.0
C      1  0.4685950000000  0.4531870000000  0.5641790000000 1.0
C      1  0.5844510000000  0.5494350000000  0.4756800000000 1.0
C      1  0.5230940000000  0.4920340000000  0.5831310000000 1.0
C      1  0.4123040000000  0.5001000000000  0.4449890000000 1.0
C      1  0.5136780000000  0.5782440000000  0.4844420000000 1.0
C      1  0.5483650000000  0.4596870000000  0.4740360000000 1.0
C      1  0.5449240000000  0.5559640000000  0.4484320000000 1.0
C      1  0.4108970000000  0.5125240000000  0.5196690000000 1.0
C      1  0.5455800000000  0.4944870000000  0.5660190000000 1.0
C      1  0.4424010000000  0.5465060000000  0.5157030000000 1.0
C      1  0.4744470000000  0.5288300000000  0.4808820000000 1.0
C      1  0.5605770000000  0.5514880000000  0.5802590000000 1.0
C      1  0.4971870000000  0.5581890000000  0.4452230000000 1.0
C      1  0.5021000000000  0.5127120000000  0.5845760000000 1.0
C      1  0.4917800000000  0.4855850000000  0.5386770000000 1.0
C      1  0.5670560000000  0.5355760000000  0.5582210000000 1.0
C      1  0.5179240000000  0.4155170000000  0.4451960000000 1.0
C      1  0.5539970000000  0.4324860000000  0.5137100000000 1.0
C      1  0.4831830000000  0.4698760000000  0.5811870000000 1.0
C      1  0.5239480000000  0.5051600000000  0.4798180000000 1.0
C      1  0.5105440000000  0.5392040000000  0.5742360000000 1.0
C      1  0.4377860000000  0.4897460000000  0.4392350000000 1.0
C      1  0.4916070000000  0.5389670000000  0.4247860000000 1.0
C      1  0.4591590000000  0.4926880000000  0.5044800000000 1.0
C      1  0.5300440000000  0.5427340000000  0.5235380000000 1.0
C      1  0.4585210000000  0.5073450000000  0.4295410000000 1.0
C      1  0.5304940000000  0.5080920000000  0.4253390000000 1.0
C      1  0.4764500000000  0.4313980000000  0.4694540000000 1.0
C      1  0.5646960000000  0.4542270000000  0.4977070000000 1.0
C      1  0.5148370000000  0.4906160000000  0.5228330000000 1.0
C      1  0.5050790000000  0.5453440000000  0.5445610000000 1.0
C      1  0.5454670000000  0.4108130000000  0.4975290000000 1.0
C      1  0.4826390000000  0.4946920000000  0.4213360000000 1.0
C      1  0.5215630000000  0.5694770000000  0.5110520000000 1.0
C      1  0.4512770000000  0.4625000000000  0.5439100000000 1.0
C      1  0.5254000000000  0.4748630000000  0.4816550000000 1.0
C      1  0.5712880000000  0.5224020000000  0.5153210000000 1.0
C      1  0.4810550000000  0.5304400000000  0.5326430000000 1.0
C      1  0.5698260000000  0.4905050000000  0.4597530000000 1.0
C      1  0.5180530000000  0.5178470000000  0.5070620000000 1.0
C      1  0.5365460000000  0.4800880000000  0.4300640000000 1.0
C      1  0.4642000000000  0.5353100000000  0.4341240000000 1.0
C      1  0.5202390000000  0.5681990000000  0.4576840000000 1.0
C      1  0.4493670000000  0.4240130000000  0.4571960000000 1.0
C      1  0.4762440000000  0.4991540000000  0.5831870000000 1.0
C      1  0.5298570000000  0.4557860000000  0.5532420000000 1.0
C      1  0.4752600000000  0.4638630000000  0.4585660000000 1.0
C      1  0.4706270000000  0.5021460000000  0.5306020000000 1.0
C      1  0.4466510000000  0.4661420000000  0.4517890000000 1.0
C      1  0.4064050000000  0.5109300000000  0.4671870000000 1.0
C      1  0.4890380000000  0.4438620000000  0.5140230000000 1.0
C      1  0.5204430000000  0.4340580000000  0.4282180000000 1.0
C      1  0.5179160000000  0.4112580000000  0.4943730000000 1.0
C      1  0.5030380000000  0.4160040000000  0.4692090000000 1.0
C      1  0.4221990000000  0.5345710000000  0.5350130000000 1.0
C      1  0.5694160000000  0.4960590000000  0.5281570000000 1.0
C      1  0.4337100000000  0.4451490000000  0.4670960000000 1.0
C      1  0.5583150000000  0.5415660000000  0.5315260000000 1.0
C      1  0.4447050000000  0.4913550000000  0.5497320000000 1.0
C      1  0.5571930000000  0.4701400000000  0.4479830000000 1.0
C      1  0.5321570000000  0.4341130000000  0.5348080000000 1.0
C      1  0.4392900000000  0.4693580000000  0.5146450000000 1.0
C      1  0.5043790000000  0.4703010000000  0.5004070000000 1.0
C      1  0.4529520000000  0.5707070000000  0.5044060000000 1.0
C      1  0.4935730000000  0.5072910000000  0.4736070000000 1.0
C      1  0.4495290000000  0.5077640000000  0.5729820000000 1.0
C      1  0.5752970000000  0.5236580000000  0.4867910000000 1.0
C      1  0.5036880000000  0.5140370000000  0.4171140000000 1.0
C      1  0.5399150000000  0.4817160000000  0.5397150000000 1.0
C      1  0.4667130000000  0.4352870000000  0.4970750000000 1.0
C      1  0.5512410000000  0.5139660000000  0.4658800000000 1.0
C      1  0.5095300000000  0.4242470000000  0.5188750000000 1.0
C      1  0.5152980000000  0.4610300000000  0.4260280000000 1.0
C      1  0.4224300000000  0.4894640000000  0.5298970000000 1.0
C      1  0.5001270000000  0.5722650000000  0.5300400000000 1.0
C      1  0.4403190000000  0.4467500000000  0.4962580000000 1.0
C      1  0.4910230000000  0.5303730000000  0.5050900000000 1.0
C      1  0.4475440000000  0.5203350000000  0.4948150000000 1.0
END
