TITL C-101231-5631-7 -0.153731093417919 125000 -518.419808962117 0 0 74 (C1) n - 1
REM
REM in /rds/project/t2_vol4/rds-t2-cs072/BORA/CARBON/from-Arr/AIRSS/Generating-Clusters/GAP-ML-2020/Only-C1/SD-CG/HFTN-CG
REM
REM
REM
REM
REM
REM ./C.cell (11c1c37f851c82e70ff6c80c92926a4b)
REM AIRSS Version 0.9.1 bugfix July 2018 build 013d7b7c2542+ Fri, 06 Jul 2018 19:26:36 +0100
REM compiler GCC version 9.3.0
REM options -cpp -mtune=generic -march=x86-64 -g -O0
REM seed -1777856017 455279505 -1954885013 -1320740432 -943105757 1733489055 -431306833 -1280150415 -786003667 -854617240 1267523172 1224606561 -2103409508 -1683136415 -1183553673 651670925 -873835844 -649928792 1846603212 -493462546 -1976521671 -1421326446 50335961 192607391 1287425663 -1625403209 -188581831 777403100 -1870393065 1981580356 -1209025636 -50514982 -1346153675
REM
CELL 1.54180   50.00000   50.00000   50.00000   90.00000   90.00000   90.00000
LATT -1
SFAC C  
C      1  0.4471240000000  0.5464120000000  0.5083880000000 1.0
C      1  0.4902100000000  0.4414400000000  0.4491220000000 1.0
C      1  0.5137240000000  0.5677910000000  0.5314490000000 1.0
C      1  0.5695410000000  0.5085270000000  0.5362740000000 1.0
C      1  0.4571850000000  0.5207720000000  0.5197970000000 1.0
C      1  0.4412960000000  0.5156590000000  0.5441700000000 1.0
C      1  0.4654280000000  0.4748470000000  0.5484900000000 1.0
C      1  0.4477950000000  0.4533600000000  0.4689840000000 1.0
C      1  0.4480710000000  0.4621250000000  0.5290660000000 1.0
C      1  0.4682330000000  0.5674250000000  0.5029800000000 1.0
C      1  0.5048950000000  0.4347070000000  0.5439210000000 1.0
C      1  0.4644320000000  0.4401060000000  0.4879340000000 1.0
C      1  0.4521030000000  0.4982380000000  0.4979290000000 1.0
C      1  0.5428580000000  0.5399950000000  0.5568490000000 1.0
C      1  0.5394700000000  0.5446840000000  0.4540240000000 1.0
C      1  0.4742580000000  0.4745770000000  0.4289090000000 1.0
C      1  0.5007450000000  0.4185730000000  0.5040450000000 1.0
C      1  0.4635470000000  0.4531280000000  0.4451680000000 1.0
C      1  0.4155960000000  0.5182120000000  0.5321180000000 1.0
C      1  0.4312690000000  0.4771770000000  0.5086250000000 1.0
C      1  0.4932170000000  0.4351440000000  0.4792300000000 1.0
C      1  0.5228200000000  0.4283700000000  0.5201580000000 1.0
C      1  0.5577590000000  0.4575070000000  0.4875050000000 1.0
C      1  0.5150080000000  0.4567220000000  0.4819640000000 1.0
C      1  0.5561400000000  0.5502510000000  0.4769520000000 1.0
C      1  0.4857820000000  0.5132130000000  0.5156510000000 1.0
C      1  0.5113670000000  0.5112810000000  0.5260230000000 1.0
C      1  0.4702960000000  0.5023030000000  0.4331890000000 1.0
C      1  0.4948410000000  0.4681110000000  0.5491140000000 1.0
C      1  0.4760250000000  0.5197020000000  0.5721770000000 1.0
C      1  0.5719840000000  0.4811630000000  0.4944620000000 1.0
C      1  0.4191350000000  0.5377640000000  0.5087200000000 1.0
C      1  0.4811370000000  0.4935580000000  0.4960230000000 1.0
C      1  0.5345600000000  0.4906560000000  0.5657500000000 1.0
C      1  0.5096950000000  0.4504960000000  0.5679820000000 1.0
C      1  0.5423740000000  0.5205590000000  0.4399500000000 1.0
C      1  0.4941540000000  0.5373590000000  0.5699260000000 1.0
C      1  0.4305000000000  0.4731210000000  0.4782310000000 1.0
C      1  0.5574930000000  0.5512290000000  0.5342930000000 1.0
C      1  0.5405550000000  0.5679400000000  0.4928700000000 1.0
C      1  0.4105460000000  0.4976870000000  0.5127590000000 1.0
C      1  0.5234260000000  0.4795190000000  0.4292830000000 1.0
C      1  0.4905650000000  0.5423760000000  0.4463020000000 1.0
C      1  0.4939430000000  0.5191260000000  0.4299320000000 1.0
C      1  0.5653870000000  0.4849450000000  0.5221250000000 1.0
C      1  0.5720590000000  0.5317430000000  0.5193550000000 1.0
C      1  0.5405620000000  0.5686600000000  0.5207850000000 1.0
C      1  0.5267450000000  0.5164160000000  0.5041450000000 1.0
C      1  0.4830710000000  0.4252070000000  0.5265000000000 1.0
C      1  0.5522660000000  0.5126730000000  0.5593940000000 1.0
C      1  0.5014110000000  0.4625800000000  0.4313300000000 1.0
C      1  0.5206990000000  0.5045920000000  0.4818110000000 1.0
C      1  0.5292840000000  0.4670350000000  0.5789920000000 1.0
C      1  0.5360480000000  0.4508700000000  0.5075730000000 1.0
C      1  0.5128330000000  0.5559530000000  0.4580470000000 1.0
C      1  0.4959190000000  0.5711860000000  0.5077930000000 1.0
C      1  0.4576000000000  0.5545730000000  0.4812260000000 1.0
C      1  0.4643800000000  0.5400430000000  0.4585190000000 1.0
C      1  0.5720260000000  0.5302240000000  0.4900220000000 1.0
C      1  0.5136600000000  0.5692290000000  0.4839440000000 1.0
C      1  0.5417060000000  0.4702600000000  0.5277320000000 1.0
C      1  0.5414420000000  0.4560630000000  0.4646450000000 1.0
C      1  0.5149140000000  0.5510960000000  0.5567670000000 1.0
C      1  0.4577520000000  0.5006390000000  0.5618670000000 1.0
C      1  0.4612190000000  0.4402780000000  0.5161470000000 1.0
C      1  0.5727290000000  0.5042900000000  0.4771360000000 1.0
C      1  0.5176700000000  0.4862480000000  0.5405850000000 1.0
C      1  0.5199040000000  0.5079690000000  0.4268390000000 1.0
C      1  0.4513010000000  0.5154670000000  0.4509930000000 1.0
C      1  0.4137190000000  0.5160230000000  0.4896000000000 1.0
C      1  0.5467320000000  0.4751510000000  0.4451210000000 1.0
C      1  0.4338380000000  0.5029380000000  0.4720560000000 1.0
C      1  0.5023000000000  0.4845150000000  0.4806610000000 1.0
C      1  0.5597170000000  0.5002200000000  0.4516030000000 1.0
END
