TITL C-102218-7107-3 0.162941426334382 125000 -589.010621168414 0 0 87 (C1) n - 1
REM
REM in /rds/project/t2_vol4/rds-t2-cs072/BORA/CARBON/from-Arr/AIRSS/Generating-Clusters/GAP-ML-2020/Only-C1/SD-CG/HFTN-CG
REM
REM
REM
REM
REM
REM ./C.cell (11c1c37f851c82e70ff6c80c92926a4b)
REM AIRSS Version 0.9.1 bugfix July 2018 build 013d7b7c2542+ Fri, 06 Jul 2018 19:26:36 +0100
REM compiler GCC version 9.3.0
REM options -cpp -mtune=generic -march=x86-64 -g -O0
REM seed 1497582583 1844203158 -2142921486 106251883 -1333429637 1848125882 1356136672 1326140715 -915801554 -1295795867 -1581240851 1487212158 645413783 1432004070 -1048424197 1913482127 -100044521 2031870231 47292559 920766135 -1023126712 1045797069 1325975262 -513419816 -349959124 -216894317 -1247625046 -1832833616 -1725866322 1113521573 -1858085705 665145863 -1283001483
REM
CELL 1.54180   50.00000   50.00000   50.00000   90.00000   90.00000   90.00000
LATT -1
SFAC C  
C      1  0.4414380000000  0.4469710000000  0.5207090000000 1.0
C      1  0.4211060000000  0.5094840000000  0.5098690000000 1.0
C      1  0.4684300000000  0.5608350000000  0.4724760000000 1.0
C      1  0.5720550000000  0.4773640000000  0.4847510000000 1.0
C      1  0.5427690000000  0.5538280000000  0.4580810000000 1.0
C      1  0.4646770000000  0.5836890000000  0.4881400000000 1.0
C      1  0.4419890000000  0.4482010000000  0.4694350000000 1.0
C      1  0.5687730000000  0.5498350000000  0.4711390000000 1.0
C      1  0.5613800000000  0.4606260000000  0.5658700000000 1.0
C      1  0.5765360000000  0.5013670000000  0.4646150000000 1.0
C      1  0.5365210000000  0.5142000000000  0.4314380000000 1.0
C      1  0.4756820000000  0.5333350000000  0.4367450000000 1.0
C      1  0.4306810000000  0.5103100000000  0.5374440000000 1.0
C      1  0.4967760000000  0.5321450000000  0.4569720000000 1.0
C      1  0.4944650000000  0.4623250000000  0.4390840000000 1.0
C      1  0.5292390000000  0.4639670000000  0.4937560000000 1.0
C      1  0.4743970000000  0.4850990000000  0.4390060000000 1.0
C      1  0.5147170000000  0.5872130000000  0.4902110000000 1.0
C      1  0.4648360000000  0.5024730000000  0.4843660000000 1.0
C      1  0.4844000000000  0.5032120000000  0.4615790000000 1.0
C      1  0.5280830000000  0.4746980000000  0.5212700000000 1.0
C      1  0.5441210000000  0.4820510000000  0.4756990000000 1.0
C      1  0.4805590000000  0.5172520000000  0.5530800000000 1.0
C      1  0.5282400000000  0.5037030000000  0.5272990000000 1.0
C      1  0.4676880000000  0.4340320000000  0.4716450000000 1.0
C      1  0.5485370000000  0.5072500000000  0.5501240000000 1.0
C      1  0.5114960000000  0.5597760000000  0.4979540000000 1.0
C      1  0.5161940000000  0.5476780000000  0.5449710000000 1.0
C      1  0.5182470000000  0.4796350000000  0.5715670000000 1.0
C      1  0.4956980000000  0.5053580000000  0.5287760000000 1.0
C      1  0.4904400000000  0.5433400000000  0.4846570000000 1.0
C      1  0.5776720000000  0.5242500000000  0.4811460000000 1.0
C      1  0.5185190000000  0.4746800000000  0.4310910000000 1.0
C      1  0.5104330000000  0.5059820000000  0.5762190000000 1.0
C      1  0.5036540000000  0.4961570000000  0.4826870000000 1.0
C      1  0.5650670000000  0.4468320000000  0.4946760000000 1.0
C      1  0.5019100000000  0.4152060000000  0.4981190000000 1.0
C      1  0.4526880000000  0.5754680000000  0.5133420000000 1.0
C      1  0.5435370000000  0.4768410000000  0.4458130000000 1.0
C      1  0.5149350000000  0.4257250000000  0.4753060000000 1.0
C      1  0.4542510000000  0.5445670000000  0.4537790000000 1.0
C      1  0.4827320000000  0.4622450000000  0.5083220000000 1.0
C      1  0.5013090000000  0.4658570000000  0.4862690000000 1.0
C      1  0.5014890000000  0.4597570000000  0.5553500000000 1.0
C      1  0.5766100000000  0.4826470000000  0.5145640000000 1.0
C      1  0.4315150000000  0.4570250000000  0.4446260000000 1.0
C      1  0.4353330000000  0.4629040000000  0.4951800000000 1.0
C      1  0.5217580000000  0.4388860000000  0.5415260000000 1.0
C      1  0.5601390000000  0.4987650000000  0.4397710000000 1.0
C      1  0.4857760000000  0.5161220000000  0.5014030000000 1.0
C      1  0.4209820000000  0.4888460000000  0.4905920000000 1.0
C      1  0.5460830000000  0.4823590000000  0.5666670000000 1.0
C      1  0.4673040000000  0.5420270000000  0.5520030000000 1.0
C      1  0.4722970000000  0.4603970000000  0.5622860000000 1.0
C      1  0.4825360000000  0.5064030000000  0.5782760000000 1.0
C      1  0.4939510000000  0.4451280000000  0.4628160000000 1.0
C      1  0.5671250000000  0.5216310000000  0.5081780000000 1.0
C      1  0.5383000000000  0.4357020000000  0.4924980000000 1.0
C      1  0.4614500000000  0.4769780000000  0.4958950000000 1.0
C      1  0.5485440000000  0.4527980000000  0.5419400000000 1.0
C      1  0.4417040000000  0.5373230000000  0.5403500000000 1.0
C      1  0.4844490000000  0.5079800000000  0.4223660000000 1.0
C      1  0.5365650000000  0.5780540000000  0.4743330000000 1.0
C      1  0.4901100000000  0.5920710000000  0.5017250000000 1.0
C      1  0.5692340000000  0.4555060000000  0.5213100000000 1.0
C      1  0.5718180000000  0.5055270000000  0.5301420000000 1.0
C      1  0.5271360000000  0.5295720000000  0.4545140000000 1.0
C      1  0.5128810000000  0.5010970000000  0.4208960000000 1.0
C      1  0.4445560000000  0.4811190000000  0.4464200000000 1.0
C      1  0.5207190000000  0.4249690000000  0.5173580000000 1.0
C      1  0.4668980000000  0.4359530000000  0.5148950000000 1.0
C      1  0.4405770000000  0.4874690000000  0.5530220000000 1.0
C      1  0.5646630000000  0.5751240000000  0.4827380000000 1.0
C      1  0.4641160000000  0.4866170000000  0.5715380000000 1.0
C      1  0.4735940000000  0.4181300000000  0.4950140000000 1.0
C      1  0.5266600000000  0.5478810000000  0.5188000000000 1.0
C      1  0.4786020000000  0.5806770000000  0.5271310000000 1.0
C      1  0.4328930000000  0.5299320000000  0.4675940000000 1.0
C      1  0.5276890000000  0.5253300000000  0.5608290000000 1.0
C      1  0.4257840000000  0.5346420000000  0.4965560000000 1.0
C      1  0.4477910000000  0.4604560000000  0.5445810000000 1.0
C      1  0.5299650000000  0.5094060000000  0.4797670000000 1.0
C      1  0.4880840000000  0.5603860000000  0.5450510000000 1.0
C      1  0.4976270000000  0.4750060000000  0.5294360000000 1.0
C      1  0.4363280000000  0.5525490000000  0.5166730000000 1.0
C      1  0.4334790000000  0.5009440000000  0.4665630000000 1.0
C      1  0.5380100000000  0.5228370000000  0.5073260000000 1.0
END
