TITL C-105672-567-5 26.314172670452 125000 -671.021784704396 0 0 96 (C1) n - 1
REM
REM in /rds/project/t2_vol4/rds-t2-cs072/BORA/CARBON/from-Arr/AIRSS/Generating-Clusters/GAP-ML-2020/Only-C1/SD-CG/HFTN-CG
REM
REM
REM
REM
REM
REM ./C.cell (11c1c37f851c82e70ff6c80c92926a4b)
REM AIRSS Version 0.9.1 bugfix July 2018 build 013d7b7c2542+ Fri, 06 Jul 2018 19:26:36 +0100
REM compiler GCC version 9.3.0
REM options -cpp -mtune=generic -march=x86-64 -g -O0
REM seed 2012078717 -79221040 268179832 1178372145 -258238321 1963460151 -1663373528 -1981903228 1581916817 417609960 -1590490751 1645947964 -704735203 -1550893792 -372625399 1420077304 -485821168 1924604584 -1480682749 -487160517 974295789 -1651773845 1797558994 -1247029624 198622500 -1958058931 -111479631 1502994402 1034878424 -640129605 -1507626327 1119239347 -1652308547
REM
CELL 1.54180   50.00000   50.00000   50.00000   90.00000   90.00000   90.00000
LATT -1
SFAC C  
C      1  0.4757980000000  0.5397880000000  0.5726540000000 1.0
C      1  0.4805430000000  0.5686540000000  0.5091880000000 1.0
C      1  0.5746900000000  0.5094780000000  0.4549440000000 1.0
C      1  0.4831780000000  0.4195900000000  0.4808330000000 1.0
C      1  0.5169610000000  0.5666990000000  0.5444870000000 1.0
C      1  0.5555590000000  0.5553730000000  0.5118790000000 1.0
C      1  0.4331380000000  0.5460900000000  0.5023690000000 1.0
C      1  0.4808120000000  0.4427850000000  0.5795260000000 1.0
C      1  0.4823460000000  0.4407430000000  0.4341420000000 1.0
C      1  0.4526290000000  0.5144740000000  0.4609270000000 1.0
C      1  0.5441520000000  0.5440730000000  0.4383930000000 1.0
C      1  0.4637880000000  0.5794730000000  0.4858390000000 1.0
C      1  0.4154150000000  0.5252750000000  0.5082440000000 1.0
C      1  0.4699260000000  0.5619380000000  0.5562020000000 1.0
C      1  0.5864020000000  0.4813770000000  0.4984720000000 1.0
C      1  0.4801570000000  0.5182490000000  0.4744490000000 1.0
C      1  0.5563180000000  0.4540520000000  0.5667960000000 1.0
C      1  0.4842890000000  0.4726820000000  0.5111510000000 1.0
C      1  0.4414840000000  0.5602660000000  0.4801240000000 1.0
C      1  0.4932930000000  0.5378260000000  0.4315190000000 1.0
C      1  0.5304480000000  0.5668000000000  0.5188860000000 1.0
C      1  0.5205390000000  0.5405010000000  0.4230410000000 1.0
C      1  0.4893980000000  0.5725730000000  0.5385890000000 1.0
C      1  0.4722460000000  0.4967760000000  0.5221320000000 1.0
C      1  0.5640190000000  0.5376510000000  0.5323490000000 1.0
C      1  0.4503850000000  0.4729070000000  0.5567440000000 1.0
C      1  0.5126710000000  0.4741640000000  0.5050040000000 1.0
C      1  0.4441160000000  0.4434330000000  0.4639030000000 1.0
C      1  0.5345980000000  0.4332140000000  0.4802200000000 1.0
C      1  0.4600830000000  0.5452400000000  0.5149290000000 1.0
C      1  0.4825380000000  0.4874280000000  0.4358900000000 1.0
C      1  0.5657990000000  0.4466810000000  0.5209510000000 1.0
C      1  0.4123730000000  0.4968950000000  0.4978450000000 1.0
C      1  0.5434000000000  0.5554000000000  0.4642670000000 1.0
C      1  0.4388590000000  0.4342190000000  0.4910500000000 1.0
C      1  0.4892720000000  0.4904770000000  0.4676970000000 1.0
C      1  0.4562470000000  0.5194890000000  0.5669950000000 1.0
C      1  0.5260610000000  0.5080560000000  0.4917640000000 1.0
C      1  0.5072320000000  0.5272500000000  0.5079210000000 1.0
C      1  0.5014670000000  0.4494860000000  0.5578410000000 1.0
C      1  0.4973870000000  0.4621140000000  0.4274220000000 1.0
C      1  0.4335860000000  0.5300920000000  0.5533600000000 1.0
C      1  0.4934580000000  0.5412420000000  0.4601560000000 1.0
C      1  0.5071540000000  0.4264210000000  0.5206420000000 1.0
C      1  0.4695490000000  0.4970020000000  0.5529120000000 1.0
C      1  0.5823380000000  0.5172050000000  0.5262710000000 1.0
C      1  0.5884050000000  0.5098300000000  0.4995800000000 1.0
C      1  0.4474700000000  0.5517740000000  0.5411420000000 1.0
C      1  0.4930370000000  0.5100880000000  0.4213670000000 1.0
C      1  0.5013560000000  0.5288850000000  0.5718920000000 1.0
C      1  0.5258860000000  0.4602040000000  0.4349650000000 1.0
C      1  0.5685630000000  0.4807820000000  0.4541650000000 1.0
C      1  0.4442230000000  0.4944470000000  0.4814290000000 1.0
C      1  0.4533640000000  0.4902460000000  0.4424720000000 1.0
C      1  0.4358400000000  0.4700110000000  0.4540450000000 1.0
C      1  0.4766350000000  0.5831030000000  0.4602230000000 1.0
C      1  0.5773990000000  0.4940110000000  0.5421560000000 1.0
C      1  0.5183710000000  0.5132610000000  0.5343460000000 1.0
C      1  0.4850600000000  0.4459680000000  0.5289490000000 1.0
C      1  0.5792130000000  0.5255370000000  0.4783190000000 1.0
C      1  0.5160660000000  0.4837740000000  0.4767840000000 1.0
C      1  0.5562630000000  0.5006440000000  0.5600740000000 1.0
C      1  0.4472650000000  0.5449930000000  0.4570480000000 1.0
C      1  0.5263000000000  0.4535100000000  0.4620630000000 1.0
C      1  0.4706160000000  0.5572450000000  0.4468310000000 1.0
C      1  0.5807410000000  0.4710850000000  0.5243870000000 1.0
C      1  0.5103090000000  0.4212860000000  0.4929620000000 1.0
C      1  0.4174460000000  0.5153220000000  0.5355520000000 1.0
C      1  0.5489830000000  0.4769500000000  0.4322660000000 1.0
C      1  0.5223240000000  0.4318060000000  0.5433960000000 1.0
C      1  0.5152770000000  0.5619780000000  0.4709330000000 1.0
C      1  0.5602300000000  0.5213210000000  0.4339480000000 1.0
C      1  0.5733370000000  0.4658740000000  0.4782400000000 1.0
C      1  0.4614210000000  0.4297350000000  0.5251460000000 1.0
C      1  0.4309320000000  0.4668590000000  0.5352360000000 1.0
C      1  0.4698540000000  0.4307220000000  0.4558500000000 1.0
C      1  0.5433190000000  0.5262590000000  0.5509690000000 1.0
C      1  0.5033130000000  0.5869460000000  0.4587990000000 1.0
C      1  0.4360810000000  0.4446190000000  0.5186060000000 1.0
C      1  0.5626060000000  0.5489840000000  0.4840870000000 1.0
C      1  0.5587400000000  0.4439570000000  0.4926380000000 1.0
C      1  0.5421110000000  0.4774960000000  0.5688720000000 1.0
C      1  0.5455740000000  0.5017560000000  0.4187620000000 1.0
C      1  0.4193800000000  0.4815860000000  0.4746960000000 1.0
C      1  0.5091200000000  0.5589830000000  0.5004500000000 1.0
C      1  0.5499660000000  0.4393590000000  0.5442860000000 1.0
C      1  0.5298210000000  0.4930760000000  0.5166030000000 1.0
C      1  0.5202580000000  0.5131750000000  0.4126090000000 1.0
C      1  0.4788760000000  0.5201350000000  0.5058040000000 1.0
C      1  0.4584970000000  0.4557430000000  0.5770450000000 1.0
C      1  0.4700580000000  0.4765840000000  0.4853560000000 1.0
C      1  0.5234080000000  0.5451910000000  0.5626740000000 1.0
C      1  0.4999400000000  0.5011090000000  0.5594700000000 1.0
C      1  0.5136500000000  0.4760870000000  0.5663550000000 1.0
C      1  0.4619630000000  0.4180170000000  0.4990720000000 1.0
C      1  0.4150310000000  0.4880850000000  0.5261640000000 1.0
END
