TITL C-102193-7231-2 -114.382643491432 125000 -443.619374633952 0 0 65 (C1) n - 1
REM
REM in /rds/project/t2_vol4/rds-t2-cs072/BORA/CARBON/from-Arr/AIRSS/Generating-Clusters/GAP-ML-2020/Only-C1/SD-CG/HFTN-CG
REM
REM
REM
REM
REM
REM ./C.cell (11c1c37f851c82e70ff6c80c92926a4b)
REM AIRSS Version 0.9.1 bugfix July 2018 build 013d7b7c2542+ Fri, 06 Jul 2018 19:26:36 +0100
REM compiler GCC version 9.3.0
REM options -cpp -mtune=generic -march=x86-64 -g -O0
REM seed -1199697612 608066570 1714255132 1630606813 -350603752 1000518342 -1354773586 494998594 -864744263 1634066275 963702295 -67348352 1341365375 1885571030 308673485 -1100620660 -548256194 2103976814 441307523 529203675 648100922 -1557547970 -644269818 359991584 2044005008 992441237 -1442557673 1839501369 -561805826 1814092293 1853804781 -1742854438 376537598
REM
CELL 1.54180   50.00000   50.00000   50.00000   90.00000   90.00000   90.00000
LATT -1
SFAC C  
C      1  0.5082250000000  0.4933180000000  0.4275750000000 1.0
C      1  0.5507400000000  0.5114290000000  0.4472380000000 1.0
C      1  0.5375670000000  0.5075190000000  0.5283540000000 1.0
C      1  0.5784120000000  0.5362700000000  0.4799690000000 1.0
C      1  0.5101170000000  0.4416470000000  0.5001420000000 1.0
C      1  0.4477220000000  0.5062530000000  0.5359110000000 1.0
C      1  0.5086360000000  0.5736520000000  0.5353620000000 1.0
C      1  0.4837040000000  0.4556870000000  0.4951910000000 1.0
C      1  0.4661500000000  0.4508880000000  0.5532610000000 1.0
C      1  0.4729410000000  0.4351570000000  0.5320730000000 1.0
C      1  0.5260130000000  0.5140790000000  0.4350340000000 1.0
C      1  0.4360000000000  0.4691050000000  0.4755320000000 1.0
C      1  0.5066870000000  0.5199960000000  0.4801290000000 1.0
C      1  0.4388900000000  0.4639190000000  0.5033540000000 1.0
C      1  0.5232800000000  0.5528920000000  0.5493240000000 1.0
C      1  0.5410590000000  0.4673410000000  0.4739720000000 1.0
C      1  0.5513140000000  0.4919500000000  0.5500480000000 1.0
C      1  0.5098760000000  0.4311630000000  0.4717050000000 1.0
C      1  0.4858900000000  0.4174950000000  0.4678000000000 1.0
C      1  0.4593310000000  0.4431240000000  0.5070530000000 1.0
C      1  0.5199470000000  0.4469310000000  0.5431580000000 1.0
C      1  0.5565280000000  0.5342290000000  0.4632730000000 1.0
C      1  0.4638350000000  0.4978550000000  0.4378540000000 1.0
C      1  0.4982540000000  0.5625460000000  0.4898360000000 1.0
C      1  0.4732760000000  0.5446140000000  0.5310440000000 1.0
C      1  0.5520890000000  0.5216890000000  0.5073560000000 1.0
C      1  0.4469950000000  0.5125170000000  0.4549440000000 1.0
C      1  0.5677900000000  0.5478650000000  0.5050150000000 1.0
C      1  0.5021180000000  0.4326210000000  0.5266880000000 1.0
C      1  0.5324880000000  0.5331070000000  0.4849830000000 1.0
C      1  0.4396210000000  0.5515010000000  0.4817480000000 1.0
C      1  0.5571420000000  0.4902040000000  0.4675230000000 1.0
C      1  0.4478470000000  0.5332630000000  0.5262490000000 1.0
C      1  0.5008460000000  0.4690720000000  0.4406740000000 1.0
C      1  0.4321310000000  0.5349000000000  0.5022330000000 1.0
C      1  0.4717430000000  0.4707660000000  0.4440570000000 1.0
C      1  0.4891940000000  0.5257250000000  0.5468780000000 1.0
C      1  0.5330670000000  0.4612390000000  0.5035340000000 1.0
C      1  0.5701580000000  0.5081380000000  0.4871790000000 1.0
C      1  0.5268010000000  0.5606420000000  0.4896290000000 1.0
C      1  0.4803170000000  0.4748150000000  0.5543930000000 1.0
C      1  0.5015610000000  0.5324250000000  0.4417390000000 1.0
C      1  0.4997660000000  0.4986870000000  0.4972110000000 1.0
C      1  0.4299580000000  0.4966660000000  0.4713410000000 1.0
C      1  0.5204550000000  0.4545840000000  0.4572640000000 1.0
C      1  0.5196180000000  0.5130200000000  0.5786400000000 1.0
C      1  0.4336840000000  0.4893800000000  0.5166340000000 1.0
C      1  0.5074430000000  0.5358020000000  0.5694850000000 1.0
C      1  0.5355170000000  0.5750280000000  0.5324560000000 1.0
C      1  0.5460140000000  0.4519410000000  0.5298690000000 1.0
C      1  0.4665940000000  0.4353240000000  0.4776800000000 1.0
C      1  0.4714040000000  0.5014270000000  0.5505080000000 1.0
C      1  0.4812770000000  0.4827050000000  0.4866730000000 1.0
C      1  0.5477830000000  0.5692700000000  0.5073570000000 1.0
C      1  0.4579100000000  0.5379760000000  0.4653500000000 1.0
C      1  0.4242980000000  0.5078530000000  0.4968170000000 1.0
C      1  0.5094710000000  0.4743830000000  0.5474960000000 1.0
C      1  0.5180550000000  0.5287610000000  0.5334390000000 1.0
C      1  0.4879130000000  0.5418530000000  0.4688860000000 1.0
C      1  0.4888520000000  0.5643130000000  0.5166840000000 1.0
C      1  0.5618990000000  0.4682670000000  0.5436610000000 1.0
C      1  0.5189190000000  0.4864740000000  0.5181420000000 1.0
C      1  0.5268640000000  0.4901300000000  0.5668540000000 1.0
C      1  0.4858530000000  0.5118640000000  0.4285480000000 1.0
C      1  0.4541500000000  0.4547470000000  0.4599890000000 1.0
END
