TITL C-107238-96-6 0.0790291130935923 125000 -256.703905030961 0 0 39 (C1) n - 1
REM
REM in /rds/project/t2_vol4/rds-t2-cs072/BORA/CARBON/from-Arr/AIRSS/Generating-Clusters/GAP-ML-2020/Only-C1/SD-CG/HFTN-CG
REM
REM
REM
REM
REM
REM ./C.cell (11c1c37f851c82e70ff6c80c92926a4b)
REM AIRSS Version 0.9.1 bugfix July 2018 build 013d7b7c2542+ Fri, 06 Jul 2018 19:26:36 +0100
REM compiler GCC version 9.3.0
REM options -cpp -mtune=generic -march=x86-64 -g -O0
REM seed -1721190766 -932197040 -1879773562 1995935915 1391132182 830673141 45740275 -1876208294 1512798170 714737290 2059541494 -378658703 1209011973 -2082272183 -1846327443 1117451106 1869706038 741843829 -481513808 -2007930022 1786488963 1661863364 362912588 -902735296 1833371382 302567771 -99972046 -1275173195 2037316238 -1280739059 1273800417 -1741354462 -1667254459
REM
CELL 1.54180   50.00000   50.00000   50.00000   90.00000   90.00000   90.00000
LATT -1
SFAC C  
C      1  0.4777230000000  0.5016700000000  0.4799300000000 1.0
C      1  0.4781080000000  0.5360480000000  0.5517450000000 1.0
C      1  0.4369690000000  0.5349750000000  0.4959360000000 1.0
C      1  0.5029010000000  0.5561000000000  0.5122280000000 1.0
C      1  0.5109180000000  0.4671690000000  0.4801960000000 1.0
C      1  0.5250170000000  0.4743400000000  0.4276810000000 1.0
C      1  0.5515600000000  0.5464530000000  0.5088530000000 1.0
C      1  0.5066200000000  0.4790770000000  0.5060960000000 1.0
C      1  0.5020930000000  0.4932440000000  0.4649150000000 1.0
C      1  0.5292160000000  0.4987360000000  0.5432330000000 1.0
C      1  0.4676980000000  0.4622460000000  0.4861750000000 1.0
C      1  0.5049550000000  0.5571570000000  0.4839320000000 1.0
C      1  0.5127350000000  0.5398900000000  0.4676030000000 1.0
C      1  0.5284450000000  0.5485600000000  0.5254000000000 1.0
C      1  0.5628530000000  0.5329980000000  0.4906070000000 1.0
C      1  0.4958720000000  0.4523690000000  0.5419110000000 1.0
C      1  0.5323340000000  0.4795720000000  0.5212680000000 1.0
C      1  0.4334040000000  0.5194840000000  0.4751350000000 1.0
C      1  0.4909480000000  0.4462510000000  0.4896650000000 1.0
C      1  0.4729920000000  0.4711380000000  0.4367880000000 1.0
C      1  0.4537250000000  0.5371950000000  0.5168980000000 1.0
C      1  0.5249210000000  0.5273040000000  0.5439860000000 1.0
C      1  0.5051510000000  0.4950270000000  0.5602340000000 1.0
C      1  0.4679840000000  0.4920250000000  0.5314340000000 1.0
C      1  0.4782330000000  0.5515740000000  0.5262970000000 1.0
C      1  0.4983420000000  0.4818470000000  0.4361740000000 1.0
C      1  0.4521650000000  0.5019620000000  0.4669100000000 1.0
C      1  0.4764730000000  0.4856020000000  0.5042780000000 1.0
C      1  0.5463270000000  0.5098850000000  0.4831530000000 1.0
C      1  0.4854980000000  0.4781520000000  0.5495550000000 1.0
C      1  0.4585560000000  0.5177830000000  0.5388980000000 1.0
C      1  0.5471490000000  0.4839460000000  0.4948990000000 1.0
C      1  0.5215970000000  0.4524310000000  0.5285450000000 1.0
C      1  0.5223790000000  0.5142560000000  0.4686210000000 1.0
C      1  0.5407170000000  0.4712540000000  0.4478100000000 1.0
C      1  0.4981070000000  0.4399020000000  0.5170600000000 1.0
C      1  0.5394760000000  0.4649700000000  0.4746900000000 1.0
C      1  0.5014090000000  0.5242750000000  0.5603450000000 1.0
C      1  0.4584290000000  0.4731300000000  0.4609180000000 1.0
END
