TITL C-105728-8578-1 -126.654660548015 125000 -340.633211301704 0 0 51 (C1) n - 1
REM
REM in /rds/project/t2_vol4/rds-t2-cs072/BORA/CARBON/from-Arr/AIRSS/Generating-Clusters/GAP-ML-2020/Only-C1/SD-CG/HFTN-CG
REM
REM
REM
REM
REM
REM ./C.cell (11c1c37f851c82e70ff6c80c92926a4b)
REM AIRSS Version 0.9.1 bugfix July 2018 build 013d7b7c2542+ Fri, 06 Jul 2018 19:26:36 +0100
REM compiler GCC version 9.3.0
REM options -cpp -mtune=generic -march=x86-64 -g -O0
REM seed -1390889271 -2129629709 -1587858293 -874215875 -740982368 246635757 2108997507 -714125359 -727963215 1826479773 -2039180331 -538329405 -1653642978 1305499796 -809578271 -306317315 1826608706 -265987680 -1349806337 869097379 -674753179 1375494529 -1356610453 -210252813 528744355 935887104 -244531773 1623448939 -847740624 142322285 285364750 -1293514201 -1429225917
REM
CELL 1.54180   50.00000   50.00000   50.00000   90.00000   90.00000   90.00000
LATT -1
SFAC C  
C      1  0.4621040000000  0.4608740000000  0.4548100000000 1.0
C      1  0.5276630000000  0.4669720000000  0.4704090000000 1.0
C      1  0.4970910000000  0.4464420000000  0.5091630000000 1.0
C      1  0.5401210000000  0.4849800000000  0.5450640000000 1.0
C      1  0.5271880000000  0.4597920000000  0.5400410000000 1.0
C      1  0.5083970000000  0.5414870000000  0.4706150000000 1.0
C      1  0.5217710000000  0.5629860000000  0.5302240000000 1.0
C      1  0.5365760000000  0.4989210000000  0.4349600000000 1.0
C      1  0.5609430000000  0.4972990000000  0.4797430000000 1.0
C      1  0.5597430000000  0.4920690000000  0.5263730000000 1.0
C      1  0.5514220000000  0.5330200000000  0.5408610000000 1.0
C      1  0.5248640000000  0.4487680000000  0.5146530000000 1.0
C      1  0.4876300000000  0.4645810000000  0.4435440000000 1.0
C      1  0.5629910000000  0.5198660000000  0.5203640000000 1.0
C      1  0.4952560000000  0.5210100000000  0.5144600000000 1.0
C      1  0.4925060000000  0.4909480000000  0.4358350000000 1.0
C      1  0.4662270000000  0.5049890000000  0.4783150000000 1.0
C      1  0.5309070000000  0.5609830000000  0.5043670000000 1.0
C      1  0.5586120000000  0.5230260000000  0.4912230000000 1.0
C      1  0.4795760000000  0.5266660000000  0.5647130000000 1.0
C      1  0.5256280000000  0.5393920000000  0.5451340000000 1.0
C      1  0.4885130000000  0.5490010000000  0.4950160000000 1.0
C      1  0.4898340000000  0.5065220000000  0.4616250000000 1.0
C      1  0.4376770000000  0.5031820000000  0.4775860000000 1.0
C      1  0.4403300000000  0.5302110000000  0.4865480000000 1.0
C      1  0.5411080000000  0.4586320000000  0.4946270000000 1.0
C      1  0.5009970000000  0.4685840000000  0.5484390000000 1.0
C      1  0.4812550000000  0.4546870000000  0.5328760000000 1.0
C      1  0.4428230000000  0.5194380000000  0.5358530000000 1.0
C      1  0.5459260000000  0.4864220000000  0.4567480000000 1.0
C      1  0.4547470000000  0.5278070000000  0.5601390000000 1.0
C      1  0.5101200000000  0.4921290000000  0.4812600000000 1.0
C      1  0.4745270000000  0.5013100000000  0.5061210000000 1.0
C      1  0.4555880000000  0.4637210000000  0.5263560000000 1.0
C      1  0.5193700000000  0.5122060000000  0.5011350000000 1.0
C      1  0.4408600000000  0.5376920000000  0.5129520000000 1.0
C      1  0.5021490000000  0.5301230000000  0.4462970000000 1.0
C      1  0.5049720000000  0.4508690000000  0.4618150000000 1.0
C      1  0.5328650000000  0.5373960000000  0.4878750000000 1.0
C      1  0.4587020000000  0.5499250000000  0.4950150000000 1.0
C      1  0.5044970000000  0.5685770000000  0.5093430000000 1.0
C      1  0.5598540000000  0.4787990000000  0.5011430000000 1.0
C      1  0.4496850000000  0.4938310000000  0.5221870000000 1.0
C      1  0.4329970000000  0.4844430000000  0.4981600000000 1.0
C      1  0.4600880000000  0.4468090000000  0.4791110000000 1.0
C      1  0.5023880000000  0.5204140000000  0.5468750000000 1.0
C      1  0.4901220000000  0.4787980000000  0.4969040000000 1.0
C      1  0.4885070000000  0.4404410000000  0.4829650000000 1.0
C      1  0.5137320000000  0.4943670000000  0.5529280000000 1.0
C      1  0.5131400000000  0.5100380000000  0.4273490000000 1.0
C      1  0.4454130000000  0.4585550000000  0.4998810000000 1.0
END
