TITL C-105671-526-3 -0.285674066279916 125000 -770.421286785491 0 0 109 (C1) n - 1
REM
REM in /rds/project/t2_vol4/rds-t2-cs072/BORA/CARBON/from-Arr/AIRSS/Generating-Clusters/GAP-ML-2020/Only-C1/SD-CG/HFTN-CG
REM
REM
REM
REM
REM
REM ./C.cell (11c1c37f851c82e70ff6c80c92926a4b)
REM AIRSS Version 0.9.1 bugfix July 2018 build 013d7b7c2542+ Fri, 06 Jul 2018 19:26:36 +0100
REM compiler GCC version 9.3.0
REM options -cpp -mtune=generic -march=x86-64 -g -O0
REM seed -328889545 -2112123567 -304471621 -1847815442 1822253880 779294011 1532620988 637261492 1219783743 412058645 975773633 -577821370 -1866443866 759193615 414610323 -681834714 1930287493 -1575699544 2075860462 -130280229 888663058 2001596896 1947778809 481616509 1122416523 -2018455347 946089255 -1890434168 1721467180 1441419624 808756529 -1153489451 144691534
REM
CELL 1.54180   50.00000   50.00000   50.00000   90.00000   90.00000   90.00000
LATT -1
SFAC C  
C      1  0.5781630000000  0.5503690000000  0.4899590000000 1.0
C      1  0.5902170000000  0.5050020000000  0.4869670000000 1.0
C      1  0.5434960000000  0.5822810000000  0.5087220000000 1.0
C      1  0.5369080000000  0.4517650000000  0.5492580000000 1.0
C      1  0.4988670000000  0.5826330000000  0.4794270000000 1.0
C      1  0.5686150000000  0.5478700000000  0.5371280000000 1.0
C      1  0.5013610000000  0.4486420000000  0.5117440000000 1.0
C      1  0.4893010000000  0.5387230000000  0.4961110000000 1.0
C      1  0.4827220000000  0.4845540000000  0.5828810000000 1.0
C      1  0.5210770000000  0.3920340000000  0.5192600000000 1.0
C      1  0.5478770000000  0.4299600000000  0.4595900000000 1.0
C      1  0.5349730000000  0.4623170000000  0.4227170000000 1.0
C      1  0.5849220000000  0.5258760000000  0.5296150000000 1.0
C      1  0.4208980000000  0.4802580000000  0.5231100000000 1.0
C      1  0.4543980000000  0.4581190000000  0.5502380000000 1.0
C      1  0.5106150000000  0.5625250000000  0.5689920000000 1.0
C      1  0.4290860000000  0.5568450000000  0.4857170000000 1.0
C      1  0.4563880000000  0.4794900000000  0.5721990000000 1.0
C      1  0.4917620000000  0.5115450000000  0.5861850000000 1.0
C      1  0.5310970000000  0.5707240000000  0.4467360000000 1.0
C      1  0.5323150000000  0.4380000000000  0.4390230000000 1.0
C      1  0.5768480000000  0.5124750000000  0.4625600000000 1.0
C      1  0.4405420000000  0.4762180000000  0.4375600000000 1.0
C      1  0.4598600000000  0.5525040000000  0.4438320000000 1.0
C      1  0.5194000000000  0.5871860000000  0.4974620000000 1.0
C      1  0.5914940000000  0.5283730000000  0.5024840000000 1.0
C      1  0.4899260000000  0.5187560000000  0.4075780000000 1.0
C      1  0.4465420000000  0.5320860000000  0.4272790000000 1.0
C      1  0.5011730000000  0.5026150000000  0.4638040000000 1.0
C      1  0.4871890000000  0.5591230000000  0.4362880000000 1.0
C      1  0.4831800000000  0.5564260000000  0.5658490000000 1.0
C      1  0.5026850000000  0.5411240000000  0.4201930000000 1.0
C      1  0.5597980000000  0.5096900000000  0.5630800000000 1.0
C      1  0.5046880000000  0.5756250000000  0.4521550000000 1.0
C      1  0.5849120000000  0.4805310000000  0.5001090000000 1.0
C      1  0.4630510000000  0.5647490000000  0.5460730000000 1.0
C      1  0.4895210000000  0.4547530000000  0.4281060000000 1.0
C      1  0.5789660000000  0.4763750000000  0.5281060000000 1.0
C      1  0.5659450000000  0.4637070000000  0.4872880000000 1.0
C      1  0.4148830000000  0.5318240000000  0.4913910000000 1.0
C      1  0.4199800000000  0.5541380000000  0.5327280000000 1.0
C      1  0.5091800000000  0.5184850000000  0.5364850000000 1.0
C      1  0.4627680000000  0.4814760000000  0.5311160000000 1.0
C      1  0.5157490000000  0.4643110000000  0.5302930000000 1.0
C      1  0.4509740000000  0.5234060000000  0.5208180000000 1.0
C      1  0.5024900000000  0.4643570000000  0.5790550000000 1.0
C      1  0.5472410000000  0.4217520000000  0.4859110000000 1.0
C      1  0.5266570000000  0.4000210000000  0.4927990000000 1.0
C      1  0.4817020000000  0.4275380000000  0.5230400000000 1.0
C      1  0.4751010000000  0.5667810000000  0.4907550000000 1.0
C      1  0.4079640000000  0.5338690000000  0.5182720000000 1.0
C      1  0.5782780000000  0.5012310000000  0.5428310000000 1.0
C      1  0.5427570000000  0.4814150000000  0.4788960000000 1.0
C      1  0.4601800000000  0.4249980000000  0.5018340000000 1.0
C      1  0.5656970000000  0.5651820000000  0.5123350000000 1.0
C      1  0.4262510000000  0.4626270000000  0.4558840000000 1.0
C      1  0.5533950000000  0.5372730000000  0.5598570000000 1.0
C      1  0.5139340000000  0.4795110000000  0.4749540000000 1.0
C      1  0.4391990000000  0.5507460000000  0.5536310000000 1.0
C      1  0.5069760000000  0.3965060000000  0.4734100000000 1.0
C      1  0.5488860000000  0.5505520000000  0.4431900000000 1.0
C      1  0.5600710000000  0.4410740000000  0.5036300000000 1.0
C      1  0.4958170000000  0.4394270000000  0.5666550000000 1.0
C      1  0.4365960000000  0.4406630000000  0.5053490000000 1.0
C      1  0.4469960000000  0.5287360000000  0.5705990000000 1.0
C      1  0.4256810000000  0.5068660000000  0.4817840000000 1.0
C      1  0.4919160000000  0.4674250000000  0.4914330000000 1.0
C      1  0.5034090000000  0.4326510000000  0.4398930000000 1.0
C      1  0.5702620000000  0.5412060000000  0.4623980000000 1.0
C      1  0.5198380000000  0.5167670000000  0.5849600000000 1.0
C      1  0.4717930000000  0.4556520000000  0.4719490000000 1.0
C      1  0.4730290000000  0.4366340000000  0.5504550000000 1.0
C      1  0.5596320000000  0.4917180000000  0.4539030000000 1.0
C      1  0.4695310000000  0.4695430000000  0.4453810000000 1.0
C      1  0.5494320000000  0.4865720000000  0.4278920000000 1.0
C      1  0.4525050000000  0.5607850000000  0.4703950000000 1.0
C      1  0.5197810000000  0.5801610000000  0.5505880000000 1.0
C      1  0.5081420000000  0.5265960000000  0.4760910000000 1.0
C      1  0.4918320000000  0.4161400000000  0.4609910000000 1.0
C      1  0.5311870000000  0.5354720000000  0.4245020000000 1.0
C      1  0.5342130000000  0.4994410000000  0.5018330000000 1.0
C      1  0.4832270000000  0.4896610000000  0.5119200000000 1.0
C      1  0.4695220000000  0.4274760000000  0.4745410000000 1.0
C      1  0.5191980000000  0.5713540000000  0.5246130000000 1.0
C      1  0.4404110000000  0.5034300000000  0.4246540000000 1.0
C      1  0.4600820000000  0.5731680000000  0.5175760000000 1.0
C      1  0.4739250000000  0.5329890000000  0.5789200000000 1.0
C      1  0.4703760000000  0.5159200000000  0.5014020000000 1.0
C      1  0.5291990000000  0.5262470000000  0.4956400000000 1.0
C      1  0.5389360000000  0.4962540000000  0.5779050000000 1.0
C      1  0.5302230000000  0.4697860000000  0.5736490000000 1.0
C      1  0.5180800000000  0.4284240000000  0.5535480000000 1.0
C      1  0.4555660000000  0.5070490000000  0.4773820000000 1.0
C      1  0.4175250000000  0.4827840000000  0.4952220000000 1.0
C      1  0.5116650000000  0.5399010000000  0.5177850000000 1.0
C      1  0.5090690000000  0.4697010000000  0.4126390000000 1.0
C      1  0.4742370000000  0.4981110000000  0.4576250000000 1.0
C      1  0.4612680000000  0.5164190000000  0.4099360000000 1.0
C      1  0.5614660000000  0.4525620000000  0.5310320000000 1.0
C      1  0.5093460000000  0.4978740000000  0.4065620000000 1.0
C      1  0.4392500000000  0.4999300000000  0.5351040000000 1.0
C      1  0.5127820000000  0.4931460000000  0.5235140000000 1.0
C      1  0.4406520000000  0.5019870000000  0.5641470000000 1.0
C      1  0.5078730000000  0.4105620000000  0.5336710000000 1.0
C      1  0.4322820000000  0.4547920000000  0.5297850000000 1.0
C      1  0.5344730000000  0.5081970000000  0.4155270000000 1.0
C      1  0.4244370000000  0.4580710000000  0.4829770000000 1.0
C      1  0.5293190000000  0.5419510000000  0.5753030000000 1.0
C      1  0.4329280000000  0.5688800000000  0.5118710000000 1.0
END
