TITL C-105673-560-3 515.335959052001 125000 -1022.89740820219 0 0 146 (C1) n - 1
REM
REM in /rds/project/t2_vol4/rds-t2-cs072/BORA/CARBON/from-Arr/AIRSS/Generating-Clusters/GAP-ML-2020/Only-C1/SD-CG/HFTN-CG
REM
REM
REM
REM
REM
REM ./C.cell (11c1c37f851c82e70ff6c80c92926a4b)
REM AIRSS Version 0.9.1 bugfix July 2018 build 013d7b7c2542+ Fri, 06 Jul 2018 19:26:36 +0100
REM compiler GCC version 9.3.0
REM options -cpp -mtune=generic -march=x86-64 -g -O0
REM seed -1687775557 -2019853827 213515910 -1070428669 313288211 -407289921 2013100429 1885567181 2005804559 -816734224 156340020 1412761785 -989740711 973287907 -419730203 -291133845 1683292657 1351751230 115640750 2040258505 -178311491 1239306022 -360404764 1322714011 -128175106 514845578 -671397552 -1517734346 1027258906 -1147292679 708439719 -1833100219 -859555238
REM
CELL 1.54180   50.00000   50.00000   50.00000   90.00000   90.00000   90.00000
LATT -1
SFAC C  
C      1  0.4591800000000  0.5138760000000  0.4088940000000 1.0
C      1  0.5207620000000  0.5152050000000  0.4082550000000 1.0
C      1  0.5247360000000  0.5329050000000  0.5597420000000 1.0
C      1  0.4916140000000  0.4198790000000  0.5517660000000 1.0
C      1  0.5617160000000  0.5765080000000  0.4829320000000 1.0
C      1  0.5984730000000  0.4804320000000  0.5173570000000 1.0
C      1  0.4683080000000  0.5391700000000  0.5142570000000 1.0
C      1  0.5178540000000  0.4507520000000  0.4209070000000 1.0
C      1  0.5053330000000  0.5755330000000  0.5140100000000 1.0
C      1  0.5422320000000  0.5895860000000  0.4660590000000 1.0
C      1  0.4041790000000  0.4864620000000  0.4685110000000 1.0
C      1  0.4560420000000  0.5941760000000  0.5325150000000 1.0
C      1  0.5797020000000  0.5423300000000  0.4469110000000 1.0
C      1  0.5153280000000  0.4912360000000  0.5955210000000 1.0
C      1  0.5267640000000  0.5595550000000  0.5028880000000 1.0
C      1  0.5932180000000  0.4964860000000  0.5643280000000 1.0
C      1  0.4335510000000  0.5785560000000  0.5404740000000 1.0
C      1  0.4508850000000  0.4834240000000  0.4116640000000 1.0
C      1  0.4616560000000  0.5088980000000  0.4610900000000 1.0
C      1  0.5770240000000  0.5196150000000  0.5706260000000 1.0
C      1  0.4935760000000  0.4870320000000  0.5747300000000 1.0
C      1  0.5593810000000  0.5406650000000  0.4267640000000 1.0
C      1  0.3968940000000  0.5019890000000  0.4918940000000 1.0
C      1  0.4177820000000  0.4485420000000  0.5380620000000 1.0
C      1  0.5340850000000  0.4696270000000  0.5922780000000 1.0
C      1  0.5367680000000  0.5583060000000  0.4250970000000 1.0
C      1  0.5779710000000  0.5473670000000  0.5182170000000 1.0
C      1  0.5804590000000  0.5580410000000  0.4721790000000 1.0
C      1  0.5579210000000  0.5111720000000  0.5913170000000 1.0
C      1  0.4708290000000  0.4628300000000  0.4148950000000 1.0
C      1  0.4842280000000  0.4584940000000  0.5789030000000 1.0
C      1  0.4813810000000  0.4003420000000  0.4993380000000 1.0
C      1  0.5006410000000  0.4828160000000  0.4698630000000 1.0
C      1  0.4341770000000  0.4229450000000  0.5023280000000 1.0
C      1  0.5796820000000  0.4732570000000  0.5735000000000 1.0
C      1  0.5338510000000  0.5817260000000  0.4408720000000 1.0
C      1  0.4221350000000  0.5196820000000  0.4935640000000 1.0
C      1  0.4783220000000  0.5124930000000  0.4323060000000 1.0
C      1  0.5020010000000  0.4331680000000  0.4367410000000 1.0
C      1  0.4485700000000  0.4488660000000  0.5473920000000 1.0
C      1  0.4234580000000  0.5247820000000  0.4419160000000 1.0
C      1  0.5911650000000  0.5173520000000  0.4534080000000 1.0
C      1  0.4729340000000  0.5540840000000  0.4878760000000 1.0
C      1  0.4362330000000  0.4927190000000  0.5001590000000 1.0
C      1  0.5559960000000  0.4137860000000  0.4859560000000 1.0
C      1  0.5533250000000  0.5063150000000  0.5331390000000 1.0
C      1  0.4483320000000  0.5049290000000  0.5461810000000 1.0
C      1  0.4128540000000  0.4976970000000  0.4439450000000 1.0
C      1  0.4648540000000  0.4216770000000  0.5407140000000 1.0
C      1  0.5155520000000  0.4913390000000  0.4477380000000 1.0
C      1  0.5137210000000  0.5920890000000  0.4581490000000 1.0
C      1  0.4628050000000  0.4955870000000  0.5721500000000 1.0
C      1  0.5603830000000  0.4862690000000  0.4269460000000 1.0
C      1  0.5215070000000  0.4631080000000  0.4834540000000 1.0
C      1  0.4193100000000  0.5366490000000  0.5197300000000 1.0
C      1  0.3936430000000  0.4962140000000  0.5205190000000 1.0
C      1  0.5099690000000  0.4687340000000  0.5260280000000 1.0
C      1  0.4940780000000  0.5575490000000  0.5834250000000 1.0
C      1  0.5838550000000  0.4913060000000  0.4437700000000 1.0
C      1  0.4735920000000  0.4454490000000  0.4396240000000 1.0
C      1  0.5390480000000  0.5227820000000  0.4735390000000 1.0
C      1  0.4506740000000  0.4810060000000  0.4608440000000 1.0
C      1  0.4469810000000  0.5598080000000  0.4726610000000 1.0
C      1  0.5063680000000  0.4104000000000  0.5073260000000 1.0
C      1  0.5035240000000  0.5324290000000  0.3928820000000 1.0
C      1  0.5087820000000  0.4342920000000  0.4855700000000 1.0
C      1  0.5971740000000  0.5017980000000  0.5363940000000 1.0
C      1  0.5496280000000  0.4374560000000  0.5580190000000 1.0
C      1  0.5552210000000  0.5677910000000  0.5127420000000 1.0
C      1  0.5598610000000  0.4816960000000  0.5918430000000 1.0
C      1  0.4655040000000  0.5468720000000  0.5807380000000 1.0
C      1  0.5877810000000  0.4553460000000  0.5290870000000 1.0
C      1  0.4617610000000  0.4651220000000  0.5257910000000 1.0
C      1  0.3997300000000  0.5208530000000  0.5353160000000 1.0
C      1  0.4881090000000  0.5563460000000  0.5294170000000 1.0
C      1  0.5457310000000  0.4588780000000  0.4281480000000 1.0
C      1  0.4570270000000  0.5935680000000  0.5041220000000 1.0
C      1  0.4513060000000  0.5580700000000  0.5568330000000 1.0
C      1  0.5440600000000  0.5850610000000  0.5347620000000 1.0
C      1  0.4351650000000  0.5771120000000  0.4947030000000 1.0
C      1  0.4360870000000  0.5308720000000  0.4685280000000 1.0
C      1  0.5342810000000  0.5045330000000  0.5526480000000 1.0
C      1  0.5014950000000  0.4379480000000  0.5721340000000 1.0
C      1  0.5092800000000  0.4896190000000  0.5457880000000 1.0
C      1  0.5114780000000  0.5445150000000  0.4187300000000 1.0
C      1  0.4979360000000  0.4692020000000  0.4103130000000 1.0
C      1  0.5360200000000  0.5088530000000  0.4497450000000 1.0
C      1  0.4782040000000  0.5109660000000  0.5093690000000 1.0
C      1  0.4292350000000  0.4712390000000  0.4789570000000 1.0
C      1  0.4348210000000  0.4401140000000  0.4777190000000 1.0
C      1  0.4521820000000  0.5213090000000  0.5866380000000 1.0
C      1  0.5766840000000  0.5252670000000  0.5377550000000 1.0
C      1  0.4739250000000  0.5758540000000  0.5473970000000 1.0
C      1  0.4064760000000  0.4749420000000  0.5384000000000 1.0
C      1  0.4825120000000  0.5834140000000  0.4930400000000 1.0
C      1  0.4779740000000  0.5250580000000  0.3905400000000 1.0
C      1  0.5030780000000  0.4955970000000  0.4216430000000 1.0
C      1  0.5316960000000  0.4707950000000  0.5080270000000 1.0
C      1  0.4858470000000  0.4007990000000  0.4703340000000 1.0
C      1  0.5036330000000  0.5353740000000  0.5411510000000 1.0
C      1  0.5788490000000  0.4479650000000  0.4630890000000 1.0
C      1  0.5206810000000  0.5412480000000  0.4827840000000 1.0
C      1  0.4764110000000  0.4648170000000  0.4642040000000 1.0
C      1  0.5570820000000  0.4164060000000  0.5156050000000 1.0
C      1  0.4142060000000  0.4273950000000  0.5211460000000 1.0
C      1  0.4466790000000  0.5347170000000  0.5363970000000 1.0
C      1  0.5131540000000  0.4122770000000  0.5343180000000 1.0
C      1  0.5910120000000  0.5413730000000  0.4932320000000 1.0
C      1  0.5990950000000  0.5160500000000  0.4812470000000 1.0
C      1  0.4577920000000  0.4640180000000  0.5718980000000 1.0
C      1  0.4856760000000  0.4597120000000  0.5144140000000 1.0
C      1  0.5551120000000  0.5072000000000  0.4875710000000 1.0
C      1  0.5476160000000  0.5133220000000  0.4213270000000 1.0
C      1  0.5000860000000  0.5116610000000  0.5281000000000 1.0
C      1  0.4624860000000  0.4053480000000  0.4587790000000 1.0
C      1  0.5108330000000  0.4179700000000  0.4601820000000 1.0
C      1  0.4208260000000  0.4944110000000  0.5543450000000 1.0
C      1  0.5173910000000  0.5401220000000  0.5862020000000 1.0
C      1  0.4865900000000  0.5885140000000  0.4645600000000 1.0
C      1  0.4246190000000  0.5247470000000  0.5827750000000 1.0
C      1  0.5181350000000  0.5863140000000  0.5414200000000 1.0
C      1  0.4940080000000  0.5375870000000  0.4717460000000 1.0
C      1  0.4065490000000  0.5169340000000  0.5643790000000 1.0
C      1  0.5909850000000  0.4736700000000  0.4651580000000 1.0
C      1  0.5797050000000  0.4304860000000  0.4848200000000 1.0
C      1  0.4886600000000  0.5397220000000  0.4383600000000 1.0
C      1  0.5296610000000  0.5170290000000  0.5983150000000 1.0
C      1  0.4628340000000  0.5545350000000  0.4327630000000 1.0
C      1  0.5737910000000  0.4532400000000  0.5543270000000 1.0
C      1  0.4426020000000  0.5349640000000  0.4234730000000 1.0
C      1  0.4619760000000  0.5749450000000  0.4515870000000 1.0
C      1  0.5412580000000  0.4186390000000  0.4618170000000 1.0
C      1  0.4589000000000  0.4108220000000  0.5144730000000 1.0
C      1  0.5806170000000  0.4335270000000  0.5132230000000 1.0
C      1  0.4212430000000  0.5668830000000  0.5173170000000 1.0
C      1  0.5290850000000  0.4463420000000  0.5762080000000 1.0
C      1  0.4849910000000  0.5092080000000  0.4796370000000 1.0
C      1  0.4828130000000  0.4476090000000  0.4885960000000 1.0
C      1  0.5556440000000  0.4403900000000  0.4476210000000 1.0
C      1  0.4983460000000  0.5796480000000  0.5631070000000 1.0
C      1  0.5997610000000  0.4881110000000  0.4894060000000 1.0
C      1  0.4346070000000  0.4812290000000  0.4342430000000 1.0
C      1  0.5472330000000  0.4939020000000  0.5092330000000 1.0
C      1  0.4506770000000  0.4292480000000  0.4546400000000 1.0
C      1  0.5404380000000  0.4188040000000  0.5382270000000 1.0
C      1  0.4562340000000  0.4924000000000  0.5203600000000 1.0
END
