TITL C-101227-5621-8 100.120910597299 125000 -576.949483069723 0 0 82 (C1) n - 1
REM
REM in /rds/project/t2_vol4/rds-t2-cs072/BORA/CARBON/from-Arr/AIRSS/Generating-Clusters/GAP-ML-2020/Only-C1/SD-CG/HFTN-CG
REM
REM
REM
REM
REM
REM ./C.cell (11c1c37f851c82e70ff6c80c92926a4b)
REM AIRSS Version 0.9.1 bugfix July 2018 build 013d7b7c2542+ Fri, 06 Jul 2018 19:26:36 +0100
REM compiler GCC version 9.3.0
REM options -cpp -mtune=generic -march=x86-64 -g -O0
REM seed 1618935442 -1718257022 -662111320 -1875705231 -1801501305 264611295 1082295869 -667502568 -1625213915 -1619332986 1931772810 -57375765 1906688077 -295973690 -1963728598 -315366482 340802957 1070671548 -134110253 1846719421 -730145469 -191401210 1082580303 302783270 72012478 2031200376 -471663499 1047425536 868719831 -260734022 -1455616902 2038172426 1364874926
REM
CELL 1.54180   50.00000   50.00000   50.00000   90.00000   90.00000   90.00000
LATT -1
SFAC C  
C      1  0.4626530000000  0.4499680000000  0.4389590000000 1.0
C      1  0.5622260000000  0.4547510000000  0.4624170000000 1.0
C      1  0.5313720000000  0.4826280000000  0.4348840000000 1.0
C      1  0.4338960000000  0.5276430000000  0.4491350000000 1.0
C      1  0.4796340000000  0.5080990000000  0.5116130000000 1.0
C      1  0.4653250000000  0.4297060000000  0.5063330000000 1.0
C      1  0.5514860000000  0.4311270000000  0.4525070000000 1.0
C      1  0.5065720000000  0.5647700000000  0.5229640000000 1.0
C      1  0.5328640000000  0.5321930000000  0.5618360000000 1.0
C      1  0.4695970000000  0.5197390000000  0.4137910000000 1.0
C      1  0.5634970000000  0.5025450000000  0.4638120000000 1.0
C      1  0.4506020000000  0.4727160000000  0.5771660000000 1.0
C      1  0.4935190000000  0.5049910000000  0.4138380000000 1.0
C      1  0.4919660000000  0.5574780000000  0.5485350000000 1.0
C      1  0.5674520000000  0.5274130000000  0.5311650000000 1.0
C      1  0.5421730000000  0.5238020000000  0.4680100000000 1.0
C      1  0.5077770000000  0.5137380000000  0.5192560000000 1.0
C      1  0.5151310000000  0.4218250000000  0.4823710000000 1.0
C      1  0.4326240000000  0.4890670000000  0.4910590000000 1.0
C      1  0.4484040000000  0.5257110000000  0.4277150000000 1.0
C      1  0.4401590000000  0.4808110000000  0.5523620000000 1.0
C      1  0.5070410000000  0.4801200000000  0.4690540000000 1.0
C      1  0.4813420000000  0.5304630000000  0.4925050000000 1.0
C      1  0.5537240000000  0.4558960000000  0.5361810000000 1.0
C      1  0.5109380000000  0.4227040000000  0.5236940000000 1.0
C      1  0.5560430000000  0.5418030000000  0.4866490000000 1.0
C      1  0.5061760000000  0.5395000000000  0.5055630000000 1.0
C      1  0.4906830000000  0.5813200000000  0.5032830000000 1.0
C      1  0.5784940000000  0.5024590000000  0.4886790000000 1.0
C      1  0.4664630000000  0.5884240000000  0.5125160000000 1.0
C      1  0.5539780000000  0.4411370000000  0.5113000000000 1.0
C      1  0.5122170000000  0.4603100000000  0.4449710000000 1.0
C      1  0.4320150000000  0.4636840000000  0.5048300000000 1.0
C      1  0.5087200000000  0.4397400000000  0.5459840000000 1.0
C      1  0.5240650000000  0.4338020000000  0.4571070000000 1.0
C      1  0.4898290000000  0.5221300000000  0.4668970000000 1.0
C      1  0.4825450000000  0.4959220000000  0.4619700000000 1.0
C      1  0.4616670000000  0.5239670000000  0.5618960000000 1.0
C      1  0.5680180000000  0.4558500000000  0.4911110000000 1.0
C      1  0.5703450000000  0.4787750000000  0.5318820000000 1.0
C      1  0.4589750000000  0.4835020000000  0.4753590000000 1.0
C      1  0.5054390000000  0.5380350000000  0.5653180000000 1.0
C      1  0.4642060000000  0.5495030000000  0.5490790000000 1.0
C      1  0.4754450000000  0.4818530000000  0.5023030000000 1.0
C      1  0.5320270000000  0.5736780000000  0.4752000000000 1.0
C      1  0.5725170000000  0.5261590000000  0.5031100000000 1.0
C      1  0.4261220000000  0.5160070000000  0.4980840000000 1.0
C      1  0.4766490000000  0.4694700000000  0.5683560000000 1.0
C      1  0.4406200000000  0.5093210000000  0.5482040000000 1.0
C      1  0.5022020000000  0.4728380000000  0.4988460000000 1.0
C      1  0.4635390000000  0.5712450000000  0.4655640000000 1.0
C      1  0.5646020000000  0.5026850000000  0.5453360000000 1.0
C      1  0.5424880000000  0.5047520000000  0.5633200000000 1.0
C      1  0.4867880000000  0.4593640000000  0.4278560000000 1.0
C      1  0.5289820000000  0.4986990000000  0.4805320000000 1.0
C      1  0.5163830000000  0.5316540000000  0.4533350000000 1.0
C      1  0.5477430000000  0.5460390000000  0.5413140000000 1.0
C      1  0.4876350000000  0.5163240000000  0.5720210000000 1.0
C      1  0.4903530000000  0.4778760000000  0.4084660000000 1.0
C      1  0.4432630000000  0.5608860000000  0.4814100000000 1.0
C      1  0.5307990000000  0.4573550000000  0.5530440000000 1.0
C      1  0.4432610000000  0.5511010000000  0.5292410000000 1.0
C      1  0.5332010000000  0.4236130000000  0.5054940000000 1.0
C      1  0.4306350000000  0.5350240000000  0.4756140000000 1.0
C      1  0.5174360000000  0.5088010000000  0.4301150000000 1.0
C      1  0.5216420000000  0.4927910000000  0.5075580000000 1.0
C      1  0.4893280000000  0.5744990000000  0.4725160000000 1.0
C      1  0.4971820000000  0.4895030000000  0.5724240000000 1.0
C      1  0.4461760000000  0.5698920000000  0.5085480000000 1.0
C      1  0.4396860000000  0.4599980000000  0.5321000000000 1.0
C      1  0.5572880000000  0.4798950000000  0.4484600000000 1.0
C      1  0.5247210000000  0.4826820000000  0.5666660000000 1.0
C      1  0.4527660000000  0.4560930000000  0.4633380000000 1.0
C      1  0.5787300000000  0.4788840000000  0.5038950000000 1.0
C      1  0.5463140000000  0.5661810000000  0.4968530000000 1.0
C      1  0.5363940000000  0.5654840000000  0.5245530000000 1.0
C      1  0.4611440000000  0.4409570000000  0.5330310000000 1.0
C      1  0.5128600000000  0.5629380000000  0.4596650000000 1.0
C      1  0.4465110000000  0.4438620000000  0.4890700000000 1.0
C      1  0.4919140000000  0.4199300000000  0.5014030000000 1.0
C      1  0.4309390000000  0.5254130000000  0.5258190000000 1.0
C      1  0.4818640000000  0.4464860000000  0.5517790000000 1.0
END
