TITL C-101242-5670-1 -0.17497132136338 125000 -799.379439894008 0 0 115 (C1) n - 1
REM
REM in /rds/project/t2_vol4/rds-t2-cs072/BORA/CARBON/from-Arr/AIRSS/Generating-Clusters/GAP-ML-2020/Only-C1/SD-CG/HFTN-CG
REM
REM
REM
REM
REM
REM ./C.cell (11c1c37f851c82e70ff6c80c92926a4b)
REM AIRSS Version 0.9.1 bugfix July 2018 build 013d7b7c2542+ Fri, 06 Jul 2018 19:26:36 +0100
REM compiler GCC version 9.3.0
REM options -cpp -mtune=generic -march=x86-64 -g -O0
REM seed -998599289 1515861143 -1068333240 -183696222 1701252563 -202494651 -1721478999 -481135294 833504830 2032686096 1953193575 226208314 932598067 -229573746 395670979 -1178990106 134031849 199505918 2093030412 -708868700 -2075740083 1752559285 -2019017889 44145404 -884964172 -127191701 -106121311 990419740 -367511496 227719208 1244495545 -2054749146 -1747560256
REM
CELL 1.54180   50.00000   50.00000   50.00000   90.00000   90.00000   90.00000
LATT -1
SFAC C  
C      1  0.4195590000000  0.5355220000000  0.5376070000000 1.0
C      1  0.4191300000000  0.4776510000000  0.4670490000000 1.0
C      1  0.4767290000000  0.4781750000000  0.4124080000000 1.0
C      1  0.4972580000000  0.4731900000000  0.4948290000000 1.0
C      1  0.4592590000000  0.5387100000000  0.5735270000000 1.0
C      1  0.5010340000000  0.4533820000000  0.4439750000000 1.0
C      1  0.4844340000000  0.5739270000000  0.5418190000000 1.0
C      1  0.4360850000000  0.5522780000000  0.4580650000000 1.0
C      1  0.4979150000000  0.5174090000000  0.5903390000000 1.0
C      1  0.4327880000000  0.5034920000000  0.4590500000000 1.0
C      1  0.4450150000000  0.5715040000000  0.4774910000000 1.0
C      1  0.5511990000000  0.5486260000000  0.5550690000000 1.0
C      1  0.4661590000000  0.5127190000000  0.5015420000000 1.0
C      1  0.5328560000000  0.4168520000000  0.4770400000000 1.0
C      1  0.4698940000000  0.5782740000000  0.5167090000000 1.0
C      1  0.5719630000000  0.5268860000000  0.4840840000000 1.0
C      1  0.4429040000000  0.5689100000000  0.5055730000000 1.0
C      1  0.4573120000000  0.4911150000000  0.5737120000000 1.0
C      1  0.5116770000000  0.4917280000000  0.5874330000000 1.0
C      1  0.4797630000000  0.5648610000000  0.4486580000000 1.0
C      1  0.4576270000000  0.4279960000000  0.4631290000000 1.0
C      1  0.4598670000000  0.5288850000000  0.4182660000000 1.0
C      1  0.5160610000000  0.5776090000000  0.4912440000000 1.0
C      1  0.5173710000000  0.4449290000000  0.5788760000000 1.0
C      1  0.4431370000000  0.4327950000000  0.4873440000000 1.0
C      1  0.4615420000000  0.4949510000000  0.5265130000000 1.0
C      1  0.5380170000000  0.4585260000000  0.4841090000000 1.0
C      1  0.5407140000000  0.4841800000000  0.5848530000000 1.0
C      1  0.5433720000000  0.4566290000000  0.5814480000000 1.0
C      1  0.4699360000000  0.4741000000000  0.4876810000000 1.0
C      1  0.5131950000000  0.5778520000000  0.5419340000000 1.0
C      1  0.4123620000000  0.5290140000000  0.4933920000000 1.0
C      1  0.5606580000000  0.4286770000000  0.5431700000000 1.0
C      1  0.5082910000000  0.5112540000000  0.4104730000000 1.0
C      1  0.5053660000000  0.4830450000000  0.4094720000000 1.0
C      1  0.5666380000000  0.4591250000000  0.4486660000000 1.0
C      1  0.4699750000000  0.5144900000000  0.5856960000000 1.0
C      1  0.4982030000000  0.4655970000000  0.5839180000000 1.0
C      1  0.4703050000000  0.5815400000000  0.4702110000000 1.0
C      1  0.4534610000000  0.4444470000000  0.5289070000000 1.0
C      1  0.5097640000000  0.4535730000000  0.4775670000000 1.0
C      1  0.5740060000000  0.4727310000000  0.5504400000000 1.0
C      1  0.4866150000000  0.4843410000000  0.5412330000000 1.0
C      1  0.5676450000000  0.5641680000000  0.5395010000000 1.0
C      1  0.5252390000000  0.5820840000000  0.4617550000000 1.0
C      1  0.5138740000000  0.5258980000000  0.5032770000000 1.0
C      1  0.5158390000000  0.4258590000000  0.5560490000000 1.0
C      1  0.4742670000000  0.4675850000000  0.5671580000000 1.0
C      1  0.5173370000000  0.4976560000000  0.4903950000000 1.0
C      1  0.4845780000000  0.4164920000000  0.4633310000000 1.0
C      1  0.5575970000000  0.4929490000000  0.5636140000000 1.0
C      1  0.5347910000000  0.4968670000000  0.5455030000000 1.0
C      1  0.5264010000000  0.5607100000000  0.5634900000000 1.0
C      1  0.4802680000000  0.5551030000000  0.5638710000000 1.0
C      1  0.4072520000000  0.5027550000000  0.5063550000000 1.0
C      1  0.5480700000000  0.5651410000000  0.4529930000000 1.0
C      1  0.5282570000000  0.5850540000000  0.5181770000000 1.0
C      1  0.4870000000000  0.4193620000000  0.5112490000000 1.0
C      1  0.4358550000000  0.4917070000000  0.4317160000000 1.0
C      1  0.5313620000000  0.4234350000000  0.4493560000000 1.0
C      1  0.5775570000000  0.4675780000000  0.5222930000000 1.0
C      1  0.5555230000000  0.4342420000000  0.4899770000000 1.0
C      1  0.4374300000000  0.5301590000000  0.5589440000000 1.0
C      1  0.5318890000000  0.5211340000000  0.4223470000000 1.0
C      1  0.4148120000000  0.5065910000000  0.5332970000000 1.0
C      1  0.4701160000000  0.4438470000000  0.5505990000000 1.0
C      1  0.5034890000000  0.4241050000000  0.4428770000000 1.0
C      1  0.5028180000000  0.4203580000000  0.4862210000000 1.0
C      1  0.4866600000000  0.5832150000000  0.4932160000000 1.0
C      1  0.5309540000000  0.4736130000000  0.5270210000000 1.0
C      1  0.5807470000000  0.5490220000000  0.5186580000000 1.0
C      1  0.5299260000000  0.5480820000000  0.4368700000000 1.0
C      1  0.5412510000000  0.4815980000000  0.5006630000000 1.0
C      1  0.5438230000000  0.4470740000000  0.4360810000000 1.0
C      1  0.4077340000000  0.4769330000000  0.4920730000000 1.0
C      1  0.5394930000000  0.4131180000000  0.5505410000000 1.0
C      1  0.4301360000000  0.4654200000000  0.4428690000000 1.0
C      1  0.5233600000000  0.4688470000000  0.4294500000000 1.0
C      1  0.4515510000000  0.4687560000000  0.5127850000000 1.0
C      1  0.4877740000000  0.5379570000000  0.4675830000000 1.0
C      1  0.4414730000000  0.5014890000000  0.5502010000000 1.0
C      1  0.5083250000000  0.5706590000000  0.4415070000000 1.0
C      1  0.4518040000000  0.4471130000000  0.4426320000000 1.0
C      1  0.5276300000000  0.5476820000000  0.4866990000000 1.0
C      1  0.4632420000000  0.4988420000000  0.4744580000000 1.0
C      1  0.5641730000000  0.4877240000000  0.4518990000000 1.0
C      1  0.5752590000000  0.5002670000000  0.4751810000000 1.0
C      1  0.4589160000000  0.4245340000000  0.5095410000000 1.0
C      1  0.5050820000000  0.5441180000000  0.5740350000000 1.0
C      1  0.4289180000000  0.4581580000000  0.4961260000000 1.0
C      1  0.5370200000000  0.4954930000000  0.4405710000000 1.0
C      1  0.5152440000000  0.5056470000000  0.4620690000000 1.0
C      1  0.4953110000000  0.4347090000000  0.5361240000000 1.0
C      1  0.5172130000000  0.5363980000000  0.4618210000000 1.0
C      1  0.5011630000000  0.5289120000000  0.5484330000000 1.0
C      1  0.5701690000000  0.4904540000000  0.5038020000000 1.0
C      1  0.5672670000000  0.4404750000000  0.5171050000000 1.0
C      1  0.5562470000000  0.5829560000000  0.5205810000000 1.0
C      1  0.5063540000000  0.5017070000000  0.5546690000000 1.0
C      1  0.5481950000000  0.5223540000000  0.5376480000000 1.0
C      1  0.4553760000000  0.5506420000000  0.4365950000000 1.0
C      1  0.5587140000000  0.5531510000000  0.4781420000000 1.0
C      1  0.5214990000000  0.5314990000000  0.5290850000000 1.0
C      1  0.5702260000000  0.5212750000000  0.5145370000000 1.0
C      1  0.4750370000000  0.4568120000000  0.4302710000000 1.0
C      1  0.5736700000000  0.4460480000000  0.4714330000000 1.0
C      1  0.4856160000000  0.5102740000000  0.4560350000000 1.0
C      1  0.4223210000000  0.5490460000000  0.5126130000000 1.0
C      1  0.5028660000000  0.4656750000000  0.5245080000000 1.0
C      1  0.4558050000000  0.4995260000000  0.4138580000000 1.0
C      1  0.4853650000000  0.5205270000000  0.4256700000000 1.0
C      1  0.4214120000000  0.5297060000000  0.4667740000000 1.0
C      1  0.5710220000000  0.5685150000000  0.4994280000000 1.0
C      1  0.4859660000000  0.5317420000000  0.4966100000000 1.0
C      1  0.5640080000000  0.4499020000000  0.5626610000000 1.0
END
