TITL C-101245-5697-7 -2.76523077620259 125000 -227.287293109349 0 0 35 (C1) n - 1
REM
REM in /rds/project/t2_vol4/rds-t2-cs072/BORA/CARBON/from-Arr/AIRSS/Generating-Clusters/GAP-ML-2020/Only-C1/SD-CG/HFTN-CG
REM
REM
REM
REM
REM
REM ./C.cell (11c1c37f851c82e70ff6c80c92926a4b)
REM AIRSS Version 0.9.1 bugfix July 2018 build 013d7b7c2542+ Fri, 06 Jul 2018 19:26:36 +0100
REM compiler GCC version 9.3.0
REM options -cpp -mtune=generic -march=x86-64 -g -O0
REM seed 776916474 -774327134 570096526 1843918642 1308126171 -2043511726 807580410 470735901 -206593099 -1490447543 1402751017 -1342199097 214123233 1732780164 -29463091 -306731933 1193258060 724593464 1390668977 2001832534 962357020 -1182598973 -1013498626 341824304 919567739 1135935068 -624948341 884139147 -1891125803 1585943412 -222660843 -1001983584 447646008
REM
CELL 1.54180   50.00000   50.00000   50.00000   90.00000   90.00000   90.00000
LATT -1
SFAC C  
C      1  0.5145850000000  0.5100940000000  0.5510780000000 1.0
C      1  0.4920720000000  0.5537650000000  0.4560930000000 1.0
C      1  0.4694530000000  0.5549150000000  0.4993850000000 1.0
C      1  0.4957380000000  0.4633520000000  0.5330640000000 1.0
C      1  0.5151790000000  0.4530180000000  0.4761690000000 1.0
C      1  0.5013380000000  0.5478330000000  0.5405390000000 1.0
C      1  0.5491300000000  0.4980980000000  0.5198240000000 1.0
C      1  0.4395030000000  0.4614260000000  0.4886370000000 1.0
C      1  0.5385250000000  0.5187720000000  0.5331220000000 1.0
C      1  0.5429500000000  0.4961350000000  0.4732640000000 1.0
C      1  0.4760670000000  0.5514060000000  0.5290030000000 1.0
C      1  0.5208900000000  0.5382670000000  0.5211080000000 1.0
C      1  0.4668010000000  0.4537520000000  0.4954790000000 1.0
C      1  0.5574130000000  0.4574630000000  0.4969350000000 1.0
C      1  0.4924230000000  0.5490480000000  0.4839630000000 1.0
C      1  0.5222530000000  0.4875580000000  0.5122110000000 1.0
C      1  0.4478900000000  0.5118310000000  0.4794160000000 1.0
C      1  0.5057880000000  0.5270880000000  0.4987940000000 1.0
C      1  0.4719380000000  0.5084910000000  0.4634330000000 1.0
C      1  0.5305510000000  0.4638760000000  0.4553840000000 1.0
C      1  0.5582710000000  0.4853500000000  0.4962840000000 1.0
C      1  0.4752190000000  0.4494930000000  0.5218410000000 1.0
C      1  0.5048780000000  0.5322020000000  0.5640310000000 1.0
C      1  0.4803760000000  0.5313730000000  0.4500110000000 1.0
C      1  0.4989220000000  0.4939310000000  0.5324210000000 1.0
C      1  0.4891780000000  0.4634800000000  0.4787390000000 1.0
C      1  0.5318190000000  0.4451740000000  0.4984690000000 1.0
C      1  0.4910070000000  0.4907190000000  0.4732680000000 1.0
C      1  0.5455780000000  0.4839560000000  0.4479000000000 1.0
C      1  0.5217070000000  0.4580880000000  0.5217410000000 1.0
C      1  0.4835290000000  0.5105680000000  0.5144190000000 1.0
C      1  0.4619450000000  0.5272030000000  0.5248880000000 1.0
C      1  0.5165070000000  0.5023040000000  0.4845570000000 1.0
C      1  0.4404210000000  0.4865170000000  0.4861040000000 1.0
C      1  0.4501550000000  0.5334550000000  0.4984260000000 1.0
END
