TITL C-105666-579-2 -90.9659956129973 125000 -987.229069151488 0 0 141 (C1) n - 1
REM
REM in /rds/project/t2_vol4/rds-t2-cs072/BORA/CARBON/from-Arr/AIRSS/Generating-Clusters/GAP-ML-2020/Only-C1/SD-CG/HFTN-CG
REM
REM
REM
REM
REM
REM ./C.cell (11c1c37f851c82e70ff6c80c92926a4b)
REM AIRSS Version 0.9.1 bugfix July 2018 build 013d7b7c2542+ Fri, 06 Jul 2018 19:26:36 +0100
REM compiler GCC version 9.3.0
REM options -cpp -mtune=generic -march=x86-64 -g -O0
REM seed 1164685268 5531576 1200704235 1060636807 -2035568872 -680263943 -16813251 -1631504354 -1825715946 623801943 -1777389075 -1916094923 946478391 1106313601 505259873 -1999684569 -363114658 916355661 720020939 1001212159 -784463645 358428632 -2008972818 -2147435009 -371247083 573603454 -1153941301 -513899818 1709757062 -1470226252 -769509247 -1317043931 1181171217
REM
CELL 1.54180   50.00000   50.00000   50.00000   90.00000   90.00000   90.00000
LATT -1
SFAC C  
C      1  0.4508100000000  0.5785350000000  0.4606380000000 1.0
C      1  0.4214670000000  0.5352940000000  0.5136440000000 1.0
C      1  0.4855810000000  0.4232670000000  0.4953130000000 1.0
C      1  0.4420100000000  0.4137530000000  0.4330530000000 1.0
C      1  0.4797550000000  0.4860350000000  0.5916410000000 1.0
C      1  0.4569090000000  0.4527240000000  0.5452750000000 1.0
C      1  0.5131950000000  0.4274880000000  0.4301750000000 1.0
C      1  0.4873000000000  0.5185510000000  0.4065880000000 1.0
C      1  0.4708040000000  0.5267680000000  0.5300300000000 1.0
C      1  0.4492870000000  0.4558370000000  0.4881330000000 1.0
C      1  0.5186690000000  0.4067540000000  0.4694350000000 1.0
C      1  0.4367510000000  0.5828970000000  0.5027650000000 1.0
C      1  0.6038590000000  0.5010270000000  0.5027900000000 1.0
C      1  0.4859010000000  0.4594680000000  0.5859180000000 1.0
C      1  0.4923320000000  0.6102260000000  0.5220250000000 1.0
C      1  0.4746570000000  0.4949040000000  0.4718390000000 1.0
C      1  0.4514630000000  0.5264610000000  0.5072530000000 1.0
C      1  0.4913540000000  0.5366000000000  0.4898490000000 1.0
C      1  0.5139090000000  0.5201370000000  0.4516480000000 1.0
C      1  0.4634150000000  0.5477990000000  0.4914900000000 1.0
C      1  0.4160710000000  0.4414530000000  0.4557810000000 1.0
C      1  0.5632410000000  0.5386530000000  0.4324030000000 1.0
C      1  0.5333130000000  0.4232410000000  0.4499090000000 1.0
C      1  0.5344000000000  0.5606530000000  0.5666250000000 1.0
C      1  0.4191840000000  0.4888490000000  0.5183330000000 1.0
C      1  0.5136890000000  0.5243680000000  0.4195770000000 1.0
C      1  0.4921470000000  0.5741560000000  0.5778720000000 1.0
C      1  0.5576640000000  0.5561050000000  0.4517950000000 1.0
C      1  0.5382220000000  0.4579190000000  0.4806830000000 1.0
C      1  0.5975660000000  0.5159220000000  0.5270820000000 1.0
C      1  0.4389110000000  0.5526240000000  0.4701700000000 1.0
C      1  0.5354620000000  0.4369790000000  0.5014450000000 1.0
C      1  0.4710630000000  0.5789480000000  0.4408160000000 1.0
C      1  0.4757880000000  0.5582050000000  0.5343140000000 1.0
C      1  0.5157050000000  0.4024990000000  0.5247260000000 1.0
C      1  0.4600410000000  0.4757650000000  0.4477830000000 1.0
C      1  0.5328250000000  0.5923740000000  0.4763940000000 1.0
C      1  0.5487360000000  0.5141400000000  0.4861950000000 1.0
C      1  0.5655690000000  0.4673640000000  0.4388210000000 1.0
C      1  0.5078870000000  0.5558270000000  0.4194940000000 1.0
C      1  0.4956020000000  0.5178290000000  0.5157120000000 1.0
C      1  0.5756900000000  0.4681880000000  0.5788150000000 1.0
C      1  0.4782290000000  0.4500360000000  0.4811010000000 1.0
C      1  0.4264390000000  0.5434000000000  0.5664960000000 1.0
C      1  0.5153920000000  0.4156730000000  0.4976670000000 1.0
C      1  0.5933960000000  0.4855880000000  0.5721730000000 1.0
C      1  0.5910180000000  0.5043190000000  0.4542070000000 1.0
C      1  0.4907650000000  0.4088680000000  0.4341690000000 1.0
C      1  0.4464470000000  0.4794890000000  0.5068240000000 1.0
C      1  0.4932330000000  0.4750050000000  0.4883560000000 1.0
C      1  0.4498950000000  0.4299970000000  0.5265120000000 1.0
C      1  0.5452910000000  0.5881790000000  0.5004620000000 1.0
C      1  0.5229650000000  0.5407740000000  0.5844410000000 1.0
C      1  0.4461220000000  0.5196450000000  0.4299410000000 1.0
C      1  0.4635810000000  0.5716410000000  0.5101070000000 1.0
C      1  0.5991620000000  0.5169370000000  0.4793280000000 1.0
C      1  0.5413250000000  0.4414670000000  0.5325850000000 1.0
C      1  0.5246690000000  0.4210780000000  0.5449750000000 1.0
C      1  0.4316670000000  0.5278230000000  0.4543150000000 1.0
C      1  0.4589100000000  0.5036210000000  0.5481800000000 1.0
C      1  0.5630940000000  0.5234220000000  0.5661690000000 1.0
C      1  0.5811680000000  0.5046930000000  0.5505730000000 1.0
C      1  0.5132650000000  0.4817900000000  0.5410810000000 1.0
C      1  0.4785800000000  0.4422110000000  0.5648280000000 1.0
C      1  0.4034870000000  0.4623250000000  0.5232520000000 1.0
C      1  0.4223810000000  0.5073970000000  0.4742470000000 1.0
C      1  0.4664750000000  0.4245030000000  0.4328170000000 1.0
C      1  0.5405500000000  0.5596490000000  0.4957080000000 1.0
C      1  0.4213630000000  0.5602670000000  0.4952000000000 1.0
C      1  0.5198240000000  0.4780810000000  0.4767730000000 1.0
C      1  0.4072480000000  0.4455370000000  0.5008510000000 1.0
C      1  0.5630950000000  0.5506550000000  0.5603950000000 1.0
C      1  0.5617050000000  0.4864550000000  0.5316210000000 1.0
C      1  0.4895430000000  0.4028720000000  0.5370520000000 1.0
C      1  0.4668160000000  0.5066120000000  0.5779360000000 1.0
C      1  0.4352050000000  0.4324170000000  0.5009410000000 1.0
C      1  0.5063180000000  0.4768950000000  0.5948140000000 1.0
C      1  0.5696360000000  0.4392250000000  0.5228790000000 1.0
C      1  0.4924230000000  0.3980340000000  0.4596310000000 1.0
C      1  0.4505030000000  0.5515010000000  0.5763030000000 1.0
C      1  0.4770790000000  0.4506930000000  0.4465260000000 1.0
C      1  0.5092150000000  0.5603830000000  0.4960170000000 1.0
C      1  0.4960160000000  0.5878650000000  0.4505630000000 1.0
C      1  0.4705900000000  0.5335340000000  0.5871020000000 1.0
C      1  0.5763220000000  0.4377100000000  0.4747190000000 1.0
C      1  0.4105120000000  0.5120750000000  0.5010400000000 1.0
C      1  0.5270060000000  0.5532050000000  0.5369420000000 1.0
C      1  0.4705600000000  0.4033700000000  0.4799140000000 1.0
C      1  0.4267230000000  0.4160860000000  0.4562730000000 1.0
C      1  0.4663150000000  0.4791930000000  0.5301540000000 1.0
C      1  0.5648740000000  0.4269420000000  0.4981140000000 1.0
C      1  0.5550580000000  0.4902180000000  0.4235470000000 1.0
C      1  0.5353690000000  0.5141740000000  0.5761500000000 1.0
C      1  0.5058400000000  0.5951080000000  0.5391630000000 1.0
C      1  0.5801060000000  0.4652990000000  0.5211350000000 1.0
C      1  0.4287860000000  0.4996130000000  0.5449050000000 1.0
C      1  0.4514270000000  0.5023180000000  0.4893980000000 1.0
C      1  0.5409020000000  0.5796820000000  0.4515300000000 1.0
C      1  0.4908690000000  0.5198340000000  0.4663790000000 1.0
C      1  0.5144770000000  0.5851290000000  0.5655340000000 1.0
C      1  0.5283520000000  0.4963020000000  0.4141910000000 1.0
C      1  0.5740710000000  0.5588200000000  0.5346010000000 1.0
C      1  0.5535810000000  0.4447710000000  0.4560860000000 1.0
C      1  0.5398460000000  0.4684230000000  0.5447630000000 1.0
C      1  0.4714970000000  0.4146390000000  0.5199750000000 1.0
C      1  0.4972020000000  0.4222590000000  0.5571110000000 1.0
C      1  0.4190160000000  0.5291620000000  0.5449980000000 1.0
C      1  0.5455170000000  0.5081700000000  0.5140810000000 1.0
C      1  0.4959880000000  0.5483060000000  0.5901650000000 1.0
C      1  0.4426510000000  0.4112090000000  0.4802220000000 1.0
C      1  0.4654390000000  0.5353210000000  0.4152150000000 1.0
C      1  0.4935930000000  0.4849960000000  0.5182190000000 1.0
C      1  0.5317300000000  0.4865540000000  0.5889120000000 1.0
C      1  0.5883350000000  0.4761460000000  0.4536170000000 1.0
C      1  0.5939780000000  0.4594860000000  0.4760530000000 1.0
C      1  0.5227320000000  0.5230100000000  0.5284920000000 1.0
C      1  0.4564140000000  0.4925560000000  0.4243840000000 1.0
C      1  0.5177350000000  0.5072890000000  0.5519740000000 1.0
C      1  0.5057440000000  0.4778590000000  0.4142130000000 1.0
C      1  0.5497010000000  0.5690440000000  0.5227950000000 1.0
C      1  0.4131700000000  0.4811440000000  0.4673820000000 1.0
C      1  0.4789700000000  0.5593130000000  0.4213940000000 1.0
C      1  0.5038130000000  0.5666850000000  0.5260240000000 1.0
C      1  0.5009150000000  0.4531810000000  0.4278100000000 1.0
C      1  0.5597720000000  0.5436910000000  0.4796240000000 1.0
C      1  0.5877290000000  0.5412210000000  0.4896630000000 1.0
C      1  0.4001070000000  0.4563490000000  0.4750960000000 1.0
C      1  0.4307770000000  0.4664460000000  0.5543340000000 1.0
C      1  0.4068470000000  0.4541900000000  0.5498870000000 1.0
C      1  0.5907520000000  0.5421880000000  0.5187420000000 1.0
C      1  0.4526740000000  0.5967270000000  0.4829990000000 1.0
C      1  0.4688610000000  0.5690150000000  0.5619400000000 1.0
C      1  0.5179470000000  0.5771100000000  0.4355020000000 1.0
C      1  0.5288740000000  0.5042870000000  0.4695620000000 1.0
C      1  0.5480580000000  0.4684910000000  0.5740920000000 1.0
C      1  0.4364140000000  0.4639930000000  0.4613090000000 1.0
C      1  0.4808810000000  0.4922100000000  0.4087420000000 1.0
C      1  0.5027430000000  0.5882840000000  0.4790550000000 1.0
C      1  0.5715770000000  0.5130580000000  0.4340500000000 1.0
C      1  0.4803720000000  0.5978560000000  0.4975070000000 1.0
C      1  0.5981950000000  0.4731420000000  0.5009570000000 1.0
END
