TITL C-102208-7097-9 -62.4682180635704 125000 -621.921485519341 0 0 86 (C1) n - 1
REM
REM in /rds/project/t2_vol4/rds-t2-cs072/BORA/CARBON/from-Arr/AIRSS/Generating-Clusters/GAP-ML-2020/Only-C1/SD-CG/HFTN-CG
REM
REM
REM
REM
REM
REM ./C.cell (11c1c37f851c82e70ff6c80c92926a4b)
REM AIRSS Version 0.9.1 bugfix July 2018 build 013d7b7c2542+ Fri, 06 Jul 2018 19:26:36 +0100
REM compiler GCC version 9.3.0
REM options -cpp -mtune=generic -march=x86-64 -g -O0
REM seed 1349599670 708387973 291912433 1516868339 560447310 -2125494035 -1481871227 -587404853 -990526768 2085802101 -775551718 -1825228688 402327185 -1934934218 -1945255458 -1196676012 -1112676721 685453480 1625117962 -177852661 -1960905498 879427521 91153033 342741310 -1883525056 -1392316903 -1320820749 1189493714 1710925681 728312084 844556097 1083399010 924614723
REM
CELL 1.54180   50.00000   50.00000   50.00000   90.00000   90.00000   90.00000
LATT -1
SFAC C  
C      1  0.5315010000000  0.5050590000000  0.4293250000000 1.0
C      1  0.5261770000000  0.4205210000000  0.5063530000000 1.0
C      1  0.4604710000000  0.5640460000000  0.5308910000000 1.0
C      1  0.4970450000000  0.4571330000000  0.5721820000000 1.0
C      1  0.4920790000000  0.5188380000000  0.5235650000000 1.0
C      1  0.5709470000000  0.5338350000000  0.4872970000000 1.0
C      1  0.4706150000000  0.5015330000000  0.4876300000000 1.0
C      1  0.5151910000000  0.4371060000000  0.4610350000000 1.0
C      1  0.4278720000000  0.5141050000000  0.4594200000000 1.0
C      1  0.4959270000000  0.5288780000000  0.4042700000000 1.0
C      1  0.4278430000000  0.4708870000000  0.4796930000000 1.0
C      1  0.4971870000000  0.4179710000000  0.5101940000000 1.0
C      1  0.5588760000000  0.5477490000000  0.5086790000000 1.0
C      1  0.4859250000000  0.4828240000000  0.5772030000000 1.0
C      1  0.5625180000000  0.4668020000000  0.5463980000000 1.0
C      1  0.5777570000000  0.4726230000000  0.5225130000000 1.0
C      1  0.5087230000000  0.5520810000000  0.5567870000000 1.0
C      1  0.5149790000000  0.4801230000000  0.4313710000000 1.0
C      1  0.4967290000000  0.5656520000000  0.4430770000000 1.0
C      1  0.4340290000000  0.5403650000000  0.4713670000000 1.0
C      1  0.5005260000000  0.5295280000000  0.5755010000000 1.0
C      1  0.5550780000000  0.5102600000000  0.4449430000000 1.0
C      1  0.5313290000000  0.5064750000000  0.5119050000000 1.0
C      1  0.4859270000000  0.4793300000000  0.4329840000000 1.0
C      1  0.4690780000000  0.5094430000000  0.5131050000000 1.0
C      1  0.5678390000000  0.4870470000000  0.4543540000000 1.0
C      1  0.5542800000000  0.4617490000000  0.4531920000000 1.0
C      1  0.4680460000000  0.5763020000000  0.5078880000000 1.0
C      1  0.4817650000000  0.4769010000000  0.4808250000000 1.0
C      1  0.5588120000000  0.4474700000000  0.4774830000000 1.0
C      1  0.4426420000000  0.4954730000000  0.4425390000000 1.0
C      1  0.5389660000000  0.5555590000000  0.4582270000000 1.0
C      1  0.4165580000000  0.4972900000000  0.4800030000000 1.0
C      1  0.5569690000000  0.5404980000000  0.5367960000000 1.0
C      1  0.4866600000000  0.4369290000000  0.4666260000000 1.0
C      1  0.4767960000000  0.4284730000000  0.4940740000000 1.0
C      1  0.5185310000000  0.5289850000000  0.4204270000000 1.0
C      1  0.4565080000000  0.4413840000000  0.5113920000000 1.0
C      1  0.5017590000000  0.4722480000000  0.5205370000000 1.0
C      1  0.5099030000000  0.4963420000000  0.5294660000000 1.0
C      1  0.4522680000000  0.5163370000000  0.5639050000000 1.0
C      1  0.5295520000000  0.4272870000000  0.5353400000000 1.0
C      1  0.5683450000000  0.5145920000000  0.5446460000000 1.0
C      1  0.4484250000000  0.4694280000000  0.5489790000000 1.0
C      1  0.4718670000000  0.5523040000000  0.4386370000000 1.0
C      1  0.4264190000000  0.5384900000000  0.4997970000000 1.0
C      1  0.4336450000000  0.5233520000000  0.5437080000000 1.0
C      1  0.5326540000000  0.4874350000000  0.5758670000000 1.0
C      1  0.4724370000000  0.5351760000000  0.5699480000000 1.0
C      1  0.5238510000000  0.4952270000000  0.4867090000000 1.0
C      1  0.5214400000000  0.5535000000000  0.4356790000000 1.0
C      1  0.5096290000000  0.5194490000000  0.4784710000000 1.0
C      1  0.5012900000000  0.4229110000000  0.5386170000000 1.0
C      1  0.5277020000000  0.4573230000000  0.4436180000000 1.0
C      1  0.5824360000000  0.4874600000000  0.4788920000000 1.0
C      1  0.5844600000000  0.5103070000000  0.4957430000000 1.0
C      1  0.5077200000000  0.5023770000000  0.5811180000000 1.0
C      1  0.4741050000000  0.5282740000000  0.4209790000000 1.0
C      1  0.5765300000000  0.4639880000000  0.4943680000000 1.0
C      1  0.5823280000000  0.5013950000000  0.5229430000000 1.0
C      1  0.5121150000000  0.5325220000000  0.5048700000000 1.0
C      1  0.5252940000000  0.4598420000000  0.5716300000000 1.0
C      1  0.4722690000000  0.5731690000000  0.4814060000000 1.0
C      1  0.4848250000000  0.4386400000000  0.5541180000000 1.0
C      1  0.5061720000000  0.4736460000000  0.4934510000000 1.0
C      1  0.5566630000000  0.4919700000000  0.5600310000000 1.0
C      1  0.4663230000000  0.5006680000000  0.4278120000000 1.0
C      1  0.5358060000000  0.4300210000000  0.4815920000000 1.0
C      1  0.4599390000000  0.4887940000000  0.5667790000000 1.0
C      1  0.5301830000000  0.5573490000000  0.5076060000000 1.0
C      1  0.4207290000000  0.5025210000000  0.5284200000000 1.0
C      1  0.4349010000000  0.4596860000000  0.5051080000000 1.0
C      1  0.4443650000000  0.4701160000000  0.4557700000000 1.0
C      1  0.4790100000000  0.5571980000000  0.5523010000000 1.0
C      1  0.5584790000000  0.5350740000000  0.4614830000000 1.0
C      1  0.4147340000000  0.5128420000000  0.5032210000000 1.0
C      1  0.4987100000000  0.5761910000000  0.4695790000000 1.0
C      1  0.5316920000000  0.5557520000000  0.5402180000000 1.0
C      1  0.4298390000000  0.4759440000000  0.5287890000000 1.0
C      1  0.4847680000000  0.5174450000000  0.4701930000000 1.0
C      1  0.4736580000000  0.4620570000000  0.4553630000000 1.0
C      1  0.5246660000000  0.5700250000000  0.4802740000000 1.0
C      1  0.5422090000000  0.4467110000000  0.5523260000000 1.0
C      1  0.4619460000000  0.4464570000000  0.5397850000000 1.0
C      1  0.4555970000000  0.5570630000000  0.4620570000000 1.0
C      1  0.4376440000000  0.5458660000000  0.5263360000000 1.0
END
