TITL C-105651-488-8 -0.0818117718218866 125000 -296.014576161438 0 0 44 (C1) n - 1
REM
REM in /rds/project/t2_vol4/rds-t2-cs072/BORA/CARBON/from-Arr/AIRSS/Generating-Clusters/GAP-ML-2020/Only-C1/SD-CG/HFTN-CG
REM
REM
REM
REM
REM
REM ./C.cell (11c1c37f851c82e70ff6c80c92926a4b)
REM AIRSS Version 0.9.1 bugfix July 2018 build 013d7b7c2542+ Fri, 06 Jul 2018 19:26:36 +0100
REM compiler GCC version 9.3.0
REM options -cpp -mtune=generic -march=x86-64 -g -O0
REM seed -1657530159 247353816 -988421315 1193126522 -1166216083 807952185 505034166 507180943 835834836 2101596042 -78705410 -473264281 -92903202 942106921 438386545 -1938961330 1982891481 -1622192596 1008390146 1488452249 1107760768 88769264 -372524392 896810112 -1374219159 682627993 1507455554 1111185837 1851096769 1501444135 449011431 802640004 -621997852
REM
CELL 1.54180   50.00000   50.00000   50.00000   90.00000   90.00000   90.00000
LATT -1
SFAC C  
C      1  0.5035190000000  0.5102930000000  0.5078770000000 1.0
C      1  0.5016400000000  0.5474920000000  0.4551290000000 1.0
C      1  0.4916940000000  0.4550760000000  0.5402350000000 1.0
C      1  0.5439580000000  0.5146850000000  0.4765860000000 1.0
C      1  0.4734080000000  0.4654510000000  0.4619400000000 1.0
C      1  0.4522600000000  0.4653160000000  0.4822880000000 1.0
C      1  0.4558620000000  0.4559930000000  0.5087990000000 1.0
C      1  0.4998180000000  0.5192770000000  0.5349310000000 1.0
C      1  0.4958610000000  0.4826360000000  0.5778730000000 1.0
C      1  0.5011570000000  0.4440490000000  0.4960420000000 1.0
C      1  0.5335800000000  0.4807680000000  0.5487440000000 1.0
C      1  0.5182480000000  0.5411360000000  0.5384980000000 1.0
C      1  0.4550480000000  0.5208420000000  0.4614430000000 1.0
C      1  0.5671000000000  0.5126080000000  0.4924900000000 1.0
C      1  0.5655370000000  0.5346780000000  0.5116910000000 1.0
C      1  0.5176290000000  0.5105930000000  0.4363040000000 1.0
C      1  0.5000960000000  0.4567580000000  0.4704880000000 1.0
C      1  0.5546010000000  0.4893190000000  0.5050110000000 1.0
C      1  0.4593980000000  0.4931440000000  0.5422580000000 1.0
C      1  0.5440700000000  0.4982540000000  0.5297780000000 1.0
C      1  0.4554120000000  0.5108540000000  0.4879160000000 1.0
C      1  0.5200260000000  0.4586870000000  0.5359000000000 1.0
C      1  0.4821350000000  0.4976560000000  0.4980430000000 1.0
C      1  0.5260930000000  0.4713480000000  0.4675550000000 1.0
C      1  0.5400970000000  0.5312620000000  0.5226170000000 1.0
C      1  0.4462100000000  0.5009730000000  0.4430800000000 1.0
C      1  0.4889990000000  0.5068630000000  0.4349650000000 1.0
C      1  0.5100740000000  0.5528450000000  0.4834770000000 1.0
C      1  0.4700840000000  0.4855040000000  0.4417480000000 1.0
C      1  0.5010560000000  0.5703380000000  0.5032670000000 1.0
C      1  0.4803550000000  0.4455960000000  0.5159000000000 1.0
C      1  0.5200170000000  0.5392930000000  0.4358040000000 1.0
C      1  0.5230510000000  0.5279770000000  0.4939960000000 1.0
C      1  0.4456250000000  0.4798150000000  0.5217400000000 1.0
C      1  0.5331370000000  0.4968200000000  0.4559250000000 1.0
C      1  0.4781380000000  0.4747370000000  0.5568500000000 1.0
C      1  0.5211440000000  0.4855760000000  0.5741520000000 1.0
C      1  0.4387800000000  0.4889340000000  0.4946840000000 1.0
C      1  0.4975250000000  0.5577920000000  0.5276440000000 1.0
C      1  0.5414130000000  0.4674640000000  0.4922810000000 1.0
C      1  0.5251150000000  0.4520750000000  0.5092500000000 1.0
C      1  0.4718170000000  0.5474610000000  0.5375700000000 1.0
C      1  0.4784510000000  0.5309370000000  0.4472760000000 1.0
C      1  0.4707640000000  0.5208230000000  0.5399580000000 1.0
END
