TITL C-107223-8309-5 -347.107393526841 125000 -293.278553901646 0 0 44 (C1) n - 1
REM
REM in /rds/project/t2_vol4/rds-t2-cs072/BORA/CARBON/from-Arr/AIRSS/Generating-Clusters/GAP-ML-2020/Only-C1/SD-CG/HFTN-CG
REM
REM
REM
REM
REM
REM ./C.cell (11c1c37f851c82e70ff6c80c92926a4b)
REM AIRSS Version 0.9.1 bugfix July 2018 build 013d7b7c2542+ Fri, 06 Jul 2018 19:26:36 +0100
REM compiler GCC version 9.3.0
REM options -cpp -mtune=generic -march=x86-64 -g -O0
REM seed 894086492 -1686826214 186462629 -17095229 1472727392 -941574989 1123601271 1455290930 -649194632 1917207682 510248643 615226002 -1193534498 1674934265 -1516997645 1326887169 -1562524924 -959337197 1999895329 712535502 372256788 45215491 1732930896 1254162612 293602481 1584565139 1311143001 -1941733045 160244199 -412044841 1543608543 2019796779 -1049549727
REM
CELL 1.54180   50.00000   50.00000   50.00000   90.00000   90.00000   90.00000
LATT -1
SFAC C  
C      1  0.5306030000000  0.5225100000000  0.5414620000000 1.0
C      1  0.5220900000000  0.5449670000000  0.5031100000000 1.0
C      1  0.5574100000000  0.4682180000000  0.4724670000000 1.0
C      1  0.4588280000000  0.5195870000000  0.5447480000000 1.0
C      1  0.4806210000000  0.5670070000000  0.4894270000000 1.0
C      1  0.4692670000000  0.4600610000000  0.4640100000000 1.0
C      1  0.4995490000000  0.4760640000000  0.4880390000000 1.0
C      1  0.4868240000000  0.5150130000000  0.5475200000000 1.0
C      1  0.4597720000000  0.4743140000000  0.5242420000000 1.0
C      1  0.4866480000000  0.5560890000000  0.4420500000000 1.0
C      1  0.5333490000000  0.4478570000000  0.5076860000000 1.0
C      1  0.4704500000000  0.4502750000000  0.5329580000000 1.0
C      1  0.4751980000000  0.5569370000000  0.5140750000000 1.0
C      1  0.5340370000000  0.5360180000000  0.4594870000000 1.0
C      1  0.5520770000000  0.4941810000000  0.4782680000000 1.0
C      1  0.4906090000000  0.5085510000000  0.5154930000000 1.0
C      1  0.5013470000000  0.4885230000000  0.5508770000000 1.0
C      1  0.5063380000000  0.5365090000000  0.5457360000000 1.0
C      1  0.5330490000000  0.5091790000000  0.4627000000000 1.0
C      1  0.5415360000000  0.5269690000000  0.5160830000000 1.0
C      1  0.4945980000000  0.4645150000000  0.5384650000000 1.0
C      1  0.4454480000000  0.4973370000000  0.5324490000000 1.0
C      1  0.5393920000000  0.4491060000000  0.4789450000000 1.0
C      1  0.4531590000000  0.4979600000000  0.4867440000000 1.0
C      1  0.4971280000000  0.4572360000000  0.4642500000000 1.0
C      1  0.5023770000000  0.5543480000000  0.5246370000000 1.0
C      1  0.4832530000000  0.5060590000000  0.4549800000000 1.0
C      1  0.5507190000000  0.5016760000000  0.5060060000000 1.0
C      1  0.5464140000000  0.4813460000000  0.5266730000000 1.0
C      1  0.5180680000000  0.4414120000000  0.4622920000000 1.0
C      1  0.5059600000000  0.5029060000000  0.4745140000000 1.0
C      1  0.5532110000000  0.4548700000000  0.5256500000000 1.0
C      1  0.4661610000000  0.4422410000000  0.4844360000000 1.0
C      1  0.4965790000000  0.5648430000000  0.4680270000000 1.0
C      1  0.4757580000000  0.4873880000000  0.5027310000000 1.0
C      1  0.5027470000000  0.5225800000000  0.4950910000000 1.0
C      1  0.4601680000000  0.4889940000000  0.4615170000000 1.0
C      1  0.4549610000000  0.5372400000000  0.5205790000000 1.0
C      1  0.4847020000000  0.5306240000000  0.4439800000000 1.0
C      1  0.5229470000000  0.5557620000000  0.4755990000000 1.0
C      1  0.5056890000000  0.4554940000000  0.5110930000000 1.0
C      1  0.4802500000000  0.4382430000000  0.5074850000000 1.0
C      1  0.4418200000000  0.5142070000000  0.5074570000000 1.0
C      1  0.5288870000000  0.4947850000000  0.5459640000000 1.0
END
