TITL C-105662-662-3 152.186753892221 125000 -213.879311859279 0 0 32 (C1) n - 1
REM
REM in /rds/project/t2_vol4/rds-t2-cs072/BORA/CARBON/from-Arr/AIRSS/Generating-Clusters/GAP-ML-2020/Only-C1/SD-CG/HFTN-CG
REM
REM
REM
REM
REM
REM ./C.cell (11c1c37f851c82e70ff6c80c92926a4b)
REM AIRSS Version 0.9.1 bugfix July 2018 build 013d7b7c2542+ Fri, 06 Jul 2018 19:26:36 +0100
REM compiler GCC version 9.3.0
REM options -cpp -mtune=generic -march=x86-64 -g -O0
REM seed 1879201109 1027604441 -397074614 1941823263 519436448 1469651350 2060823229 1189277200 -1674637579 1497988215 -264031736 1996538247 -535169205 -803664150 -1576528020 886337506 28217789 478410572 226662790 1834522377 290368683 -79992589 -862583406 1296304260 1205801586 881178525 -1838406863 -277101444 382198919 -344108320 -1448916554 429180067 -2095293849
REM
CELL 1.54180   50.00000   50.00000   50.00000   90.00000   90.00000   90.00000
LATT -1
SFAC C  
C      1  0.5482410000000  0.4973420000000  0.5017690000000 1.0
C      1  0.4785170000000  0.5061990000000  0.5484080000000 1.0
C      1  0.5309680000000  0.5269060000000  0.4684760000000 1.0
C      1  0.5193000000000  0.4842540000000  0.5535900000000 1.0
C      1  0.5180620000000  0.5286800000000  0.5382870000000 1.0
C      1  0.5060990000000  0.5010100000000  0.5102490000000 1.0
C      1  0.4720200000000  0.5296450000000  0.5330160000000 1.0
C      1  0.4803300000000  0.4777860000000  0.4754520000000 1.0
C      1  0.5064760000000  0.5079140000000  0.5556500000000 1.0
C      1  0.5112410000000  0.4805650000000  0.4394600000000 1.0
C      1  0.4945580000000  0.4571080000000  0.4915070000000 1.0
C      1  0.5325600000000  0.5196980000000  0.5142870000000 1.0
C      1  0.4719350000000  0.4569220000000  0.5374770000000 1.0
C      1  0.5008000000000  0.5471920000000  0.4987700000000 1.0
C      1  0.4925240000000  0.4585210000000  0.5199020000000 1.0
C      1  0.5236260000000  0.4596730000000  0.4847960000000 1.0
C      1  0.5025470000000  0.5207790000000  0.4615260000000 1.0
C      1  0.5278130000000  0.5394200000000  0.4935550000000 1.0
C      1  0.5372750000000  0.4713500000000  0.5076240000000 1.0
C      1  0.4619440000000  0.5218870000000  0.4856700000000 1.0
C      1  0.4506920000000  0.4935220000000  0.5130580000000 1.0
C      1  0.4542140000000  0.5228540000000  0.5128340000000 1.0
C      1  0.5272880000000  0.4799000000000  0.4641610000000 1.0
C      1  0.5163560000000  0.4747740000000  0.5272380000000 1.0
C      1  0.4955790000000  0.5041040000000  0.4383030000000 1.0
C      1  0.5454720000000  0.5015500000000  0.4726080000000 1.0
C      1  0.4957280000000  0.5439180000000  0.5267640000000 1.0
C      1  0.4840190000000  0.4784880000000  0.4459110000000 1.0
C      1  0.4660030000000  0.4837740000000  0.5351290000000 1.0
C      1  0.4845590000000  0.5357710000000  0.4784610000000 1.0
C      1  0.4586170000000  0.4925080000000  0.4856740000000 1.0
C      1  0.5046340000000  0.4959880000000  0.4803890000000 1.0
END
