TITL C-101229-5672-3 -24.1334016616593 125000 -233.835638462498 0 0 36 (C1) n - 1
REM
REM in /rds/project/t2_vol4/rds-t2-cs072/BORA/CARBON/from-Arr/AIRSS/Generating-Clusters/GAP-ML-2020/Only-C1/SD-CG/HFTN-CG
REM
REM
REM
REM
REM
REM ./C.cell (11c1c37f851c82e70ff6c80c92926a4b)
REM AIRSS Version 0.9.1 bugfix July 2018 build 013d7b7c2542+ Fri, 06 Jul 2018 19:26:36 +0100
REM compiler GCC version 9.3.0
REM options -cpp -mtune=generic -march=x86-64 -g -O0
REM seed -510877431 295530834 883067612 -562954597 -1825853232 865592939 1316195794 246369081 1558043354 -1659521631 1468265731 180796396 1553923342 195578906 1267344739 849394262 861303337 429573770 1881250126 1710296857 146312779 -1328682364 -712596074 1199624058 -1999439100 900508294 -1312709661 1278550734 -1965511450 -1686359822 -1912951997 1263438911 778717407
REM
CELL 1.54180   50.00000   50.00000   50.00000   90.00000   90.00000   90.00000
LATT -1
SFAC C  
C      1  0.4567110000000  0.5174690000000  0.4896890000000 1.0
C      1  0.4371640000000  0.5033560000000  0.5316590000000 1.0
C      1  0.4545940000000  0.5287180000000  0.5351820000000 1.0
C      1  0.5585140000000  0.4572730000000  0.4917220000000 1.0
C      1  0.5255360000000  0.4644280000000  0.4612810000000 1.0
C      1  0.5423610000000  0.5235250000000  0.5126260000000 1.0
C      1  0.4830830000000  0.5601240000000  0.4999600000000 1.0
C      1  0.4721570000000  0.4672270000000  0.5214800000000 1.0
C      1  0.4978980000000  0.4624020000000  0.4572510000000 1.0
C      1  0.4409250000000  0.5229680000000  0.5117200000000 1.0
C      1  0.4813840000000  0.4975850000000  0.4584050000000 1.0
C      1  0.5235930000000  0.5125740000000  0.4713730000000 1.0
C      1  0.5009920000000  0.4619370000000  0.5247670000000 1.0
C      1  0.5169470000000  0.4829460000000  0.5360480000000 1.0
C      1  0.5340620000000  0.4946630000000  0.5156580000000 1.0
C      1  0.4818190000000  0.5320190000000  0.4872200000000 1.0
C      1  0.5124450000000  0.4964210000000  0.4953400000000 1.0
C      1  0.5388650000000  0.4898440000000  0.4621250000000 1.0
C      1  0.5088550000000  0.4476840000000  0.5005090000000 1.0
C      1  0.4671130000000  0.4676580000000  0.4933610000000 1.0
C      1  0.5096760000000  0.5660190000000  0.5090470000000 1.0
C      1  0.4621140000000  0.4920130000000  0.4793780000000 1.0
C      1  0.5571760000000  0.4810550000000  0.5061500000000 1.0
C      1  0.5397010000000  0.5309080000000  0.4863170000000 1.0
C      1  0.4800920000000  0.5122640000000  0.5334370000000 1.0
C      1  0.4604950000000  0.5743590000000  0.5049530000000 1.0
C      1  0.4872910000000  0.4515480000000  0.4813700000000 1.0
C      1  0.4967430000000  0.5209680000000  0.4634380000000 1.0
C      1  0.4836010000000  0.4779000000000  0.4402610000000 1.0
C      1  0.5124160000000  0.5157180000000  0.5743210000000 1.0
C      1  0.4915730000000  0.5134120000000  0.5069580000000 1.0
C      1  0.5033440000000  0.5037510000000  0.5525320000000 1.0
C      1  0.5320100000000  0.4499520000000  0.4850520000000 1.0
C      1  0.5279370000000  0.5472850000000  0.5056310000000 1.0
C      1  0.5607290000000  0.4841790000000  0.4788920000000 1.0
C      1  0.4600820000000  0.4878480000000  0.5348870000000 1.0
END
