TITL C-105677-622-4 -0.239698378652447 125000 -751.330175125909 0 0 105 (C1) n - 1
REM
REM in /rds/project/t2_vol4/rds-t2-cs072/BORA/CARBON/from-Arr/AIRSS/Generating-Clusters/GAP-ML-2020/Only-C1/SD-CG/HFTN-CG
REM
REM
REM
REM
REM
REM ./C.cell (11c1c37f851c82e70ff6c80c92926a4b)
REM AIRSS Version 0.9.1 bugfix July 2018 build 013d7b7c2542+ Fri, 06 Jul 2018 19:26:36 +0100
REM compiler GCC version 9.3.0
REM options -cpp -mtune=generic -march=x86-64 -g -O0
REM seed -642683673 -1287666766 567116991 -1960240753 -1394761887 1593610844 -152514531 258705282 -1648517569 1976697422 -788658938 -114673958 -436553823 1237964822 -2010580216 -26108334 -929178843 -1587386200 172645149 1598421724 1262679278 1333177950 -1797082316 617677061 -156385934 -340297395 -1144006371 -1464256154 -1699746731 -172175909 -32857959 1633908238 -1945103698
REM
CELL 1.54180   50.00000   50.00000   50.00000   90.00000   90.00000   90.00000
LATT -1
SFAC C  
C      1  0.5554480000000  0.5263450000000  0.5250520000000 1.0
C      1  0.5781270000000  0.5375850000000  0.4851530000000 1.0
C      1  0.4244970000000  0.5329210000000  0.4885530000000 1.0
C      1  0.4853410000000  0.4146950000000  0.4827660000000 1.0
C      1  0.5561340000000  0.5103780000000  0.5678330000000 1.0
C      1  0.5063890000000  0.5398900000000  0.5095480000000 1.0
C      1  0.4746220000000  0.4140980000000  0.5312460000000 1.0
C      1  0.5119860000000  0.5283540000000  0.5803280000000 1.0
C      1  0.4370680000000  0.5333920000000  0.4616640000000 1.0
C      1  0.4688000000000  0.5868240000000  0.5013510000000 1.0
C      1  0.4354180000000  0.4393870000000  0.5236920000000 1.0
C      1  0.5570880000000  0.5747980000000  0.4669300000000 1.0
C      1  0.5688510000000  0.4854610000000  0.4407070000000 1.0
C      1  0.5377030000000  0.4418590000000  0.5495350000000 1.0
C      1  0.4800900000000  0.5265270000000  0.5046390000000 1.0
C      1  0.5417530000000  0.5692160000000  0.4911350000000 1.0
C      1  0.5302890000000  0.5059220000000  0.4876680000000 1.0
C      1  0.5488310000000  0.4460910000000  0.4412290000000 1.0
C      1  0.5351910000000  0.4225090000000  0.4782480000000 1.0
C      1  0.5316530000000  0.5072730000000  0.5816260000000 1.0
C      1  0.4839320000000  0.5232670000000  0.5719790000000 1.0
C      1  0.4909040000000  0.4480890000000  0.5710440000000 1.0
C      1  0.5059760000000  0.5214050000000  0.4009990000000 1.0
C      1  0.5800380000000  0.5081720000000  0.4525510000000 1.0
C      1  0.5693200000000  0.4606190000000  0.4857940000000 1.0
C      1  0.4344110000000  0.4683240000000  0.4722730000000 1.0
C      1  0.4548300000000  0.4307830000000  0.5437380000000 1.0
C      1  0.5768730000000  0.4869900000000  0.4987420000000 1.0
C      1  0.5140830000000  0.5668930000000  0.5264910000000 1.0
C      1  0.4704790000000  0.4318860000000  0.4637760000000 1.0
C      1  0.5187040000000  0.5513480000000  0.4821900000000 1.0
C      1  0.5254200000000  0.4800940000000  0.5789590000000 1.0
C      1  0.5537110000000  0.4380850000000  0.4965910000000 1.0
C      1  0.4646400000000  0.4441940000000  0.5644560000000 1.0
C      1  0.5586620000000  0.5347300000000  0.5539340000000 1.0
C      1  0.4630210000000  0.5128570000000  0.4207950000000 1.0
C      1  0.5040260000000  0.5191400000000  0.4519330000000 1.0
C      1  0.4790960000000  0.5018130000000  0.4903000000000 1.0
C      1  0.4441920000000  0.4818610000000  0.4488770000000 1.0
C      1  0.5298160000000  0.4275500000000  0.4518240000000 1.0
C      1  0.4627070000000  0.5792440000000  0.5286510000000 1.0
C      1  0.4358530000000  0.5144050000000  0.5836440000000 1.0
C      1  0.4302330000000  0.5584910000000  0.5015210000000 1.0
C      1  0.4462320000000  0.4420840000000  0.4755630000000 1.0
C      1  0.5206700000000  0.4122230000000  0.5181510000000 1.0
C      1  0.4803520000000  0.5703310000000  0.5503850000000 1.0
C      1  0.4440400000000  0.4280250000000  0.4996980000000 1.0
C      1  0.4791560000000  0.5615950000000  0.4534450000000 1.0
C      1  0.4647880000000  0.4683640000000  0.4321960000000 1.0
C      1  0.5208500000000  0.5851950000000  0.5065330000000 1.0
C      1  0.5522140000000  0.5235760000000  0.4178610000000 1.0
C      1  0.5249990000000  0.5269580000000  0.4688910000000 1.0
C      1  0.5501660000000  0.5553810000000  0.5693930000000 1.0
C      1  0.4993050000000  0.5708940000000  0.4705450000000 1.0
C      1  0.4454460000000  0.5399750000000  0.5453330000000 1.0
C      1  0.4798700000000  0.4445310000000  0.4405400000000 1.0
C      1  0.4816570000000  0.5329850000000  0.4126960000000 1.0
C      1  0.4690560000000  0.5469340000000  0.5610080000000 1.0
C      1  0.5111730000000  0.4328630000000  0.5577570000000 1.0
C      1  0.4874430000000  0.4983880000000  0.5526250000000 1.0
C      1  0.5662480000000  0.4618770000000  0.4564510000000 1.0
C      1  0.5453380000000  0.4664760000000  0.5617940000000 1.0
C      1  0.4569140000000  0.5198890000000  0.5229720000000 1.0
C      1  0.4343030000000  0.4831960000000  0.5414090000000 1.0
C      1  0.4741610000000  0.4802090000000  0.5104130000000 1.0
C      1  0.5716290000000  0.5527190000000  0.4598660000000 1.0
C      1  0.4264720000000  0.5222210000000  0.5588200000000 1.0
C      1  0.5030160000000  0.4933400000000  0.4049530000000 1.0
C      1  0.5084300000000  0.4955190000000  0.5315130000000 1.0
C      1  0.5834490000000  0.5095880000000  0.4807850000000 1.0
C      1  0.5281440000000  0.4553710000000  0.4234260000000 1.0
C      1  0.5624620000000  0.4879030000000  0.5511430000000 1.0
C      1  0.4956790000000  0.5884100000000  0.4918220000000 1.0
C      1  0.4761840000000  0.4882920000000  0.4155160000000 1.0
C      1  0.4775230000000  0.4877830000000  0.5965570000000 1.0
C      1  0.4439820000000  0.5109650000000  0.4432650000000 1.0
C      1  0.5130290000000  0.4621440000000  0.4947060000000 1.0
C      1  0.4626760000000  0.4933720000000  0.5354590000000 1.0
C      1  0.5129620000000  0.4112240000000  0.4912010000000 1.0
C      1  0.5183880000000  0.4820130000000  0.4772410000000 1.0
C      1  0.5510580000000  0.4946070000000  0.4201070000000 1.0
C      1  0.4622620000000  0.5096910000000  0.5907310000000 1.0
C      1  0.4258280000000  0.4809740000000  0.4974450000000 1.0
C      1  0.5708360000000  0.5321450000000  0.4394800000000 1.0
C      1  0.5306260000000  0.5334400000000  0.4038640000000 1.0
C      1  0.5016150000000  0.4144270000000  0.5385010000000 1.0
C      1  0.5618880000000  0.5470150000000  0.5056800000000 1.0
C      1  0.4897960000000  0.5412730000000  0.4379490000000 1.0
C      1  0.4676340000000  0.4127200000000  0.5042260000000 1.0
C      1  0.5694630000000  0.4978050000000  0.5246930000000 1.0
C      1  0.5277440000000  0.4801980000000  0.4118290000000 1.0
C      1  0.4953280000000  0.4965040000000  0.4673190000000 1.0
C      1  0.4390910000000  0.5630480000000  0.5283570000000 1.0
C      1  0.4474180000000  0.5740380000000  0.4853410000000 1.0
C      1  0.5430630000000  0.4299080000000  0.5229020000000 1.0
C      1  0.4998530000000  0.4711470000000  0.5166520000000 1.0
C      1  0.4962740000000  0.4755010000000  0.5788920000000 1.0
C      1  0.4270660000000  0.5100230000000  0.5073400000000 1.0
C      1  0.4519940000000  0.5591400000000  0.4615900000000 1.0
C      1  0.5076310000000  0.4391250000000  0.4354670000000 1.0
C      1  0.5083660000000  0.5699560000000  0.5534780000000 1.0
C      1  0.5237470000000  0.5159970000000  0.5162230000000 1.0
C      1  0.4260220000000  0.4652360000000  0.5213810000000 1.0
C      1  0.5226180000000  0.5534130000000  0.5718720000000 1.0
C      1  0.4181660000000  0.5060960000000  0.5367820000000 1.0
END
