TITL C-105656-510-6 0.0965833667994749 125000 -597.485946901952 0 0 86 (C1) n - 1
REM
REM in /rds/project/t2_vol4/rds-t2-cs072/BORA/CARBON/from-Arr/AIRSS/Generating-Clusters/GAP-ML-2020/Only-C1/SD-CG/HFTN-CG
REM
REM
REM
REM
REM
REM ./C.cell (11c1c37f851c82e70ff6c80c92926a4b)
REM AIRSS Version 0.9.1 bugfix July 2018 build 013d7b7c2542+ Fri, 06 Jul 2018 19:26:36 +0100
REM compiler GCC version 9.3.0
REM options -cpp -mtune=generic -march=x86-64 -g -O0
REM seed -1774647525 483704382 -1577595801 1397526855 -1942296116 -1265509091 1932003323 855413104 1056992235 506287032 -2078838405 1728453628 -2068422383 -872934362 -92606079 -1285316709 1591726946 -285954642 -691467888 -2042791002 -2087122729 1072786801 1371180576 168004094 -2037239802 616852991 -486340562 -1626237345 -1629234602 1949538736 426238082 -828534601 1480728252
REM
CELL 1.54180   50.00000   50.00000   50.00000   90.00000   90.00000   90.00000
LATT -1
SFAC C  
C      1  0.4719430000000  0.5069750000000  0.5147630000000 1.0
C      1  0.4957150000000  0.5106950000000  0.5256890000000 1.0
C      1  0.5372250000000  0.5032900000000  0.4708200000000 1.0
C      1  0.4882360000000  0.4938870000000  0.4199940000000 1.0
C      1  0.4489940000000  0.5168100000000  0.4378420000000 1.0
C      1  0.5426110000000  0.5167100000000  0.5186590000000 1.0
C      1  0.4701710000000  0.4593250000000  0.5629720000000 1.0
C      1  0.4668650000000  0.5012510000000  0.5815080000000 1.0
C      1  0.5742310000000  0.4299070000000  0.5012120000000 1.0
C      1  0.4588520000000  0.4925270000000  0.4271380000000 1.0
C      1  0.5626620000000  0.5514440000000  0.4915720000000 1.0
C      1  0.4387160000000  0.4723720000000  0.5200610000000 1.0
C      1  0.5512090000000  0.4332770000000  0.4841030000000 1.0
C      1  0.5626050000000  0.5499070000000  0.5195110000000 1.0
C      1  0.5722620000000  0.4503970000000  0.5167790000000 1.0
C      1  0.4630460000000  0.5163170000000  0.4885800000000 1.0
C      1  0.5139190000000  0.5399050000000  0.4338620000000 1.0
C      1  0.5181620000000  0.5040120000000  0.5115700000000 1.0
C      1  0.5120150000000  0.5137080000000  0.5823090000000 1.0
C      1  0.5172530000000  0.5546780000000  0.4864830000000 1.0
C      1  0.4517900000000  0.5456810000000  0.5554380000000 1.0
C      1  0.4467030000000  0.4723770000000  0.5503530000000 1.0
C      1  0.5679970000000  0.5235350000000  0.5317610000000 1.0
C      1  0.4330960000000  0.5450520000000  0.5135750000000 1.0
C      1  0.5580800000000  0.4755550000000  0.5239870000000 1.0
C      1  0.4691890000000  0.5654040000000  0.4890360000000 1.0
C      1  0.4685850000000  0.4787510000000  0.5148970000000 1.0
C      1  0.5001320000000  0.4669480000000  0.4190620000000 1.0
C      1  0.5265340000000  0.5521970000000  0.5563280000000 1.0
C      1  0.4256190000000  0.5201060000000  0.5246970000000 1.0
C      1  0.5677500000000  0.4866380000000  0.4416650000000 1.0
C      1  0.5510830000000  0.4635070000000  0.4368810000000 1.0
C      1  0.5289490000000  0.4747170000000  0.4787240000000 1.0
C      1  0.4770340000000  0.4338960000000  0.4983520000000 1.0
C      1  0.5294450000000  0.4745380000000  0.5088100000000 1.0
C      1  0.4263860000000  0.4966750000000  0.5089010000000 1.0
C      1  0.4352600000000  0.5214450000000  0.5520210000000 1.0
C      1  0.4847860000000  0.5236010000000  0.5824760000000 1.0
C      1  0.4924440000000  0.5635170000000  0.4728660000000 1.0
C      1  0.4346860000000  0.4510290000000  0.4974740000000 1.0
C      1  0.5484050000000  0.5101030000000  0.4407530000000 1.0
C      1  0.5185090000000  0.5675190000000  0.5136480000000 1.0
C      1  0.5104580000000  0.4851190000000  0.5808580000000 1.0
C      1  0.5282250000000  0.4716960000000  0.4215470000000 1.0
C      1  0.4489560000000  0.5599690000000  0.5311330000000 1.0
C      1  0.5673770000000  0.5007440000000  0.5117120000000 1.0
C      1  0.4978950000000  0.4413200000000  0.4565730000000 1.0
C      1  0.4498580000000  0.4700540000000  0.4745270000000 1.0
C      1  0.4480120000000  0.4278540000000  0.4973100000000 1.0
C      1  0.5540830000000  0.5125860000000  0.5552660000000 1.0
C      1  0.4878880000000  0.4888490000000  0.4551020000000 1.0
C      1  0.5292600000000  0.4706230000000  0.5649120000000 1.0
C      1  0.5659760000000  0.5011780000000  0.4839590000000 1.0
C      1  0.4848820000000  0.5141620000000  0.4689600000000 1.0
C      1  0.5401120000000  0.5387980000000  0.4456490000000 1.0
C      1  0.5078370000000  0.5154430000000  0.4182830000000 1.0
C      1  0.4722090000000  0.5324860000000  0.4464780000000 1.0
C      1  0.4991640000000  0.5610180000000  0.5555250000000 1.0
C      1  0.4910650000000  0.4344180000000  0.5235270000000 1.0
C      1  0.5135300000000  0.5185350000000  0.4834090000000 1.0
C      1  0.4440900000000  0.4976370000000  0.5641730000000 1.0
C      1  0.4895920000000  0.4422850000000  0.5507360000000 1.0
C      1  0.5174190000000  0.4498470000000  0.5500830000000 1.0
C      1  0.5335970000000  0.5277430000000  0.5693980000000 1.0
C      1  0.4913220000000  0.5526730000000  0.4460090000000 1.0
C      1  0.5511270000000  0.4567550000000  0.4667900000000 1.0
C      1  0.4286680000000  0.5155180000000  0.4581240000000 1.0
C      1  0.4244060000000  0.5401060000000  0.4693930000000 1.0
C      1  0.5734380000000  0.4788690000000  0.4680060000000 1.0
C      1  0.4458900000000  0.5454450000000  0.4874530000000 1.0
C      1  0.5507990000000  0.4842170000000  0.5522770000000 1.0
C      1  0.5392370000000  0.5615820000000  0.5319600000000 1.0
C      1  0.4825790000000  0.4498590000000  0.4348570000000 1.0
C      1  0.5242760000000  0.4283620000000  0.4945320000000 1.0
C      1  0.4392890000000  0.4976020000000  0.4815370000000 1.0
C      1  0.4953510000000  0.5720410000000  0.5292700000000 1.0
C      1  0.5007170000000  0.4684280000000  0.4713790000000 1.0
C      1  0.4704610000000  0.5722460000000  0.5166770000000 1.0
C      1  0.4616410000000  0.4701330000000  0.4459620000000 1.0
C      1  0.4760140000000  0.4645010000000  0.4898590000000 1.0
C      1  0.5440250000000  0.5525860000000  0.4721720000000 1.0
C      1  0.4825850000000  0.4777780000000  0.5803730000000 1.0
C      1  0.5002390000000  0.4254600000000  0.4798460000000 1.0
C      1  0.4775490000000  0.5470370000000  0.5684020000000 1.0
C      1  0.5183160000000  0.4457310000000  0.5193730000000 1.0
C      1  0.5314310000000  0.5005220000000  0.4195010000000 1.0
END
