TITL C-105664-495-4 -21.0888023761303 125000 -223.328715651956 0 0 33 (C1) n - 1
REM
REM in /rds/project/t2_vol4/rds-t2-cs072/BORA/CARBON/from-Arr/AIRSS/Generating-Clusters/GAP-ML-2020/Only-C1/SD-CG/HFTN-CG
REM
REM
REM
REM
REM
REM ./C.cell (11c1c37f851c82e70ff6c80c92926a4b)
REM AIRSS Version 0.9.1 bugfix July 2018 build 013d7b7c2542+ Fri, 06 Jul 2018 19:26:36 +0100
REM compiler GCC version 9.3.0
REM options -cpp -mtune=generic -march=x86-64 -g -O0
REM seed 1591990620 -667759113 1144934654 1065399522 -2094291686 -245170881 -1182801935 -1035377236 1613932921 813669799 738420862 1023325412 1098851738 -1898138903 -945768851 -1714570429 1589038117 -2057239511 758021143 1775181448 1061154153 1607072372 302185998 1117486847 -1058530529 248136706 -823383355 46089404 -1089693647 -1747333613 763326411 -182389859 -1995349255
REM
CELL 1.54180   50.00000   50.00000   50.00000   90.00000   90.00000   90.00000
LATT -1
SFAC C  
C      1  0.4463910000000  0.4904910000000  0.4716310000000 1.0
C      1  0.5245330000000  0.5266090000000  0.5547440000000 1.0
C      1  0.5037840000000  0.5190870000000  0.4372140000000 1.0
C      1  0.4904540000000  0.5419450000000  0.4915120000000 1.0
C      1  0.5346630000000  0.4806140000000  0.4641970000000 1.0
C      1  0.5255090000000  0.4463750000000  0.5060720000000 1.0
C      1  0.5270740000000  0.5304280000000  0.4367870000000 1.0
C      1  0.4876760000000  0.5359010000000  0.5204470000000 1.0
C      1  0.4849820000000  0.4648970000000  0.4571710000000 1.0
C      1  0.5313630000000  0.5285260000000  0.4643480000000 1.0
C      1  0.5452430000000  0.5097330000000  0.5048430000000 1.0
C      1  0.4493200000000  0.5167450000000  0.4842410000000 1.0
C      1  0.4591450000000  0.4525520000000  0.4976200000000 1.0
C      1  0.4799550000000  0.4474340000000  0.4805470000000 1.0
C      1  0.5185830000000  0.5426490000000  0.4854900000000 1.0
C      1  0.4688800000000  0.4878480000000  0.4541780000000 1.0
C      1  0.5335420000000  0.4986800000000  0.5515070000000 1.0
C      1  0.5090390000000  0.4443370000000  0.4845810000000 1.0
C      1  0.4724830000000  0.5009050000000  0.5511070000000 1.0
C      1  0.4713860000000  0.5308550000000  0.4733530000000 1.0
C      1  0.5324840000000  0.5350460000000  0.5095200000000 1.0
C      1  0.4677210000000  0.5163370000000  0.5294050000000 1.0
C      1  0.5111410000000  0.4926260000000  0.5706160000000 1.0
C      1  0.5141020000000  0.4640470000000  0.4627510000000 1.0
C      1  0.5113520000000  0.5208390000000  0.5790180000000 1.0
C      1  0.5427180000000  0.4894130000000  0.5262180000000 1.0
C      1  0.4468400000000  0.4774490000000  0.4972650000000 1.0
C      1  0.4805610000000  0.5143590000000  0.4503490000000 1.0
C      1  0.4842310000000  0.4841910000000  0.5664720000000 1.0
C      1  0.5413680000000  0.5039430000000  0.4763140000000 1.0
C      1  0.4494680000000  0.5052540000000  0.5100840000000 1.0
C      1  0.5397150000000  0.4624640000000  0.5192430000000 1.0
C      1  0.5142910000000  0.5374230000000  0.5311550000000 1.0
END
