TITL C-102216-7232-1 85.3861365539708 125000 -434.113737472743 0 0 64 (C1) n - 1
REM
REM in /rds/project/t2_vol4/rds-t2-cs072/BORA/CARBON/from-Arr/AIRSS/Generating-Clusters/GAP-ML-2020/Only-C1/SD-CG/HFTN-CG
REM
REM
REM
REM
REM
REM ./C.cell (11c1c37f851c82e70ff6c80c92926a4b)
REM AIRSS Version 0.9.1 bugfix July 2018 build 013d7b7c2542+ Fri, 06 Jul 2018 19:26:36 +0100
REM compiler GCC version 9.3.0
REM options -cpp -mtune=generic -march=x86-64 -g -O0
REM seed -1233867707 -180539434 -1638139303 -1466262233 1652008243 938119521 -194865585 -1625599736 -1670755179 273564540 915104705 1132032234 -1013758940 -1606081746 1726010611 -301607301 1805474178 363872467 -1847265414 330195260 -1196317601 235096943 -1901830309 -1712630128 -1467626752 789286937 -1964978659 -168918854 225990429 1095081461 727223850 -2005793526 320918077
REM
CELL 1.54180   50.00000   50.00000   50.00000   90.00000   90.00000   90.00000
LATT -1
SFAC C  
C      1  0.4821350000000  0.5010680000000  0.4926570000000 1.0
C      1  0.5145100000000  0.4311680000000  0.4720850000000 1.0
C      1  0.5418150000000  0.5363810000000  0.5478670000000 1.0
C      1  0.5114970000000  0.5139720000000  0.4415050000000 1.0
C      1  0.4443440000000  0.4974950000000  0.4663330000000 1.0
C      1  0.5515990000000  0.4555600000000  0.4990110000000 1.0
C      1  0.5443120000000  0.4791870000000  0.5377140000000 1.0
C      1  0.5201050000000  0.5168880000000  0.5148530000000 1.0
C      1  0.4494930000000  0.5193710000000  0.5572220000000 1.0
C      1  0.4671410000000  0.4341010000000  0.4729340000000 1.0
C      1  0.5304040000000  0.4886750000000  0.5611720000000 1.0
C      1  0.5638210000000  0.5230910000000  0.4685200000000 1.0
C      1  0.4331900000000  0.5162330000000  0.4861390000000 1.0
C      1  0.4862970000000  0.5397690000000  0.5228510000000 1.0
C      1  0.5421100000000  0.4406530000000  0.4768960000000 1.0
C      1  0.5123320000000  0.5006800000000  0.4920520000000 1.0
C      1  0.4658000000000  0.4373900000000  0.5266480000000 1.0
C      1  0.4693150000000  0.5155850000000  0.5157240000000 1.0
C      1  0.5407080000000  0.4567540000000  0.4527870000000 1.0
C      1  0.5116090000000  0.4712010000000  0.4970620000000 1.0
C      1  0.4311590000000  0.5207450000000  0.5395420000000 1.0
C      1  0.5330980000000  0.4572390000000  0.5213950000000 1.0
C      1  0.5643100000000  0.4817160000000  0.4973380000000 1.0
C      1  0.5270330000000  0.5653940000000  0.5054730000000 1.0
C      1  0.4405480000000  0.5423260000000  0.4821300000000 1.0
C      1  0.5240160000000  0.5168400000000  0.5600530000000 1.0
C      1  0.4909130000000  0.4256710000000  0.4864970000000 1.0
C      1  0.4669610000000  0.4549600000000  0.4527130000000 1.0
C      1  0.4450220000000  0.4518750000000  0.5119020000000 1.0
C      1  0.5508600000000  0.5489520000000  0.5016850000000 1.0
C      1  0.5166230000000  0.5764720000000  0.4796870000000 1.0
C      1  0.4618090000000  0.4782670000000  0.5442160000000 1.0
C      1  0.5082530000000  0.5401070000000  0.5034740000000 1.0
C      1  0.4781740000000  0.5373350000000  0.4597620000000 1.0
C      1  0.4638730000000  0.5554450000000  0.4769320000000 1.0
C      1  0.5595610000000  0.4966260000000  0.5212110000000 1.0
C      1  0.4903350000000  0.4288660000000  0.5151180000000 1.0
C      1  0.4433340000000  0.4780010000000  0.5230830000000 1.0
C      1  0.5452070000000  0.4834490000000  0.4553910000000 1.0
C      1  0.5650490000000  0.4955400000000  0.4719100000000 1.0
C      1  0.4444340000000  0.4478590000000  0.4847370000000 1.0
C      1  0.5234390000000  0.5008080000000  0.4626810000000 1.0
C      1  0.5126810000000  0.4389380000000  0.5314820000000 1.0
C      1  0.4452750000000  0.4695610000000  0.4651570000000 1.0
C      1  0.4913370000000  0.4657470000000  0.4434000000000 1.0
C      1  0.4856820000000  0.5686780000000  0.5211790000000 1.0
C      1  0.4731740000000  0.4532780000000  0.5490630000000 1.0
C      1  0.5009900000000  0.5193530000000  0.5422770000000 1.0
C      1  0.5286740000000  0.5597570000000  0.5454600000000 1.0
C      1  0.4837380000000  0.4718440000000  0.4967680000000 1.0
C      1  0.5012320000000  0.4510380000000  0.5553260000000 1.0
C      1  0.5496230000000  0.5449910000000  0.4732780000000 1.0
C      1  0.4743170000000  0.5050890000000  0.5454800000000 1.0
C      1  0.4712570000000  0.5084240000000  0.4598700000000 1.0
C      1  0.5133440000000  0.4481970000000  0.4483940000000 1.0
C      1  0.5146040000000  0.4685810000000  0.5716680000000 1.0
C      1  0.4953160000000  0.5937830000000  0.4801810000000 1.0
C      1  0.4796490000000  0.5750580000000  0.4932980000000 1.0
C      1  0.5044140000000  0.5400350000000  0.4495490000000 1.0
C      1  0.4389880000000  0.5067120000000  0.5141820000000 1.0
C      1  0.5492270000000  0.5251460000000  0.5210590000000 1.0
C      1  0.5249170000000  0.5566080000000  0.4608540000000 1.0
C      1  0.4912510000000  0.4944110000000  0.4431240000000 1.0
C      1  0.5137620000000  0.5750600000000  0.5299930000000 1.0
END
