TITL C-105668-7274-2 51.9969240500658 125000 -971.867544697794 0 0 138 (C1) n - 1
REM
REM in /rds/project/t2_vol4/rds-t2-cs072/BORA/CARBON/from-Arr/AIRSS/Generating-Clusters/GAP-ML-2020/Only-C1/SD-CG/HFTN-CG
REM
REM
REM
REM
REM
REM ./C.cell (11c1c37f851c82e70ff6c80c92926a4b)
REM AIRSS Version 0.9.1 bugfix July 2018 build 013d7b7c2542+ Fri, 06 Jul 2018 19:26:36 +0100
REM compiler GCC version 9.3.0
REM options -cpp -mtune=generic -march=x86-64 -g -O0
REM seed -906558994 1114540511 -1467019359 797670387 -2112252677 274794988 1505069881 801389369 -775100761 1710772278 500648369 -1490472169 910093736 1694464842 982319289 -1689291313 -1459007728 -122277518 -1667261586 -1274408986 2019998708 2063251962 -1598323553 152796938 259489283 159817736 -750637685 -385045014 -976661803 -1473409540 -721217282 -1451185016 1181221604
REM
CELL 1.54180   50.00000   50.00000   50.00000   90.00000   90.00000   90.00000
LATT -1
SFAC C  
C      1  0.5967480000000  0.5519690000000  0.4917400000000 1.0
C      1  0.5854410000000  0.4742330000000  0.4670750000000 1.0
C      1  0.5271260000000  0.3947580000000  0.5076980000000 1.0
C      1  0.5656460000000  0.5085430000000  0.4357360000000 1.0
C      1  0.5070350000000  0.4163800000000  0.4674180000000 1.0
C      1  0.5061980000000  0.4393400000000  0.5474900000000 1.0
C      1  0.4942950000000  0.5129830000000  0.5524380000000 1.0
C      1  0.5193210000000  0.6009500000000  0.5108390000000 1.0
C      1  0.5194850000000  0.4905500000000  0.4163290000000 1.0
C      1  0.5228860000000  0.4620540000000  0.4202980000000 1.0
C      1  0.4578970000000  0.4318370000000  0.5504780000000 1.0
C      1  0.4624870000000  0.5108780000000  0.4503070000000 1.0
C      1  0.4490750000000  0.5250270000000  0.5484690000000 1.0
C      1  0.5368760000000  0.4139240000000  0.5238120000000 1.0
C      1  0.5624380000000  0.4962790000000  0.5642250000000 1.0
C      1  0.4341540000000  0.4169490000000  0.4555120000000 1.0
C      1  0.6178560000000  0.5152080000000  0.5144950000000 1.0
C      1  0.4450920000000  0.4776930000000  0.4222120000000 1.0
C      1  0.5831310000000  0.5749120000000  0.4888410000000 1.0
C      1  0.5396140000000  0.5689800000000  0.5420110000000 1.0
C      1  0.4676370000000  0.5123070000000  0.5662360000000 1.0
C      1  0.4764060000000  0.5924850000000  0.5353340000000 1.0
C      1  0.4581030000000  0.5514630000000  0.5417570000000 1.0
C      1  0.5369210000000  0.5891970000000  0.4692150000000 1.0
C      1  0.4217960000000  0.4876690000000  0.5577060000000 1.0
C      1  0.5235370000000  0.5444690000000  0.5316520000000 1.0
C      1  0.5751460000000  0.5291090000000  0.4528740000000 1.0
C      1  0.5602720000000  0.4243080000000  0.5379020000000 1.0
C      1  0.5139070000000  0.4895180000000  0.5514710000000 1.0
C      1  0.5699870000000  0.5228020000000  0.5531600000000 1.0
C      1  0.4910790000000  0.4849330000000  0.4135470000000 1.0
C      1  0.4608900000000  0.4962240000000  0.5878290000000 1.0
C      1  0.4022540000000  0.4577410000000  0.4778340000000 1.0
C      1  0.4016510000000  0.5199050000000  0.5162360000000 1.0
C      1  0.5540500000000  0.4463740000000  0.5570270000000 1.0
C      1  0.4012760000000  0.5308520000000  0.5415550000000 1.0
C      1  0.5436290000000  0.5035030000000  0.5033060000000 1.0
C      1  0.4995400000000  0.4936800000000  0.4800530000000 1.0
C      1  0.4118930000000  0.4485250000000  0.5273450000000 1.0
C      1  0.5411340000000  0.5698370000000  0.4482850000000 1.0
C      1  0.5976500000000  0.5303400000000  0.4719500000000 1.0
C      1  0.5278630000000  0.4428370000000  0.5684010000000 1.0
C      1  0.5917450000000  0.4946820000000  0.4848160000000 1.0
C      1  0.4865470000000  0.5950110000000  0.4671650000000 1.0
C      1  0.4629280000000  0.4657850000000  0.4707860000000 1.0
C      1  0.4932020000000  0.4430920000000  0.5067100000000 1.0
C      1  0.5436110000000  0.5879340000000  0.5179700000000 1.0
C      1  0.5298840000000  0.4989880000000  0.4743620000000 1.0
C      1  0.4334560000000  0.4210780000000  0.5062510000000 1.0
C      1  0.4213280000000  0.5166570000000  0.5540150000000 1.0
C      1  0.4568120000000  0.4831340000000  0.5123520000000 1.0
C      1  0.3954070000000  0.4836390000000  0.4881650000000 1.0
C      1  0.5194230000000  0.4389290000000  0.5213570000000 1.0
C      1  0.4723470000000  0.5714540000000  0.5559060000000 1.0
C      1  0.4911650000000  0.4657590000000  0.5485940000000 1.0
C      1  0.4695760000000  0.5291580000000  0.4138500000000 1.0
C      1  0.4983380000000  0.5698700000000  0.4221830000000 1.0
C      1  0.4796460000000  0.4823480000000  0.6037820000000 1.0
C      1  0.4671780000000  0.4991430000000  0.4220900000000 1.0
C      1  0.4588270000000  0.5119370000000  0.5180910000000 1.0
C      1  0.5739410000000  0.4978110000000  0.5093180000000 1.0
C      1  0.6003160000000  0.5377660000000  0.5170310000000 1.0
C      1  0.4947880000000  0.4564100000000  0.4160820000000 1.0
C      1  0.4110610000000  0.4400130000000  0.4993740000000 1.0
C      1  0.5337030000000  0.5304060000000  0.5747690000000 1.0
C      1  0.5427910000000  0.5501420000000  0.4897110000000 1.0
C      1  0.4887630000000  0.5150040000000  0.5225540000000 1.0
C      1  0.4651000000000  0.5831940000000  0.5107150000000 1.0
C      1  0.6137520000000  0.5108160000000  0.4854900000000 1.0
C      1  0.4775420000000  0.4376950000000  0.4279450000000 1.0
C      1  0.5839830000000  0.4270210000000  0.5252720000000 1.0
C      1  0.4203860000000  0.4817620000000  0.4366780000000 1.0
C      1  0.3966480000000  0.4912590000000  0.5153300000000 1.0
C      1  0.5340950000000  0.4525080000000  0.4439250000000 1.0
C      1  0.4062370000000  0.4744270000000  0.5368770000000 1.0
C      1  0.4849530000000  0.4568120000000  0.5906130000000 1.0
C      1  0.5553050000000  0.5793280000000  0.4924980000000 1.0
C      1  0.4092930000000  0.5287090000000  0.4894240000000 1.0
C      1  0.5231030000000  0.5375960000000  0.4138040000000 1.0
C      1  0.4149640000000  0.5068350000000  0.4482300000000 1.0
C      1  0.5442190000000  0.4742590000000  0.4616000000000 1.0
C      1  0.4822930000000  0.4686350000000  0.5195220000000 1.0
C      1  0.4831290000000  0.4191930000000  0.4511360000000 1.0
C      1  0.4653180000000  0.4561870000000  0.5671800000000 1.0
C      1  0.4453200000000  0.4784140000000  0.5718320000000 1.0
C      1  0.5126000000000  0.5491310000000  0.4889960000000 1.0
C      1  0.5761240000000  0.4533720000000  0.4848020000000 1.0
C      1  0.5466630000000  0.4517110000000  0.4841080000000 1.0
C      1  0.4816660000000  0.4207290000000  0.5401000000000 1.0
C      1  0.5878030000000  0.4501410000000  0.5114850000000 1.0
C      1  0.5501620000000  0.5437210000000  0.4610040000000 1.0
C      1  0.4475860000000  0.4771440000000  0.4877790000000 1.0
C      1  0.4594750000000  0.5313620000000  0.4942940000000 1.0
C      1  0.5228250000000  0.4835000000000  0.5977730000000 1.0
C      1  0.5360680000000  0.4594810000000  0.5123900000000 1.0
C      1  0.5263530000000  0.4860060000000  0.5208440000000 1.0
C      1  0.4807400000000  0.5188610000000  0.4724710000000 1.0
C      1  0.5745790000000  0.5249890000000  0.5245300000000 1.0
C      1  0.4347360000000  0.5415310000000  0.4776290000000 1.0
C      1  0.4499660000000  0.5439570000000  0.4298070000000 1.0
C      1  0.4886890000000  0.4703370000000  0.4688130000000 1.0
C      1  0.4812710000000  0.5824230000000  0.4413000000000 1.0
C      1  0.4115630000000  0.4583250000000  0.4501430000000 1.0
C      1  0.5877570000000  0.4760230000000  0.5284120000000 1.0
C      1  0.4995830000000  0.5428390000000  0.5137680000000 1.0
C      1  0.4509790000000  0.4494770000000  0.4251730000000 1.0
C      1  0.5101930000000  0.5376500000000  0.5599420000000 1.0
C      1  0.4941250000000  0.5424800000000  0.4107540000000 1.0
C      1  0.4697360000000  0.5543880000000  0.5142540000000 1.0
C      1  0.6132120000000  0.4933530000000  0.5306250000000 1.0
C      1  0.5355150000000  0.4997710000000  0.5753260000000 1.0
C      1  0.4342910000000  0.4305370000000  0.5339170000000 1.0
C      1  0.4814020000000  0.4149870000000  0.5098700000000 1.0
C      1  0.5171050000000  0.5825890000000  0.5548140000000 1.0
C      1  0.4590570000000  0.4120150000000  0.4658730000000 1.0
C      1  0.5350990000000  0.5135250000000  0.4263440000000 1.0
C      1  0.4012990000000  0.5071250000000  0.4730130000000 1.0
C      1  0.4292870000000  0.4383910000000  0.4404780000000 1.0
C      1  0.5541060000000  0.5450000000000  0.5621100000000 1.0
C      1  0.4451910000000  0.5696200000000  0.4689020000000 1.0
C      1  0.5302080000000  0.4329500000000  0.4641880000000 1.0
C      1  0.5701190000000  0.4713590000000  0.5536000000000 1.0
C      1  0.5029520000000  0.4919350000000  0.6156380000000 1.0
C      1  0.5029150000000  0.5361000000000  0.4662760000000 1.0
C      1  0.5684720000000  0.4828400000000  0.4464320000000 1.0
C      1  0.4367960000000  0.5264820000000  0.4500680000000 1.0
C      1  0.5039550000000  0.5994970000000  0.5356210000000 1.0
C      1  0.5129200000000  0.5994810000000  0.4808280000000 1.0
C      1  0.4983800000000  0.5643310000000  0.5659220000000 1.0
C      1  0.4628720000000  0.5877790000000  0.4832850000000 1.0
C      1  0.4570030000000  0.4108810000000  0.4945100000000 1.0
C      1  0.5284910000000  0.5223980000000  0.4557860000000 1.0
C      1  0.5046690000000  0.4026280000000  0.4932970000000 1.0
C      1  0.4555180000000  0.5687910000000  0.4424550000000 1.0
C      1  0.5264950000000  0.5643680000000  0.4253620000000 1.0
C      1  0.5143170000000  0.4566570000000  0.5891310000000 1.0
C      1  0.4994260000000  0.4906190000000  0.5095600000000 1.0
C      1  0.5458430000000  0.5320850000000  0.5127450000000 1.0
END
