TITL C-101246-5772-5 -52.5148625266002 125000 -54.0893042600367 0 0 9 (C2v) n - 1
REM
REM in /rds/project/t2_vol4/rds-t2-cs072/BORA/CARBON/from-Arr/AIRSS/Generating-Clusters/GAP-ML-2020/Only-C1/SD-CG/HFTN-CG
REM
REM
REM
REM
REM
REM ./C.cell (11c1c37f851c82e70ff6c80c92926a4b)
REM AIRSS Version 0.9.1 bugfix July 2018 build 013d7b7c2542+ Fri, 06 Jul 2018 19:26:36 +0100
REM compiler GCC version 9.3.0
REM options -cpp -mtune=generic -march=x86-64 -g -O0
REM seed 1429606517 1254670624 310218929 -262952182 1752349630 -957511901 -2068787755 -581507736 -95633792 788097181 1823531171 509923552 884444046 -179384282 -437804764 620720711 -1650173 -1470518800 44404751 527183916 965699095 897881151 -1889432260 1747197133 -329206810 1108520571 -458258869 -1888159770 882620429 736923874 -856329571 1110349717 1619690042
REM
CELL 1.54180   50.00000   50.00000   50.00000   90.00000   90.00000   90.00000
LATT -1
SFAC C  
C      1  0.4696240000000  0.4777340000000  0.4380750000000 1.0
C      1  0.5423220000000  0.5113790000000  0.4922120000000 1.0
C      1  0.5123430000000  0.4998050000000  0.4989730000000 1.0
C      1  0.5426520000000  0.4872870000000  0.5007130000000 1.0
C      1  0.4982810000000  0.5076050000000  0.5216190000000 1.0
C      1  0.4761300000000  0.4862970000000  0.4620950000000 1.0
C      1  0.4809890000000  0.5230450000000  0.5660360000000 1.0
C      1  0.4944940000000  0.4925070000000  0.4789830000000 1.0
C      1  0.4831640000000  0.5143410000000  0.5412950000000 1.0
END
