TITL C-107217-8244-8 -0.0161770817847222 125000 -773.764584225814 0 0 111 (C1) n - 1
REM
REM in /rds/project/t2_vol4/rds-t2-cs072/BORA/CARBON/from-Arr/AIRSS/Generating-Clusters/GAP-ML-2020/Only-C1/SD-CG/HFTN-CG
REM
REM
REM
REM
REM
REM ./C.cell (11c1c37f851c82e70ff6c80c92926a4b)
REM AIRSS Version 0.9.1 bugfix July 2018 build 013d7b7c2542+ Fri, 06 Jul 2018 19:26:36 +0100
REM compiler GCC version 9.3.0
REM options -cpp -mtune=generic -march=x86-64 -g -O0
REM seed 1683649604 1192674297 1834348196 1526648839 1401497405 1191389584 58830293 936219343 652135205 -50603540 1558113179 -1180606864 -1615225751 1675200159 176673873 -499974942 1415179972 1940717812 -1241683575 1248069230 392346166 67246201 -1443098500 -716356689 -355791755 2067680471 -794506250 1827058057 -875683615 2100161817 -190707592 -268522113 -902528236
REM
CELL 1.54180   50.00000   50.00000   50.00000   90.00000   90.00000   90.00000
LATT -1
SFAC C  
C      1  0.5591230000000  0.4336230000000  0.4638720000000 1.0
C      1  0.4707280000000  0.5600190000000  0.4717230000000 1.0
C      1  0.4295980000000  0.5321280000000  0.4706720000000 1.0
C      1  0.5197560000000  0.4792610000000  0.4971810000000 1.0
C      1  0.5512550000000  0.4581360000000  0.4341960000000 1.0
C      1  0.4365370000000  0.4314070000000  0.5301200000000 1.0
C      1  0.4950040000000  0.5167550000000  0.5642810000000 1.0
C      1  0.5467230000000  0.4920810000000  0.5027660000000 1.0
C      1  0.4121560000000  0.4651610000000  0.5037720000000 1.0
C      1  0.5132400000000  0.4680820000000  0.5715400000000 1.0
C      1  0.5039340000000  0.5830030000000  0.5700840000000 1.0
C      1  0.4629400000000  0.4936320000000  0.5212080000000 1.0
C      1  0.4662790000000  0.4718960000000  0.5724490000000 1.0
C      1  0.5280040000000  0.5737160000000  0.5589690000000 1.0
C      1  0.5073890000000  0.4755990000000  0.5435170000000 1.0
C      1  0.5267200000000  0.5182910000000  0.4166040000000 1.0
C      1  0.4822850000000  0.4865050000000  0.4503020000000 1.0
C      1  0.4346320000000  0.4715000000000  0.4618870000000 1.0
C      1  0.4200730000000  0.4546590000000  0.5294160000000 1.0
C      1  0.5119190000000  0.5058920000000  0.5413970000000 1.0
C      1  0.4419680000000  0.5138210000000  0.5649590000000 1.0
C      1  0.4093520000000  0.4940670000000  0.5052400000000 1.0
C      1  0.4305610000000  0.5487680000000  0.5368660000000 1.0
C      1  0.4221550000000  0.4772630000000  0.5474260000000 1.0
C      1  0.5196570000000  0.4540350000000  0.4300070000000 1.0
C      1  0.4774420000000  0.4756230000000  0.5409400000000 1.0
C      1  0.5163530000000  0.5713920000000  0.5116060000000 1.0
C      1  0.4225750000000  0.4956170000000  0.4566770000000 1.0
C      1  0.4507270000000  0.5468180000000  0.5136840000000 1.0
C      1  0.4798830000000  0.4265700000000  0.5323530000000 1.0
C      1  0.4945650000000  0.5370780000000  0.4024020000000 1.0
C      1  0.5046380000000  0.5108640000000  0.3982510000000 1.0
C      1  0.4987500000000  0.5195000000000  0.5155210000000 1.0
C      1  0.4839740000000  0.4546090000000  0.5192080000000 1.0
C      1  0.4231340000000  0.4534970000000  0.4806370000000 1.0
C      1  0.4219380000000  0.5241250000000  0.5473270000000 1.0
C      1  0.5220490000000  0.4672880000000  0.4721960000000 1.0
C      1  0.5713990000000  0.5436960000000  0.5386110000000 1.0
C      1  0.4997110000000  0.5100390000000  0.5924220000000 1.0
C      1  0.5810670000000  0.5208650000000  0.4667680000000 1.0
C      1  0.5330350000000  0.4211700000000  0.4661700000000 1.0
C      1  0.5329400000000  0.5018440000000  0.4406020000000 1.0
C      1  0.5562080000000  0.5633380000000  0.4689480000000 1.0
C      1  0.4837200000000  0.5088520000000  0.4692140000000 1.0
C      1  0.4649620000000  0.5534120000000  0.5672110000000 1.0
C      1  0.4413290000000  0.4312660000000  0.4815440000000 1.0
C      1  0.5565850000000  0.4466430000000  0.5604830000000 1.0
C      1  0.5839850000000  0.5236070000000  0.5224540000000 1.0
C      1  0.4908170000000  0.4865130000000  0.4033540000000 1.0
C      1  0.4891370000000  0.5368150000000  0.4639880000000 1.0
C      1  0.5665180000000  0.5587500000000  0.4945420000000 1.0
C      1  0.5124880000000  0.5652190000000  0.4362930000000 1.0
C      1  0.5626560000000  0.5388620000000  0.4545670000000 1.0
C      1  0.4714020000000  0.4942370000000  0.4240200000000 1.0
C      1  0.4870980000000  0.5805330000000  0.5139470000000 1.0
C      1  0.5616910000000  0.5655060000000  0.5224210000000 1.0
C      1  0.4746950000000  0.4113210000000  0.5093010000000 1.0
C      1  0.5123680000000  0.4787590000000  0.4477750000000 1.0
C      1  0.4467380000000  0.4190840000000  0.5058510000000 1.0
C      1  0.4147170000000  0.5089740000000  0.4812210000000 1.0
C      1  0.4940310000000  0.4128010000000  0.4886320000000 1.0
C      1  0.4943800000000  0.4975420000000  0.4945360000000 1.0
C      1  0.4721830000000  0.4769000000000  0.4989500000000 1.0
C      1  0.5591970000000  0.4409330000000  0.5131230000000 1.0
C      1  0.5668540000000  0.4493470000000  0.4870060000000 1.0
C      1  0.5850700000000  0.4973560000000  0.5335550000000 1.0
C      1  0.5751820000000  0.4925540000000  0.4618650000000 1.0
C      1  0.4401860000000  0.4861690000000  0.5679940000000 1.0
C      1  0.5336060000000  0.5483020000000  0.5718700000000 1.0
C      1  0.5270290000000  0.5688340000000  0.4626930000000 1.0
C      1  0.4356410000000  0.5184380000000  0.4448480000000 1.0
C      1  0.4641010000000  0.5716290000000  0.5255670000000 1.0
C      1  0.5312210000000  0.4340860000000  0.5139640000000 1.0
C      1  0.5188400000000  0.5461090000000  0.4170320000000 1.0
C      1  0.5766130000000  0.5307140000000  0.4948560000000 1.0
C      1  0.5062150000000  0.4638080000000  0.4067670000000 1.0
C      1  0.4855140000000  0.5806630000000  0.4849840000000 1.0
C      1  0.5446850000000  0.5199140000000  0.4933230000000 1.0
C      1  0.4935740000000  0.4836960000000  0.5857070000000 1.0
C      1  0.5159370000000  0.5414620000000  0.4720690000000 1.0
C      1  0.4636650000000  0.4381240000000  0.4644430000000 1.0
C      1  0.5560860000000  0.4946310000000  0.5303800000000 1.0
C      1  0.4464340000000  0.5500470000000  0.4843860000000 1.0
C      1  0.4841110000000  0.5559770000000  0.4411540000000 1.0
C      1  0.5369070000000  0.4541790000000  0.5748640000000 1.0
C      1  0.5687370000000  0.4777170000000  0.4852510000000 1.0
C      1  0.5122480000000  0.4292860000000  0.4481230000000 1.0
C      1  0.5377810000000  0.5228630000000  0.4627990000000 1.0
C      1  0.5723010000000  0.4504110000000  0.5370430000000 1.0
C      1  0.4598720000000  0.4440710000000  0.5724450000000 1.0
C      1  0.4892410000000  0.5613560000000  0.5789970000000 1.0
C      1  0.5919000000000  0.4718580000000  0.5359580000000 1.0
C      1  0.4722720000000  0.5418810000000  0.4188640000000 1.0
C      1  0.5576340000000  0.4848210000000  0.4411510000000 1.0
C      1  0.4695730000000  0.5231110000000  0.5247760000000 1.0
C      1  0.4639850000000  0.4678150000000  0.4663400000000 1.0
C      1  0.5519190000000  0.5328460000000  0.5575560000000 1.0
C      1  0.5368050000000  0.5771450000000  0.5313530000000 1.0
C      1  0.5133340000000  0.4584510000000  0.5186920000000 1.0
C      1  0.5402610000000  0.5098000000000  0.5472370000000 1.0
C      1  0.5139580000000  0.5832980000000  0.4829720000000 1.0
C      1  0.4488170000000  0.5672070000000  0.5496530000000 1.0
C      1  0.4124040000000  0.5007420000000  0.5333760000000 1.0
C      1  0.4556270000000  0.5186620000000  0.4253100000000 1.0
C      1  0.5217520000000  0.4177030000000  0.4923550000000 1.0
C      1  0.4879400000000  0.4237280000000  0.4625730000000 1.0
C      1  0.5188320000000  0.5382050000000  0.5024720000000 1.0
C      1  0.4681850000000  0.5262180000000  0.5563900000000 1.0
C      1  0.5082650000000  0.5378770000000  0.5820700000000 1.0
C      1  0.4568720000000  0.4288350000000  0.5505450000000 1.0
C      1  0.5689420000000  0.4382950000000  0.4381700000000 1.0
END
