TITL C-105664-495-9 -182.832174477314 125000 -618.492436526868 0 0 90 (C1) n - 1
REM
REM in /rds/project/t2_vol4/rds-t2-cs072/BORA/CARBON/from-Arr/AIRSS/Generating-Clusters/GAP-ML-2020/Only-C1/SD-CG/HFTN-CG
REM
REM
REM
REM
REM
REM ./C.cell (11c1c37f851c82e70ff6c80c92926a4b)
REM AIRSS Version 0.9.1 bugfix July 2018 build 013d7b7c2542+ Fri, 06 Jul 2018 19:26:36 +0100
REM compiler GCC version 9.3.0
REM options -cpp -mtune=generic -march=x86-64 -g -O0
REM seed -1288150461 -1888583637 324988762 271195837 1853876388 2108917162 -1467479502 91064013 -2091328792 -618749528 -1654331709 1025750598 -998554375 1943513292 -787717795 -1900581725 -1793993513 268247147 -1511259129 1860435045 1649206142 1416602369 917860919 1313186716 324714253 1059410876 1951754890 1373732702 -1229817967 1165193864 995575906 1384415421 1996695612
REM
CELL 1.54180   50.00000   50.00000   50.00000   90.00000   90.00000   90.00000
LATT -1
SFAC C  
C      1  0.4633330000000  0.5222260000000  0.5744200000000 1.0
C      1  0.4778670000000  0.4293560000000  0.4804320000000 1.0
C      1  0.4853580000000  0.5034550000000  0.5793340000000 1.0
C      1  0.4558400000000  0.4964600000000  0.4300510000000 1.0
C      1  0.4967940000000  0.5558580000000  0.5721770000000 1.0
C      1  0.5723290000000  0.4705360000000  0.5050060000000 1.0
C      1  0.5430620000000  0.4346880000000  0.4741410000000 1.0
C      1  0.5516410000000  0.4681450000000  0.4395630000000 1.0
C      1  0.4344050000000  0.5180170000000  0.5337560000000 1.0
C      1  0.5724160000000  0.5434880000000  0.5542460000000 1.0
C      1  0.4815440000000  0.4352070000000  0.4534390000000 1.0
C      1  0.5507440000000  0.5128580000000  0.4453360000000 1.0
C      1  0.4954670000000  0.4302160000000  0.5271050000000 1.0
C      1  0.5321590000000  0.5755780000000  0.5028790000000 1.0
C      1  0.4249500000000  0.4492540000000  0.5377290000000 1.0
C      1  0.4438190000000  0.5305740000000  0.4751570000000 1.0
C      1  0.5617280000000  0.5564760000000  0.4726410000000 1.0
C      1  0.5703210000000  0.5299860000000  0.5072550000000 1.0
C      1  0.5027060000000  0.5180670000000  0.4268760000000 1.0
C      1  0.4599070000000  0.4499890000000  0.4428490000000 1.0
C      1  0.5148850000000  0.5540990000000  0.4592130000000 1.0
C      1  0.4625640000000  0.5585120000000  0.5396150000000 1.0
C      1  0.4498770000000  0.4410600000000  0.5469840000000 1.0
C      1  0.5169080000000  0.5391090000000  0.5653860000000 1.0
C      1  0.4711090000000  0.4721890000000  0.4282980000000 1.0
C      1  0.4466870000000  0.5488460000000  0.4966370000000 1.0
C      1  0.4847450000000  0.4760380000000  0.5718380000000 1.0
C      1  0.4782880000000  0.4687460000000  0.5076780000000 1.0
C      1  0.5153660000000  0.4459840000000  0.5439510000000 1.0
C      1  0.5001520000000  0.5129190000000  0.5121640000000 1.0
C      1  0.5357150000000  0.5670480000000  0.4751730000000 1.0
C      1  0.5118370000000  0.5604550000000  0.5185710000000 1.0
C      1  0.4889090000000  0.5502690000000  0.4744950000000 1.0
C      1  0.5544840000000  0.5606930000000  0.5421340000000 1.0
C      1  0.5653150000000  0.4864270000000  0.4571370000000 1.0
C      1  0.5716820000000  0.5574950000000  0.4996570000000 1.0
C      1  0.4773470000000  0.4791960000000  0.4616700000000 1.0
C      1  0.4659740000000  0.4764460000000  0.5349800000000 1.0
C      1  0.4713750000000  0.5491040000000  0.5659330000000 1.0
C      1  0.5120450000000  0.5122760000000  0.5744220000000 1.0
C      1  0.4734020000000  0.5191050000000  0.4343590000000 1.0
C      1  0.5717850000000  0.5184080000000  0.5598650000000 1.0
C      1  0.4243860000000  0.4859630000000  0.4944660000000 1.0
C      1  0.5388270000000  0.4551380000000  0.5306250000000 1.0
C      1  0.4352540000000  0.4593400000000  0.4860610000000 1.0
C      1  0.5025890000000  0.4283380000000  0.4978660000000 1.0
C      1  0.5443060000000  0.5194440000000  0.5209760000000 1.0
C      1  0.4356970000000  0.4898230000000  0.4496500000000 1.0
C      1  0.5787420000000  0.4879260000000  0.4826590000000 1.0
C      1  0.5118340000000  0.5634560000000  0.4302230000000 1.0
C      1  0.5362370000000  0.4451050000000  0.4475950000000 1.0
C      1  0.4190210000000  0.4948560000000  0.5213800000000 1.0
C      1  0.4671850000000  0.4311100000000  0.5264680000000 1.0
C      1  0.4855560000000  0.5183070000000  0.5359450000000 1.0
C      1  0.4357600000000  0.4833700000000  0.5646750000000 1.0
C      1  0.5276320000000  0.4918000000000  0.5631100000000 1.0
C      1  0.4706550000000  0.5301690000000  0.4615750000000 1.0
C      1  0.4196130000000  0.4753840000000  0.5418780000000 1.0
C      1  0.4587320000000  0.4652660000000  0.5633630000000 1.0
C      1  0.5254610000000  0.5009650000000  0.5027250000000 1.0
C      1  0.4619740000000  0.5043310000000  0.5277310000000 1.0
C      1  0.5291240000000  0.4695970000000  0.5067450000000 1.0
C      1  0.4298180000000  0.5050840000000  0.4727130000000 1.0
C      1  0.4820350000000  0.5672540000000  0.5207830000000 1.0
C      1  0.5515130000000  0.4539020000000  0.4943270000000 1.0
C      1  0.4822770000000  0.5046000000000  0.4734580000000 1.0
C      1  0.4599600000000  0.4442660000000  0.4982180000000 1.0
C      1  0.5256810000000  0.4172440000000  0.4864110000000 1.0
C      1  0.5144910000000  0.4918720000000  0.4181950000000 1.0
C      1  0.5079510000000  0.5450510000000  0.4132490000000 1.0
C      1  0.5043280000000  0.4701000000000  0.4684000000000 1.0
C      1  0.5042940000000  0.4591420000000  0.4959570000000 1.0
C      1  0.5685130000000  0.5306630000000  0.4611330000000 1.0
C      1  0.4763820000000  0.4975900000000  0.5007320000000 1.0
C      1  0.4414100000000  0.5452210000000  0.5249170000000 1.0
C      1  0.5020960000000  0.5400430000000  0.4996690000000 1.0
C      1  0.5108860000000  0.4682210000000  0.5616650000000 1.0
C      1  0.5133550000000  0.5005270000000  0.4729840000000 1.0
C      1  0.5615110000000  0.4734830000000  0.5327310000000 1.0
C      1  0.5075640000000  0.4502060000000  0.4441900000000 1.0
C      1  0.4407960000000  0.5106820000000  0.5621650000000 1.0
C      1  0.4987370000000  0.4687590000000  0.4221290000000 1.0
C      1  0.4708020000000  0.5636690000000  0.4945870000000 1.0
C      1  0.5298460000000  0.5446860000000  0.5384010000000 1.0
C      1  0.5797210000000  0.5164600000000  0.4840490000000 1.0
C      1  0.5219950000000  0.5218260000000  0.4521340000000 1.0
C      1  0.5525110000000  0.4989380000000  0.5465490000000 1.0
C      1  0.4377150000000  0.4613350000000  0.4575540000000 1.0
C      1  0.5570250000000  0.5737780000000  0.5169120000000 1.0
C      1  0.5413650000000  0.4908470000000  0.4255210000000 1.0
END
