TITL C-102219-7247-11 -73.1518946135698 125000 -1000.75780866436 0 0 141 (C1) n - 1
REM
REM in /rds/project/t2_vol4/rds-t2-cs072/BORA/CARBON/from-Arr/AIRSS/Generating-Clusters/GAP-ML-2020/Only-C1/SD-CG/HFTN-CG
REM
REM
REM
REM
REM
REM ./C.cell (11c1c37f851c82e70ff6c80c92926a4b)
REM AIRSS Version 0.9.1 bugfix July 2018 build 013d7b7c2542+ Fri, 06 Jul 2018 19:26:36 +0100
REM compiler GCC version 9.3.0
REM options -cpp -mtune=generic -march=x86-64 -g -O0
REM seed 1213553562 -918998039 1574771649 -1500126280 1009564084 -104815649 1094744118 -1759919040 778819803 1761985583 834709736 -1828417667 -496847008 -375330541 1462029190 383316538 -482641548 710897534 -507641827 -1322009807 -380370942 730187049 24699109 19886680 -1176114838 -777229202 -1510209167 747036168 -1506559170 -346483327 -1577286271 1699178945 902534666
REM
CELL 1.54180   50.00000   50.00000   50.00000   90.00000   90.00000   90.00000
LATT -1
SFAC C  
C      1  0.5555890000000  0.4928870000000  0.4217520000000 1.0
C      1  0.4181500000000  0.4412680000000  0.4842930000000 1.0
C      1  0.4843890000000  0.4171540000000  0.5363410000000 1.0
C      1  0.5302380000000  0.4285800000000  0.4786830000000 1.0
C      1  0.5750300000000  0.4783470000000  0.5648270000000 1.0
C      1  0.5007240000000  0.4577280000000  0.5598940000000 1.0
C      1  0.5954820000000  0.5046860000000  0.5228790000000 1.0
C      1  0.5297130000000  0.4868930000000  0.5325070000000 1.0
C      1  0.4570670000000  0.5847740000000  0.4694990000000 1.0
C      1  0.4022580000000  0.5070370000000  0.5098270000000 1.0
C      1  0.5824800000000  0.5279200000000  0.5047030000000 1.0
C      1  0.5076540000000  0.4211720000000  0.4360250000000 1.0
C      1  0.5578880000000  0.5770780000000  0.4654910000000 1.0
C      1  0.4327580000000  0.4460280000000  0.5449840000000 1.0
C      1  0.5669690000000  0.5755180000000  0.4934070000000 1.0
C      1  0.5634840000000  0.4693270000000  0.4383880000000 1.0
C      1  0.4612940000000  0.4094600000000  0.4934290000000 1.0
C      1  0.4809180000000  0.5904530000000  0.5179100000000 1.0
C      1  0.4887930000000  0.4986070000000  0.5061600000000 1.0
C      1  0.4237230000000  0.4695030000000  0.5280030000000 1.0
C      1  0.5154000000000  0.4596120000000  0.5335960000000 1.0
C      1  0.4739560000000  0.4728760000000  0.5062750000000 1.0
C      1  0.5291130000000  0.4764560000000  0.5943060000000 1.0
C      1  0.5589120000000  0.5218080000000  0.4606780000000 1.0
C      1  0.5193400000000  0.5521330000000  0.4595070000000 1.0
C      1  0.5848590000000  0.5571360000000  0.5024370000000 1.0
C      1  0.4997760000000  0.4407410000000  0.4167970000000 1.0
C      1  0.5698470000000  0.4521990000000  0.5552010000000 1.0
C      1  0.5994210000000  0.4830310000000  0.5043650000000 1.0
C      1  0.5066600000000  0.5640430000000  0.5823480000000 1.0
C      1  0.5090690000000  0.5307200000000  0.4428360000000 1.0
C      1  0.4119160000000  0.4630540000000  0.5008520000000 1.0
C      1  0.4211540000000  0.5167350000000  0.5516480000000 1.0
C      1  0.5441880000000  0.4408310000000  0.5612460000000 1.0
C      1  0.5529010000000  0.4915780000000  0.5816510000000 1.0
C      1  0.5103380000000  0.4111920000000  0.4939320000000 1.0
C      1  0.5320510000000  0.4315630000000  0.5344750000000 1.0
C      1  0.5661740000000  0.5158670000000  0.5918210000000 1.0
C      1  0.4874570000000  0.4862550000000  0.5640250000000 1.0
C      1  0.5568140000000  0.4282580000000  0.5185260000000 1.0
C      1  0.4624910000000  0.4232350000000  0.4371090000000 1.0
C      1  0.4617370000000  0.5261790000000  0.4297580000000 1.0
C      1  0.5051330000000  0.5204530000000  0.5957330000000 1.0
C      1  0.4806600000000  0.5275640000000  0.4068240000000 1.0
C      1  0.4635200000000  0.4974410000000  0.5473170000000 1.0
C      1  0.5060480000000  0.5060110000000  0.4556800000000 1.0
C      1  0.5503090000000  0.5401620000000  0.5896470000000 1.0
C      1  0.4077570000000  0.4929120000000  0.4599170000000 1.0
C      1  0.4853130000000  0.4116820000000  0.4506990000000 1.0
C      1  0.5405740000000  0.5823690000000  0.5048120000000 1.0
C      1  0.5502960000000  0.5464950000000  0.4258920000000 1.0
C      1  0.5500460000000  0.5509830000000  0.4556230000000 1.0
C      1  0.5187790000000  0.4642820000000  0.4209310000000 1.0
C      1  0.5315030000000  0.4880790000000  0.4069740000000 1.0
C      1  0.4376280000000  0.4243170000000  0.5300750000000 1.0
C      1  0.4089840000000  0.4961920000000  0.5348270000000 1.0
C      1  0.4769800000000  0.5198550000000  0.4600560000000 1.0
C      1  0.4803450000000  0.4364960000000  0.5570320000000 1.0
C      1  0.4388680000000  0.4251280000000  0.4519210000000 1.0
C      1  0.4507510000000  0.4844880000000  0.5224700000000 1.0
C      1  0.5233080000000  0.5437240000000  0.5946130000000 1.0
C      1  0.5148660000000  0.4595020000000  0.4847160000000 1.0
C      1  0.4985180000000  0.4585950000000  0.5098040000000 1.0
C      1  0.5790640000000  0.4466460000000  0.4823460000000 1.0
C      1  0.5827430000000  0.5159640000000  0.4769050000000 1.0
C      1  0.5494740000000  0.4892090000000  0.5120720000000 1.0
C      1  0.5264600000000  0.5242080000000  0.4985610000000 1.0
C      1  0.5595170000000  0.5194670000000  0.4305270000000 1.0
C      1  0.5535130000000  0.5213190000000  0.5149810000000 1.0
C      1  0.4606560000000  0.4125240000000  0.5215420000000 1.0
C      1  0.4960760000000  0.6005750000000  0.4943930000000 1.0
C      1  0.4602860000000  0.5103820000000  0.5926640000000 1.0
C      1  0.4224330000000  0.5275720000000  0.5086890000000 1.0
C      1  0.4272330000000  0.5398830000000  0.5350870000000 1.0
C      1  0.4386640000000  0.4198720000000  0.4802670000000 1.0
C      1  0.5076090000000  0.5094150000000  0.5654150000000 1.0
C      1  0.4549290000000  0.4640310000000  0.5867910000000 1.0
C      1  0.4712740000000  0.4421750000000  0.4170560000000 1.0
C      1  0.4563160000000  0.4993470000000  0.4723310000000 1.0
C      1  0.4711440000000  0.5214550000000  0.5061710000000 1.0
C      1  0.5160340000000  0.5094860000000  0.3974430000000 1.0
C      1  0.5570320000000  0.4295900000000  0.4902380000000 1.0
C      1  0.5009000000000  0.4802210000000  0.4431230000000 1.0
C      1  0.5418180000000  0.4509630000000  0.4347430000000 1.0
C      1  0.5841630000000  0.5219400000000  0.5698400000000 1.0
C      1  0.5265030000000  0.5598590000000  0.4169260000000 1.0
C      1  0.5651000000000  0.5424120000000  0.5642530000000 1.0
C      1  0.5808170000000  0.4673990000000  0.4616780000000 1.0
C      1  0.5216900000000  0.5610980000000  0.5117380000000 1.0
C      1  0.5053780000000  0.4912900000000  0.6031000000000 1.0
C      1  0.4474280000000  0.5521460000000  0.4363320000000 1.0
C      1  0.4025970000000  0.4873480000000  0.4882830000000 1.0
C      1  0.5310250000000  0.5066400000000  0.4739550000000 1.0
C      1  0.4571930000000  0.4662680000000  0.4079130000000 1.0
C      1  0.5117640000000  0.5733530000000  0.5558470000000 1.0
C      1  0.5459680000000  0.5310230000000  0.5436320000000 1.0
C      1  0.4549640000000  0.4458620000000  0.5648170000000 1.0
C      1  0.4171030000000  0.4710980000000  0.4433640000000 1.0
C      1  0.4569860000000  0.5631700000000  0.4882420000000 1.0
C      1  0.5099170000000  0.4140530000000  0.5233130000000 1.0
C      1  0.5248740000000  0.4540400000000  0.5780250000000 1.0
C      1  0.5245750000000  0.5988170000000  0.4870790000000 1.0
C      1  0.4379220000000  0.5076660000000  0.4271720000000 1.0
C      1  0.4812690000000  0.5998420000000  0.4702740000000 1.0
C      1  0.4785030000000  0.5579050000000  0.5827510000000 1.0
C      1  0.4861020000000  0.4073050000000  0.4792170000000 1.0
C      1  0.4243700000000  0.5435470000000  0.4493050000000 1.0
C      1  0.5359180000000  0.5040670000000  0.5573010000000 1.0
C      1  0.4186720000000  0.4460830000000  0.4553730000000 1.0
C      1  0.5154950000000  0.5774680000000  0.4415470000000 1.0
C      1  0.4656460000000  0.5706350000000  0.5589280000000 1.0
C      1  0.4922610000000  0.4651670000000  0.4644920000000 1.0
C      1  0.5091040000000  0.5353760000000  0.4125260000000 1.0
C      1  0.4871940000000  0.5842700000000  0.5453090000000 1.0
C      1  0.4879960000000  0.5882310000000  0.4439500000000 1.0
C      1  0.5894360000000  0.5006480000000  0.5515850000000 1.0
C      1  0.4741820000000  0.5227000000000  0.5351380000000 1.0
C      1  0.5214270000000  0.5502310000000  0.5390360000000 1.0
C      1  0.4796210000000  0.5402240000000  0.4844950000000 1.0
C      1  0.4326250000000  0.4789050000000  0.5816400000000 1.0
C      1  0.5921820000000  0.4898130000000  0.4770180000000 1.0
C      1  0.4874220000000  0.5034340000000  0.3931320000000 1.0
C      1  0.4183310000000  0.5165790000000  0.4462470000000 1.0
C      1  0.4400270000000  0.5041980000000  0.5711630000000 1.0
C      1  0.5916330000000  0.4555480000000  0.5068940000000 1.0
C      1  0.4457290000000  0.5626340000000  0.5383530000000 1.0
C      1  0.4610620000000  0.5761690000000  0.4423020000000 1.0
C      1  0.5779960000000  0.4434260000000  0.5292460000000 1.0
C      1  0.5115280000000  0.5079230000000  0.5199030000000 1.0
C      1  0.5095970000000  0.5469480000000  0.4880130000000 1.0
C      1  0.4357410000000  0.4800430000000  0.4228370000000 1.0
C      1  0.4459540000000  0.5089080000000  0.5001980000000 1.0
C      1  0.4773430000000  0.5320030000000  0.5954990000000 1.0
C      1  0.5338990000000  0.5930700000000  0.4604580000000 1.0
C      1  0.4682170000000  0.4733740000000  0.4768830000000 1.0
C      1  0.5016440000000  0.5263390000000  0.5415470000000 1.0
C      1  0.4719140000000  0.4818570000000  0.3894350000000 1.0
C      1  0.5316630000000  0.4280140000000  0.4489350000000 1.0
C      1  0.4574000000000  0.5741080000000  0.5142570000000 1.0
C      1  0.5365150000000  0.4813620000000  0.4871800000000 1.0
C      1  0.4768840000000  0.4852030000000  0.5928290000000 1.0
END
