TITL C-107227-8376-10 -8.35791540023422 125000 -76.7937967055726 0 0 12 (C1) n - 1
REM
REM in /rds/project/t2_vol4/rds-t2-cs072/BORA/CARBON/from-Arr/AIRSS/Generating-Clusters/GAP-ML-2020/Only-C1/SD-CG/HFTN-CG
REM
REM
REM
REM
REM
REM ./C.cell (11c1c37f851c82e70ff6c80c92926a4b)
REM AIRSS Version 0.9.1 bugfix July 2018 build 013d7b7c2542+ Fri, 06 Jul 2018 19:26:36 +0100
REM compiler GCC version 9.3.0
REM options -cpp -mtune=generic -march=x86-64 -g -O0
REM seed 818295863 -1044283887 -645592646 1495930489 -835849087 -124249955 -464755937 -347750371 652130251 1107284176 -1010758775 -460188264 -48587975 1626577393 -1165147744 -690819986 -580393594 -1656182291 -1195937449 1492708234 -1854644215 -1451975788 1569750894 -1187782957 1744951099 630731764 2113501069 -25517692 1364978331 862018743 1236501629 -508631688 1103189469
REM
CELL 1.54180   50.00000   50.00000   50.00000   90.00000   90.00000   90.00000
LATT -1
SFAC C  
C      1  0.5179970000000  0.4579010000000  0.5124770000000 1.0
C      1  0.5460740000000  0.4983760000000  0.4970980000000 1.0
C      1  0.5073740000000  0.5303160000000  0.5473510000000 1.0
C      1  0.4622900000000  0.5081520000000  0.4770230000000 1.0
C      1  0.5498220000000  0.5170320000000  0.4793990000000 1.0
C      1  0.4937820000000  0.4555390000000  0.5023010000000 1.0
C      1  0.4996310000000  0.5397060000000  0.5243920000000 1.0
C      1  0.4719150000000  0.4612550000000  0.4896470000000 1.0
C      1  0.5345560000000  0.4771870000000  0.5072260000000 1.0
C      1  0.4705490000000  0.5326670000000  0.4822830000000 1.0
C      1  0.4604560000000  0.4824300000000  0.4784850000000 1.0
C      1  0.4855540000000  0.5394390000000  0.5023180000000 1.0
END
