TITL C-105738-8576-6 -52.4726656152052 125000 -435.024210417744 0 0 64 (C1) n - 1
REM
REM in /rds/project/t2_vol4/rds-t2-cs072/BORA/CARBON/from-Arr/AIRSS/Generating-Clusters/GAP-ML-2020/Only-C1/SD-CG/HFTN-CG
REM
REM
REM
REM
REM
REM ./C.cell (11c1c37f851c82e70ff6c80c92926a4b)
REM AIRSS Version 0.9.1 bugfix July 2018 build 013d7b7c2542+ Fri, 06 Jul 2018 19:26:36 +0100
REM compiler GCC version 9.3.0
REM options -cpp -mtune=generic -march=x86-64 -g -O0
REM seed 654971861 -1505256758 145441975 2682572 1040112964 1751580715 -895549958 -688036046 670996438 -1524886424 1726352123 -627105347 918615311 1566734519 2133311843 -55896059 -168961437 -1952842774 -1724894362 -1880005488 1938702137 1318184644 1326668913 -2123548106 -392296436 1062903129 -1530526231 1675253910 4663626 -2122885595 -1057670077 1640168829 2139783049
REM
CELL 1.54180   50.00000   50.00000   50.00000   90.00000   90.00000   90.00000
LATT -1
SFAC C  
C      1  0.4851540000000  0.4452060000000  0.4420180000000 1.0
C      1  0.5085690000000  0.4886380000000  0.4353370000000 1.0
C      1  0.4607720000000  0.4411200000000  0.5216650000000 1.0
C      1  0.5529870000000  0.4715720000000  0.4818580000000 1.0
C      1  0.4495080000000  0.5361690000000  0.4878110000000 1.0
C      1  0.5469550000000  0.5372190000000  0.5253310000000 1.0
C      1  0.5737220000000  0.5233570000000  0.4905350000000 1.0
C      1  0.5372560000000  0.4480630000000  0.5208390000000 1.0
C      1  0.4714930000000  0.5133730000000  0.4181110000000 1.0
C      1  0.5413440000000  0.4704570000000  0.5651710000000 1.0
C      1  0.4907170000000  0.5479250000000  0.4462770000000 1.0
C      1  0.4962180000000  0.4790090000000  0.5636020000000 1.0
C      1  0.4242310000000  0.4619740000000  0.4960610000000 1.0
C      1  0.4827660000000  0.4887640000000  0.4222820000000 1.0
C      1  0.4777580000000  0.4808840000000  0.4714910000000 1.0
C      1  0.4243310000000  0.4726320000000  0.5383250000000 1.0
C      1  0.5386100000000  0.5506490000000  0.5021980000000 1.0
C      1  0.5559510000000  0.4677840000000  0.5097400000000 1.0
C      1  0.5099530000000  0.5505940000000  0.4953490000000 1.0
C      1  0.5121490000000  0.5495760000000  0.4631970000000 1.0
C      1  0.5886050000000  0.5067370000000  0.4750590000000 1.0
C      1  0.4597170000000  0.5650500000000  0.5459010000000 1.0
C      1  0.4831730000000  0.4966470000000  0.5424860000000 1.0
C      1  0.4370040000000  0.4536620000000  0.5201920000000 1.0
C      1  0.4663440000000  0.5177930000000  0.5057480000000 1.0
C      1  0.4956180000000  0.5632880000000  0.5178280000000 1.0
C      1  0.4576460000000  0.4777520000000  0.4515680000000 1.0
C      1  0.5109540000000  0.5012810000000  0.4880810000000 1.0
C      1  0.4359040000000  0.4837060000000  0.4862780000000 1.0
C      1  0.4479930000000  0.5603480000000  0.5002160000000 1.0
C      1  0.4352360000000  0.4953090000000  0.5402050000000 1.0
C      1  0.5297650000000  0.4512830000000  0.5483230000000 1.0
C      1  0.4654320000000  0.4892770000000  0.4966550000000 1.0
C      1  0.5142480000000  0.4386360000000  0.5067090000000 1.0
C      1  0.4383150000000  0.4970810000000  0.4597420000000 1.0
C      1  0.5478530000000  0.5109530000000  0.4473750000000 1.0
C      1  0.5057800000000  0.4835490000000  0.4649690000000 1.0
C      1  0.5353480000000  0.5118690000000  0.5647970000000 1.0
C      1  0.4687710000000  0.4642120000000  0.4299270000000 1.0
C      1  0.5629540000000  0.4906580000000  0.5267120000000 1.0
C      1  0.5551010000000  0.5435420000000  0.4808800000000 1.0
C      1  0.4482710000000  0.5240950000000  0.4609800000000 1.0
C      1  0.4668560000000  0.5679780000000  0.5186570000000 1.0
C      1  0.5021380000000  0.4534150000000  0.5508910000000 1.0
C      1  0.5255300000000  0.5311090000000  0.5445000000000 1.0
C      1  0.5284480000000  0.4619410000000  0.4713480000000 1.0
C      1  0.5202940000000  0.4887390000000  0.5747640000000 1.0
C      1  0.4575500000000  0.5133100000000  0.5381370000000 1.0
C      1  0.4816830000000  0.5537250000000  0.5600960000000 1.0
C      1  0.5047370000000  0.5531290000000  0.5439280000000 1.0
C      1  0.4584310000000  0.5381490000000  0.5538280000000 1.0
C      1  0.5552760000000  0.4924640000000  0.5538910000000 1.0
C      1  0.5643500000000  0.4945340000000  0.4669950000000 1.0
C      1  0.4881280000000  0.4472680000000  0.5238930000000 1.0
C      1  0.5159540000000  0.4372420000000  0.4779990000000 1.0
C      1  0.5107400000000  0.4879470000000  0.5125960000000 1.0
C      1  0.4961300000000  0.5234890000000  0.5031970000000 1.0
C      1  0.5395290000000  0.5378020000000  0.4584760000000 1.0
C      1  0.5653130000000  0.5172380000000  0.5171280000000 1.0
C      1  0.4826390000000  0.4772340000000  0.5183850000000 1.0
C      1  0.5333700000000  0.4976800000000  0.4285570000000 1.0
C      1  0.4986790000000  0.4294750000000  0.4561720000000 1.0
C      1  0.5052850000000  0.5126180000000  0.5294800000000 1.0
C      1  0.4684620000000  0.5318250000000  0.4392510000000 1.0
END
