TITL C-102211-7202-8 0.00227437503989014 125000 -305.391311517245 0 0 45 (C1) n - 1
REM
REM in /rds/project/t2_vol4/rds-t2-cs072/BORA/CARBON/from-Arr/AIRSS/Generating-Clusters/GAP-ML-2020/Only-C1/SD-CG/HFTN-CG
REM
REM
REM
REM
REM
REM ./C.cell (11c1c37f851c82e70ff6c80c92926a4b)
REM AIRSS Version 0.9.1 bugfix July 2018 build 013d7b7c2542+ Fri, 06 Jul 2018 19:26:36 +0100
REM compiler GCC version 9.3.0
REM options -cpp -mtune=generic -march=x86-64 -g -O0
REM seed -36907529 2002943394 1379469923 404868662 681729607 825251422 1958479067 -831890494 1594482172 1306044280 852628474 -397777240 21101766 -1812032592 1324125065 522739553 866496409 -1541598868 -186132552 1771415255 -1636525171 -873019793 -113108621 -1185558676 -1811279576 -83453029 1353769288 -11603058 270250622 218600855 -267414128 -2144865313 -1586884974
REM
CELL 1.54180   50.00000   50.00000   50.00000   90.00000   90.00000   90.00000
LATT -1
SFAC C  
C      1  0.4955010000000  0.4773270000000  0.5583030000000 1.0
C      1  0.4603810000000  0.5334660000000  0.4731410000000 1.0
C      1  0.4814790000000  0.5034700000000  0.5577650000000 1.0
C      1  0.4916170000000  0.5014850000000  0.4974400000000 1.0
C      1  0.5081130000000  0.4808200000000  0.4882020000000 1.0
C      1  0.4603070000000  0.4617570000000  0.5115910000000 1.0
C      1  0.5061230000000  0.5170970000000  0.5578860000000 1.0
C      1  0.4647710000000  0.5343100000000  0.5228740000000 1.0
C      1  0.4991590000000  0.5546640000000  0.4956650000000 1.0
C      1  0.5316330000000  0.4895700000000  0.5291040000000 1.0
C      1  0.4828470000000  0.4985990000000  0.4458090000000 1.0
C      1  0.4798260000000  0.4441390000000  0.5231450000000 1.0
C      1  0.5298950000000  0.4998540000000  0.4504960000000 1.0
C      1  0.5581510000000  0.5279700000000  0.5115040000000 1.0
C      1  0.5209750000000  0.4918750000000  0.5557480000000 1.0
C      1  0.5472890000000  0.5320770000000  0.4846130000000 1.0
C      1  0.5235380000000  0.5464580000000  0.4810980000000 1.0
C      1  0.5615860000000  0.5485680000000  0.5311540000000 1.0
C      1  0.5703650000000  0.4891460000000  0.4737350000000 1.0
C      1  0.5179950000000  0.4750310000000  0.4573870000000 1.0
C      1  0.5064720000000  0.5400330000000  0.4583580000000 1.0
C      1  0.4472390000000  0.4878510000000  0.4757500000000 1.0
C      1  0.4829410000000  0.5489200000000  0.4725190000000 1.0
C      1  0.4366410000000  0.4978860000000  0.5003780000000 1.0
C      1  0.5306240000000  0.4685900000000  0.5040250000000 1.0
C      1  0.5105530000000  0.5080320000000  0.5159690000000 1.0
C      1  0.4511230000000  0.4867470000000  0.5223430000000 1.0
C      1  0.5568190000000  0.4996050000000  0.5188870000000 1.0
C      1  0.4593920000000  0.4636090000000  0.4824840000000 1.0
C      1  0.4904380000000  0.4553980000000  0.5455790000000 1.0
C      1  0.5366060000000  0.5444180000000  0.5357460000000 1.0
C      1  0.4976400000000  0.4295380000000  0.5055430000000 1.0
C      1  0.5067520000000  0.5155510000000  0.4457980000000 1.0
C      1  0.4599330000000  0.5074820000000  0.4592850000000 1.0
C      1  0.4239810000000  0.5211070000000  0.5025580000000 1.0
C      1  0.4914230000000  0.4717780000000  0.4488070000000 1.0
C      1  0.5518340000000  0.5091260000000  0.4663520000000 1.0
C      1  0.5105800000000  0.5346190000000  0.5358230000000 1.0
C      1  0.4989220000000  0.4367530000000  0.4796580000000 1.0
C      1  0.5221630000000  0.4407870000000  0.4973150000000 1.0
C      1  0.4792450000000  0.4523830000000  0.4659600000000 1.0
C      1  0.4480430000000  0.5335570000000  0.4994670000000 1.0
C      1  0.4889720000000  0.5482790000000  0.5211800000000 1.0
C      1  0.4630310000000  0.5086400000000  0.5378670000000 1.0
C      1  0.5570820000000  0.4816300000000  0.4956910000000 1.0
END
