TITL C-105668-7274-1 -200.708263417625 125000 -623.172788445635 0 0 92 (C1) n - 1
REM
REM in /rds/project/t2_vol4/rds-t2-cs072/BORA/CARBON/from-Arr/AIRSS/Generating-Clusters/GAP-ML-2020/Only-C1/SD-CG/HFTN-CG
REM
REM
REM
REM
REM
REM ./C.cell (11c1c37f851c82e70ff6c80c92926a4b)
REM AIRSS Version 0.9.1 bugfix July 2018 build 013d7b7c2542+ Fri, 06 Jul 2018 19:26:36 +0100
REM compiler GCC version 9.3.0
REM options -cpp -mtune=generic -march=x86-64 -g -O0
REM seed -21471434 -1609637569 -295849710 -924250803 -187913733 -735099885 -932835812 1459099353 1072654839 1562265153 1589116950 1654347412 -1274174341 -1429029587 1938041464 -454825522 2005544621 1818544328 174464356 -375527617 -560537928 -1195791822 -1650358710 -1949069387 -1099580994 1124827211 -722541869 1050250364 1888708610 1765537696 -419511700 535266379 -1853871926
REM
CELL 1.54180   50.00000   50.00000   50.00000   90.00000   90.00000   90.00000
LATT -1
SFAC C  
C      1  0.4805450000000  0.4500650000000  0.5503330000000 1.0
C      1  0.5128510000000  0.5263360000000  0.4816840000000 1.0
C      1  0.5437570000000  0.5029310000000  0.4467130000000 1.0
C      1  0.5080490000000  0.5028480000000  0.5955440000000 1.0
C      1  0.4869700000000  0.5208860000000  0.5986180000000 1.0
C      1  0.5052710000000  0.5260830000000  0.5338830000000 1.0
C      1  0.4760320000000  0.5040230000000  0.5045200000000 1.0
C      1  0.5622950000000  0.4715310000000  0.4798950000000 1.0
C      1  0.5420590000000  0.5633630000000  0.4604430000000 1.0
C      1  0.4519660000000  0.4460050000000  0.5383020000000 1.0
C      1  0.4576710000000  0.4912890000000  0.5580080000000 1.0
C      1  0.5152260000000  0.5017030000000  0.5489510000000 1.0
C      1  0.5726800000000  0.5391900000000  0.5040780000000 1.0
C      1  0.4534240000000  0.4336870000000  0.4627170000000 1.0
C      1  0.5347170000000  0.5641580000000  0.5560590000000 1.0
C      1  0.4502260000000  0.5584410000000  0.4933930000000 1.0
C      1  0.4923440000000  0.4620160000000  0.5242220000000 1.0
C      1  0.4560710000000  0.4775170000000  0.4404520000000 1.0
C      1  0.4823110000000  0.5616900000000  0.5646760000000 1.0
C      1  0.5516680000000  0.4446960000000  0.5239050000000 1.0
C      1  0.4621760000000  0.5193850000000  0.5595090000000 1.0
C      1  0.4452360000000  0.4301790000000  0.5177200000000 1.0
C      1  0.5047870000000  0.4837780000000  0.5714530000000 1.0
C      1  0.5378130000000  0.4300000000000  0.4813630000000 1.0
C      1  0.5279830000000  0.5465740000000  0.5326810000000 1.0
C      1  0.5207550000000  0.4159160000000  0.5504360000000 1.0
C      1  0.5138570000000  0.4962290000000  0.3955840000000 1.0
C      1  0.4333140000000  0.4976040000000  0.4480200000000 1.0
C      1  0.5501210000000  0.5487000000000  0.4857320000000 1.0
C      1  0.5305140000000  0.4319640000000  0.4538020000000 1.0
C      1  0.5315730000000  0.4243900000000  0.5269890000000 1.0
C      1  0.4783990000000  0.4740220000000  0.5658520000000 1.0
C      1  0.4705940000000  0.5069970000000  0.4758230000000 1.0
C      1  0.4961570000000  0.5801540000000  0.5288720000000 1.0
C      1  0.4914890000000  0.4572430000000  0.4754810000000 1.0
C      1  0.4260960000000  0.4892260000000  0.5141370000000 1.0
C      1  0.4449670000000  0.5238530000000  0.4394400000000 1.0
C      1  0.5726380000000  0.5364350000000  0.5333900000000 1.0
C      1  0.5558950000000  0.4476690000000  0.4950120000000 1.0
C      1  0.5181740000000  0.4252690000000  0.5018460000000 1.0
C      1  0.4346200000000  0.5341980000000  0.4897880000000 1.0
C      1  0.5084980000000  0.5725930000000  0.5542280000000 1.0
C      1  0.4966330000000  0.5754980000000  0.4786690000000 1.0
C      1  0.5114350000000  0.4770850000000  0.4733350000000 1.0
C      1  0.5050320000000  0.5130240000000  0.5064090000000 1.0
C      1  0.4695810000000  0.5207950000000  0.4250860000000 1.0
C      1  0.5072250000000  0.4376820000000  0.5592290000000 1.0
C      1  0.4495850000000  0.5726880000000  0.5181560000000 1.0
C      1  0.5225240000000  0.4894720000000  0.5003380000000 1.0
C      1  0.4269370000000  0.4738320000000  0.4902650000000 1.0
C      1  0.4589390000000  0.5217320000000  0.5194800000000 1.0
C      1  0.5393450000000  0.4570720000000  0.4431020000000 1.0
C      1  0.5092600000000  0.5764980000000  0.5040010000000 1.0
C      1  0.4754840000000  0.5352330000000  0.5381520000000 1.0
C      1  0.4739230000000  0.5361520000000  0.5796700000000 1.0
C      1  0.5208590000000  0.4812240000000  0.4440820000000 1.0
C      1  0.5352800000000  0.5064560000000  0.5917750000000 1.0
C      1  0.5505680000000  0.5390940000000  0.5519740000000 1.0
C      1  0.5433750000000  0.5101920000000  0.5643420000000 1.0
C      1  0.5098440000000  0.5576320000000  0.4325210000000 1.0
C      1  0.4458330000000  0.4768030000000  0.5348970000000 1.0
C      1  0.5746140000000  0.5103470000000  0.5049340000000 1.0
C      1  0.4315270000000  0.5166960000000  0.5126800000000 1.0
C      1  0.5234470000000  0.4605970000000  0.5644180000000 1.0
C      1  0.4829390000000  0.4334480000000  0.4579280000000 1.0
C      1  0.5405350000000  0.5231570000000  0.4259550000000 1.0
C      1  0.5044530000000  0.4212080000000  0.4472860000000 1.0
C      1  0.4705480000000  0.5666910000000  0.5369350000000 1.0
C      1  0.5158920000000  0.5193920000000  0.4092640000000 1.0
C      1  0.4686920000000  0.4772940000000  0.5142880000000 1.0
C      1  0.4944550000000  0.5367850000000  0.4193280000000 1.0
C      1  0.5770450000000  0.5073260000000  0.5334510000000 1.0
C      1  0.4390400000000  0.4542000000000  0.4476490000000 1.0
C      1  0.5177230000000  0.4787730000000  0.5275760000000 1.0
C      1  0.4878380000000  0.5304180000000  0.4696960000000 1.0
C      1  0.4750170000000  0.5564650000000  0.4779940000000 1.0
C      1  0.4211380000000  0.4744100000000  0.4616150000000 1.0
C      1  0.5439490000000  0.4667860000000  0.5425810000000 1.0
C      1  0.4742110000000  0.4925150000000  0.4229870000000 1.0
C      1  0.4552380000000  0.4663180000000  0.4904490000000 1.0
C      1  0.5024640000000  0.4858810000000  0.4192830000000 1.0
C      1  0.4439430000000  0.5188500000000  0.4673950000000 1.0
C      1  0.5380360000000  0.5496350000000  0.4350860000000 1.0
C      1  0.5599710000000  0.4912110000000  0.5496980000000 1.0
C      1  0.5322490000000  0.5604450000000  0.5069240000000 1.0
C      1  0.5415290000000  0.5177160000000  0.4731470000000 1.0
C      1  0.5142790000000  0.5732040000000  0.4572000000000 1.0
C      1  0.5522310000000  0.4967140000000  0.4918920000000 1.0
C      1  0.5593770000000  0.4745590000000  0.4525210000000 1.0
C      1  0.4709250000000  0.4780330000000  0.4679470000000 1.0
C      1  0.4470400000000  0.4384690000000  0.4911350000000 1.0
C      1  0.4962060000000  0.4434550000000  0.5017180000000 1.0
END
