TITL C-102211-7202-2 -0.0649600289953686 125000 -207.28753679522 0 0 32 (C1) n - 1
REM
REM in /rds/project/t2_vol4/rds-t2-cs072/BORA/CARBON/from-Arr/AIRSS/Generating-Clusters/GAP-ML-2020/Only-C1/SD-CG/HFTN-CG
REM
REM
REM
REM
REM
REM ./C.cell (11c1c37f851c82e70ff6c80c92926a4b)
REM AIRSS Version 0.9.1 bugfix July 2018 build 013d7b7c2542+ Fri, 06 Jul 2018 19:26:36 +0100
REM compiler GCC version 9.3.0
REM options -cpp -mtune=generic -march=x86-64 -g -O0
REM seed -921858393 1010756394 342664843 -20070693 -1560479741 1388334404 309858394 2107649387 822702155 1291110727 -1957080420 -2084716209 1969553997 -1595062813 679074403 -471365022 -2140314930 -873374506 925622599 -801113970 -720924648 -510302125 -1789136425 -359538272 -185011623 1540978600 -1787797750 -1731434445 1805872134 1132764910 -816074236 585648733 -29132534
REM
CELL 1.54180   50.00000   50.00000   50.00000   90.00000   90.00000   90.00000
LATT -1
SFAC C  
C      1  0.4984400000000  0.4942140000000  0.5447550000000 1.0
C      1  0.4518830000000  0.4922270000000  0.4680780000000 1.0
C      1  0.5210460000000  0.5327810000000  0.5212380000000 1.0
C      1  0.5606070000000  0.5039810000000  0.5155200000000 1.0
C      1  0.5392240000000  0.4674900000000  0.5344010000000 1.0
C      1  0.5556750000000  0.4714030000000  0.4908610000000 1.0
C      1  0.4574860000000  0.5417790000000  0.4959030000000 1.0
C      1  0.4884670000000  0.4652330000000  0.4535900000000 1.0
C      1  0.5302530000000  0.4561640000000  0.4906710000000 1.0
C      1  0.4810930000000  0.5124170000000  0.5560040000000 1.0
C      1  0.4819530000000  0.5102330000000  0.4321320000000 1.0
C      1  0.4521440000000  0.5334470000000  0.5230010000000 1.0
C      1  0.4728590000000  0.4893100000000  0.4482290000000 1.0
C      1  0.4807910000000  0.4559360000000  0.4787400000000 1.0
C      1  0.4848530000000  0.5448080000000  0.5009770000000 1.0
C      1  0.5567120000000  0.5008790000000  0.4863780000000 1.0
C      1  0.4873880000000  0.4973750000000  0.5185170000000 1.0
C      1  0.5083500000000  0.4550310000000  0.4727100000000 1.0
C      1  0.4612050000000  0.4877070000000  0.5119840000000 1.0
C      1  0.4417880000000  0.5089660000000  0.5119290000000 1.0
C      1  0.4972450000000  0.5477590000000  0.5273240000000 1.0
C      1  0.5150670000000  0.5195950000000  0.4717100000000 1.0
C      1  0.4596350000000  0.4729500000000  0.4882450000000 1.0
C      1  0.4455260000000  0.5171670000000  0.4834400000000 1.0
C      1  0.4749630000000  0.5344250000000  0.5399070000000 1.0
C      1  0.4955180000000  0.5205530000000  0.4514900000000 1.0
C      1  0.5262980000000  0.4907320000000  0.5446540000000 1.0
C      1  0.5028850000000  0.5206290000000  0.4992180000000 1.0
C      1  0.5625450000000  0.4754540000000  0.5187190000000 1.0
C      1  0.5384280000000  0.5141000000000  0.5314790000000 1.0
C      1  0.5266420000000  0.4487180000000  0.5185740000000 1.0
C      1  0.5430310000000  0.5165380000000  0.4696200000000 1.0
END
