TITL C-101225-5563-5 -0.0746839590508604 125000 -347.435654418149 0 0 51 (C1) n - 1
REM
REM in /rds/project/t2_vol4/rds-t2-cs072/BORA/CARBON/from-Arr/AIRSS/Generating-Clusters/GAP-ML-2020/Only-C1/SD-CG/HFTN-CG
REM
REM
REM
REM
REM
REM ./C.cell (11c1c37f851c82e70ff6c80c92926a4b)
REM AIRSS Version 0.9.1 bugfix July 2018 build 013d7b7c2542+ Fri, 06 Jul 2018 19:26:36 +0100
REM compiler GCC version 9.3.0
REM options -cpp -mtune=generic -march=x86-64 -g -O0
REM seed -852844479 246692601 -134173103 192455845 894266155 -1733236767 949897207 961060611 878928441 860131968 -1274514089 -1043981925 -980890367 43940205 -120538158 -414608832 771738278 -1837064977 -746745825 -1459770052 -1903563281 1653642157 378610219 -418181617 -1427534851 1008460434 1876986337 1560981969 1163273511 -1225117087 -297736562 -740726691 -1990839859
REM
CELL 1.54180   50.00000   50.00000   50.00000   90.00000   90.00000   90.00000
LATT -1
SFAC C  
C      1  0.5473530000000  0.4924130000000  0.5299600000000 1.0
C      1  0.5461630000000  0.4624940000000  0.5268900000000 1.0
C      1  0.4724350000000  0.4631440000000  0.5497410000000 1.0
C      1  0.4661670000000  0.4895310000000  0.5557300000000 1.0
C      1  0.4571500000000  0.5522150000000  0.5002350000000 1.0
C      1  0.5507640000000  0.4551180000000  0.4993000000000 1.0
C      1  0.5276930000000  0.4549840000000  0.4784020000000 1.0
C      1  0.5297490000000  0.5109370000000  0.5727030000000 1.0
C      1  0.5710540000000  0.4697370000000  0.4878860000000 1.0
C      1  0.4704480000000  0.5501500000000  0.5255900000000 1.0
C      1  0.4724040000000  0.5381740000000  0.4561830000000 1.0
C      1  0.5552500000000  0.5147250000000  0.5732460000000 1.0
C      1  0.4802350000000  0.5146860000000  0.5593750000000 1.0
C      1  0.4421060000000  0.4863100000000  0.4877640000000 1.0
C      1  0.5023690000000  0.5576910000000  0.4927680000000 1.0
C      1  0.4955910000000  0.4480140000000  0.5404480000000 1.0
C      1  0.5177850000000  0.5407830000000  0.5367240000000 1.0
C      1  0.5271000000000  0.5485070000000  0.4829010000000 1.0
C      1  0.4969300000000  0.4771430000000  0.4366920000000 1.0
C      1  0.4875090000000  0.4658620000000  0.4631760000000 1.0
C      1  0.4847540000000  0.5113320000000  0.4991690000000 1.0
C      1  0.5545380000000  0.5175190000000  0.4770710000000 1.0
C      1  0.5093510000000  0.4805230000000  0.4807330000000 1.0
C      1  0.5008120000000  0.4406970000000  0.4750900000000 1.0
C      1  0.4490070000000  0.5213800000000  0.4568750000000 1.0
C      1  0.4572410000000  0.4760300000000  0.4647250000000 1.0
C      1  0.5591580000000  0.4893720000000  0.4726330000000 1.0
C      1  0.4985410000000  0.5543570000000  0.5212340000000 1.0
C      1  0.4489580000000  0.5014520000000  0.5352290000000 1.0
C      1  0.5378060000000  0.4759700000000  0.4584650000000 1.0
C      1  0.4875540000000  0.4250760000000  0.4935880000000 1.0
C      1  0.5171410000000  0.4920270000000  0.5314480000000 1.0
C      1  0.4621020000000  0.5285820000000  0.5415390000000 1.0
C      1  0.5575410000000  0.5140780000000  0.5447250000000 1.0
C      1  0.5472760000000  0.5354070000000  0.4996030000000 1.0
C      1  0.4581050000000  0.4563420000000  0.5252500000000 1.0
C      1  0.4370290000000  0.5148880000000  0.4818430000000 1.0
C      1  0.4456450000000  0.4804220000000  0.5151880000000 1.0
C      1  0.5442690000000  0.5344370000000  0.5276280000000 1.0
C      1  0.4795240000000  0.4366710000000  0.5169100000000 1.0
C      1  0.5236030000000  0.4884830000000  0.4376040000000 1.0
C      1  0.4352280000000  0.5363210000000  0.4980280000000 1.0
C      1  0.4552410000000  0.4961990000000  0.4448110000000 1.0
C      1  0.4913480000000  0.5238630000000  0.4383040000000 1.0
C      1  0.5197840000000  0.5177750000000  0.4406660000000 1.0
C      1  0.5344850000000  0.5306900000000  0.4607330000000 1.0
C      1  0.4793090000000  0.4986490000000  0.4305280000000 1.0
C      1  0.5190180000000  0.4631370000000  0.5376000000000 1.0
C      1  0.5085520000000  0.5161410000000  0.5526770000000 1.0
C      1  0.4769070000000  0.5548340000000  0.4792810000000 1.0
C      1  0.5039190000000  0.4947290000000  0.5051100000000 1.0
END
