TITL C-105667-491-7 -207.499439774742 125000 -837.546208655792 0 0 119 (C1) n - 1
REM
REM in /rds/project/t2_vol4/rds-t2-cs072/BORA/CARBON/from-Arr/AIRSS/Generating-Clusters/GAP-ML-2020/Only-C1/SD-CG/HFTN-CG
REM
REM
REM
REM
REM
REM ./C.cell (11c1c37f851c82e70ff6c80c92926a4b)
REM AIRSS Version 0.9.1 bugfix July 2018 build 013d7b7c2542+ Fri, 06 Jul 2018 19:26:36 +0100
REM compiler GCC version 9.3.0
REM options -cpp -mtune=generic -march=x86-64 -g -O0
REM seed -1604615223 1485576422 1559019326 371765698 411839492 -1273165471 505098281 -1850751986 -1617890667 -486190605 -408808660 200095006 -1519983046 -1474081274 -675805960 -333049458 -1272070858 540925406 636069306 1824602514 -1102715656 1620261032 1470527474 -1248956739 166531095 -1907625741 -2034067930 -2033874930 270713129 1627127198 -1487675750 1283579316 -1569480190
REM
CELL 1.54180   50.00000   50.00000   50.00000   90.00000   90.00000   90.00000
LATT -1
SFAC C  
C      1  0.5634930000000  0.4399780000000  0.4728910000000 1.0
C      1  0.5983700000000  0.5277060000000  0.4948700000000 1.0
C      1  0.4322870000000  0.4743570000000  0.5594850000000 1.0
C      1  0.5134030000000  0.4250250000000  0.5288870000000 1.0
C      1  0.4984750000000  0.4993640000000  0.4902450000000 1.0
C      1  0.4870160000000  0.4142060000000  0.4531460000000 1.0
C      1  0.4969330000000  0.5754450000000  0.4618380000000 1.0
C      1  0.4764300000000  0.4627820000000  0.5796780000000 1.0
C      1  0.4245050000000  0.5229120000000  0.5601360000000 1.0
C      1  0.5420320000000  0.4256800000000  0.4594580000000 1.0
C      1  0.5333140000000  0.5512930000000  0.4353510000000 1.0
C      1  0.4843580000000  0.4219200000000  0.5256540000000 1.0
C      1  0.4803140000000  0.4250590000000  0.4972720000000 1.0
C      1  0.5502420000000  0.4797380000000  0.4999530000000 1.0
C      1  0.4879020000000  0.4579580000000  0.4987120000000 1.0
C      1  0.5313510000000  0.4735950000000  0.6083950000000 1.0
C      1  0.4341740000000  0.4993490000000  0.5728060000000 1.0
C      1  0.4821000000000  0.5310750000000  0.4630370000000 1.0
C      1  0.4703360000000  0.5179760000000  0.4181190000000 1.0
C      1  0.4575340000000  0.5067260000000  0.5875440000000 1.0
C      1  0.4948790000000  0.5359720000000  0.5781360000000 1.0
C      1  0.4636050000000  0.5053920000000  0.5217330000000 1.0
C      1  0.5652820000000  0.4587940000000  0.5147600000000 1.0
C      1  0.5739120000000  0.4893880000000  0.4863550000000 1.0
C      1  0.4313850000000  0.4916690000000  0.4473610000000 1.0
C      1  0.5232590000000  0.5415450000000  0.4816930000000 1.0
C      1  0.5917300000000  0.5041810000000  0.5070960000000 1.0
C      1  0.4105950000000  0.5221100000000  0.5343090000000 1.0
C      1  0.4607740000000  0.4241010000000  0.4566120000000 1.0
C      1  0.4394850000000  0.4560070000000  0.4787460000000 1.0
C      1  0.5671340000000  0.5585600000000  0.4820410000000 1.0
C      1  0.5400830000000  0.4999240000000  0.5175360000000 1.0
C      1  0.5540970000000  0.5321400000000  0.4337220000000 1.0
C      1  0.4704720000000  0.5611910000000  0.5268450000000 1.0
C      1  0.5139700000000  0.4485360000000  0.5468270000000 1.0
C      1  0.4519010000000  0.4284840000000  0.4861590000000 1.0
C      1  0.4828990000000  0.4491670000000  0.4242170000000 1.0
C      1  0.4438640000000  0.5136200000000  0.4301220000000 1.0
C      1  0.5399650000000  0.5049750000000  0.4280640000000 1.0
C      1  0.5337170000000  0.5022970000000  0.4598160000000 1.0
C      1  0.4797460000000  0.5566460000000  0.4487960000000 1.0
C      1  0.5161230000000  0.5137930000000  0.4127400000000 1.0
C      1  0.4608350000000  0.4351610000000  0.5379010000000 1.0
C      1  0.5238460000000  0.4560880000000  0.5888440000000 1.0
C      1  0.4464140000000  0.5641020000000  0.5463100000000 1.0
C      1  0.4591160000000  0.4610930000000  0.5556380000000 1.0
C      1  0.5910480000000  0.5026720000000  0.4420830000000 1.0
C      1  0.5779400000000  0.5258990000000  0.4510540000000 1.0
C      1  0.4766630000000  0.5305350000000  0.5244840000000 1.0
C      1  0.5111270000000  0.5493940000000  0.5523490000000 1.0
C      1  0.5306550000000  0.4773150000000  0.4755450000000 1.0
C      1  0.4648180000000  0.5770430000000  0.5016290000000 1.0
C      1  0.5013920000000  0.5220910000000  0.5358640000000 1.0
C      1  0.5768110000000  0.4655460000000  0.4663200000000 1.0
C      1  0.4621660000000  0.4709640000000  0.4945550000000 1.0
C      1  0.4406370000000  0.4335390000000  0.5186440000000 1.0
C      1  0.4979480000000  0.4107610000000  0.4783620000000 1.0
C      1  0.5095330000000  0.5821410000000  0.5097700000000 1.0
C      1  0.5084640000000  0.5197110000000  0.4714700000000 1.0
C      1  0.5331730000000  0.4215630000000  0.5071610000000 1.0
C      1  0.5415880000000  0.5549670000000  0.5535190000000 1.0
C      1  0.4912210000000  0.4999160000000  0.4099840000000 1.0
C      1  0.5901350000000  0.5435810000000  0.4742040000000 1.0
C      1  0.4989950000000  0.5696750000000  0.5334280000000 1.0
C      1  0.5370750000000  0.5882890000000  0.5027110000000 1.0
C      1  0.5583830000000  0.4356290000000  0.5012330000000 1.0
C      1  0.5551900000000  0.5959640000000  0.5242510000000 1.0
C      1  0.4677700000000  0.4991740000000  0.4941070000000 1.0
C      1  0.5121540000000  0.5410280000000  0.4190840000000 1.0
C      1  0.4436390000000  0.5441680000000  0.5660540000000 1.0
C      1  0.5860340000000  0.4964850000000  0.5350270000000 1.0
C      1  0.4155370000000  0.4622640000000  0.4932600000000 1.0
C      1  0.4396750000000  0.4647930000000  0.4504960000000 1.0
C      1  0.5779760000000  0.4782790000000  0.4406650000000 1.0
C      1  0.4155110000000  0.4730830000000  0.5369010000000 1.0
C      1  0.4349300000000  0.5361340000000  0.4422730000000 1.0
C      1  0.5037020000000  0.4720770000000  0.4790650000000 1.0
C      1  0.5510890000000  0.5775310000000  0.5411990000000 1.0
C      1  0.4842670000000  0.5437900000000  0.4242690000000 1.0
C      1  0.4078870000000  0.4894130000000  0.4933840000000 1.0
C      1  0.4602300000000  0.5206570000000  0.4756070000000 1.0
C      1  0.5567670000000  0.4937800000000  0.5732170000000 1.0
C      1  0.5594740000000  0.5127620000000  0.4718740000000 1.0
C      1  0.4069330000000  0.4965090000000  0.5219120000000 1.0
C      1  0.5314940000000  0.4957360000000  0.5901270000000 1.0
C      1  0.4307410000000  0.5314210000000  0.4713610000000 1.0
C      1  0.4222620000000  0.5916040000000  0.5151920000000 1.0
C      1  0.5541380000000  0.4789000000000  0.4243140000000 1.0
C      1  0.4224990000000  0.5703700000000  0.5323410000000 1.0
C      1  0.5475110000000  0.5788540000000  0.4776890000000 1.0
C      1  0.4127970000000  0.5461080000000  0.5187630000000 1.0
C      1  0.5523970000000  0.5254020000000  0.5177560000000 1.0
C      1  0.4996400000000  0.4489240000000  0.5750630000000 1.0
C      1  0.5767410000000  0.4698440000000  0.5378340000000 1.0
C      1  0.4793540000000  0.4897410000000  0.5908620000000 1.0
C      1  0.5253550000000  0.4139650000000  0.4806520000000 1.0
C      1  0.5254790000000  0.5660100000000  0.4605110000000 1.0
C      1  0.5122500000000  0.4991190000000  0.5182150000000 1.0
C      1  0.4942240000000  0.5025730000000  0.5561060000000 1.0
C      1  0.5610610000000  0.4683230000000  0.5616310000000 1.0
C      1  0.4762160000000  0.4845590000000  0.5405260000000 1.0
C      1  0.5506880000000  0.5350060000000  0.4904660000000 1.0
C      1  0.5010840000000  0.4290210000000  0.4335380000000 1.0
C      1  0.4660530000000  0.5336990000000  0.5810180000000 1.0
C      1  0.4230640000000  0.5515500000000  0.4915990000000 1.0
C      1  0.4192370000000  0.4515430000000  0.5191110000000 1.0
C      1  0.4582100000000  0.4464910000000  0.4389390000000 1.0
C      1  0.5384550000000  0.4520780000000  0.5644120000000 1.0
C      1  0.5038650000000  0.5069870000000  0.5839630000000 1.0
C      1  0.4938290000000  0.4710250000000  0.4087280000000 1.0
C      1  0.4175060000000  0.5040930000000  0.4700990000000 1.0
C      1  0.5186640000000  0.4626980000000  0.3983640000000 1.0
C      1  0.5292280000000  0.4336410000000  0.4349200000000 1.0
C      1  0.5716460000000  0.5118060000000  0.5562410000000 1.0
C      1  0.4365860000000  0.5782650000000  0.4955530000000 1.0
C      1  0.4989610000000  0.4713210000000  0.5263450000000 1.0
C      1  0.5597860000000  0.5348800000000  0.5443510000000 1.0
C      1  0.4892280000000  0.5819940000000  0.4885840000000 1.0
C      1  0.5375590000000  0.4562520000000  0.4179520000000 1.0
END
