TITL C-105655-7267-11 64.2220307527317 125000 -160.485520829616 0 0 25 (C1) n - 1
REM
REM in /rds/project/t2_vol4/rds-t2-cs072/BORA/CARBON/from-Arr/AIRSS/Generating-Clusters/GAP-ML-2020/Only-C1/SD-CG/HFTN-CG
REM
REM
REM
REM
REM
REM ./C.cell (11c1c37f851c82e70ff6c80c92926a4b)
REM AIRSS Version 0.9.1 bugfix July 2018 build 013d7b7c2542+ Fri, 06 Jul 2018 19:26:36 +0100
REM compiler GCC version 9.3.0
REM options -cpp -mtune=generic -march=x86-64 -g -O0
REM seed -806195753 -614921541 817804902 467495344 -769430720 285277216 -1926628552 198680424 -343145383 1223524487 -1846368245 -666942725 -608246642 349204152 -1020919852 -819110039 -598038813 148855983 1071663738 897005444 -858002736 825577007 1496293676 -972862377 799259629 -1326672908 -978085754 1360444394 -1792967642 1489512590 -1532667494 -2117670286 -1700229517
REM
CELL 1.54180   50.00000   50.00000   50.00000   90.00000   90.00000   90.00000
LATT -1
SFAC C  
C      1  0.5515610000000  0.5274760000000  0.4626700000000 1.0
C      1  0.4807530000000  0.4449740000000  0.4912300000000 1.0
C      1  0.5134110000000  0.5419820000000  0.4781370000000 1.0
C      1  0.4899870000000  0.4617470000000  0.4752860000000 1.0
C      1  0.4395490000000  0.4376450000000  0.5202960000000 1.0
C      1  0.4945090000000  0.4882450000000  0.4674160000000 1.0
C      1  0.4741730000000  0.4890450000000  0.5372210000000 1.0
C      1  0.5400830000000  0.5058250000000  0.4437560000000 1.0
C      1  0.5764460000000  0.5277410000000  0.4758970000000 1.0
C      1  0.5355110000000  0.5289040000000  0.5271820000000 1.0
C      1  0.5280780000000  0.5156070000000  0.4796990000000 1.0
C      1  0.4686490000000  0.4612170000000  0.5388230000000 1.0
C      1  0.4982090000000  0.5276700000000  0.4969470000000 1.0
C      1  0.4935700000000  0.5068970000000  0.5412840000000 1.0
C      1  0.4375950000000  0.4611570000000  0.5366250000000 1.0
C      1  0.5083390000000  0.5234710000000  0.5250900000000 1.0
C      1  0.4809150000000  0.5077300000000  0.4855360000000 1.0
C      1  0.5758130000000  0.5308240000000  0.5014590000000 1.0
C      1  0.5344140000000  0.5516790000000  0.4650330000000 1.0
C      1  0.5600080000000  0.5321690000000  0.5224810000000 1.0
C      1  0.4582350000000  0.5019210000000  0.4985510000000 1.0
C      1  0.4676890000000  0.4427100000000  0.5156050000000 1.0
C      1  0.5188800000000  0.4982140000000  0.4580550000000 1.0
C      1  0.4255830000000  0.4858810000000  0.5328960000000 1.0
C      1  0.4480400000000  0.4992680000000  0.5228260000000 1.0
END
