TITL C-101220-5679-2 -59.8956138434099 125000 -105.525259093383 0 0 16 (C2v) n - 1
REM
REM in /rds/project/t2_vol4/rds-t2-cs072/BORA/CARBON/from-Arr/AIRSS/Generating-Clusters/GAP-ML-2020/Only-C1/SD-CG/HFTN-CG
REM
REM
REM
REM
REM
REM ./C.cell (11c1c37f851c82e70ff6c80c92926a4b)
REM AIRSS Version 0.9.1 bugfix July 2018 build 013d7b7c2542+ Fri, 06 Jul 2018 19:26:36 +0100
REM compiler GCC version 9.3.0
REM options -cpp -mtune=generic -march=x86-64 -g -O0
REM seed -1332833069 -1100281768 -1854968978 -1824435805 -1207222396 -1902485772 363540266 -418630319 -538589771 275496347 -1549159071 1894548791 -1982130681 -1364185698 1496374327 -846516333 -1298158325 824900904 1352764093 723456072 812045944 9504080 1489068806 -1846182193 -1472664798 -559519234 -874736466 134911732 1296452701 -670414336 -1181745123 -722695897 557118997
REM
CELL 1.54180   50.00000   50.00000   50.00000   90.00000   90.00000   90.00000
LATT -1
SFAC C  
C      1  0.5202250000000  0.5415930000000  0.4885230000000 1.0
C      1  0.5295870000000  0.5023620000000  0.5440860000000 1.0
C      1  0.4657700000000  0.4731800000000  0.4973850000000 1.0
C      1  0.5397110000000  0.4985340000000  0.4765020000000 1.0
C      1  0.4706840000000  0.5438840000000  0.4834120000000 1.0
C      1  0.4534230000000  0.4976100000000  0.4902260000000 1.0
C      1  0.4877240000000  0.4747990000000  0.5451530000000 1.0
C      1  0.4848420000000  0.4624080000000  0.4779010000000 1.0
C      1  0.4727180000000  0.4696330000000  0.5245820000000 1.0
C      1  0.5097370000000  0.4872600000000  0.5529460000000 1.0
C      1  0.4543530000000  0.5231840000000  0.4857360000000 1.0
C      1  0.5380390000000  0.5207620000000  0.4955430000000 1.0
C      1  0.5395200000000  0.5136160000000  0.5228790000000 1.0
C      1  0.5302570000000  0.4778070000000  0.4649340000000 1.0
C      1  0.4962160000000  0.5507470000000  0.4846690000000 1.0
C      1  0.5071920000000  0.4626210000000  0.4655220000000 1.0
END
