TITL C-105660-705-3 2.57107645581462 125000 -239.027481762353 0 0 36 (C1) n - 1
REM
REM in /rds/project/t2_vol4/rds-t2-cs072/BORA/CARBON/from-Arr/AIRSS/Generating-Clusters/GAP-ML-2020/Only-C1/SD-CG/HFTN-CG
REM
REM
REM
REM
REM
REM ./C.cell (11c1c37f851c82e70ff6c80c92926a4b)
REM AIRSS Version 0.9.1 bugfix July 2018 build 013d7b7c2542+ Fri, 06 Jul 2018 19:26:36 +0100
REM compiler GCC version 9.3.0
REM options -cpp -mtune=generic -march=x86-64 -g -O0
REM seed -371694086 -290030715 2046470945 -33920313 1496715355 -445195256 -1990286815 445595962 1348686272 -79339290 -743095697 1708525662 -1867571612 -1203946608 -31524058 -648902305 1616638509 173391576 -1746128388 -1296811246 -1548175931 -304705398 -1516514399 1620605655 1754736762 -1468979882 671223587 1129687107 -1366150626 -1730343326 -951882223 -21282281 720091708
REM
CELL 1.54180   50.00000   50.00000   50.00000   90.00000   90.00000   90.00000
LATT -1
SFAC C  
C      1  0.5133520000000  0.5348010000000  0.5393810000000 1.0
C      1  0.4918260000000  0.5136440000000  0.5332760000000 1.0
C      1  0.4461960000000  0.5107580000000  0.4619750000000 1.0
C      1  0.4975640000000  0.5468890000000  0.4752570000000 1.0
C      1  0.5356350000000  0.4498300000000  0.4871610000000 1.0
C      1  0.4630510000000  0.4882850000000  0.4641640000000 1.0
C      1  0.4589300000000  0.4873170000000  0.5132790000000 1.0
C      1  0.5181260000000  0.5565410000000  0.4944630000000 1.0
C      1  0.5110410000000  0.5088020000000  0.5059410000000 1.0
C      1  0.5017910000000  0.5247670000000  0.4593100000000 1.0
C      1  0.4565010000000  0.4705710000000  0.4897720000000 1.0
C      1  0.4505310000000  0.5274720000000  0.4830480000000 1.0
C      1  0.4830850000000  0.4188470000000  0.5227210000000 1.0
C      1  0.4509440000000  0.5145640000000  0.5097000000000 1.0
C      1  0.5027090000000  0.4870670000000  0.4898140000000 1.0
C      1  0.4992100000000  0.4657350000000  0.5349880000000 1.0
C      1  0.5463760000000  0.5199330000000  0.4774950000000 1.0
C      1  0.5362510000000  0.4973550000000  0.5189580000000 1.0
C      1  0.5194030000000  0.4875550000000  0.4547120000000 1.0
C      1  0.5051310000000  0.5554060000000  0.5201920000000 1.0
C      1  0.4914420000000  0.4963370000000  0.4643400000000 1.0
C      1  0.4686370000000  0.5297200000000  0.5258420000000 1.0
C      1  0.4543350000000  0.4440320000000  0.4927480000000 1.0
C      1  0.5283740000000  0.5154000000000  0.4561400000000 1.0
C      1  0.5013340000000  0.4388080000000  0.5253500000000 1.0
C      1  0.4620180000000  0.4242200000000  0.5073800000000 1.0
C      1  0.5405040000000  0.5237400000000  0.5344100000000 1.0
C      1  0.5286250000000  0.4479300000000  0.5135120000000 1.0
C      1  0.4770500000000  0.5528200000000  0.5139310000000 1.0
C      1  0.4712460000000  0.5487500000000  0.4862650000000 1.0
C      1  0.5551560000000  0.5401470000000  0.5192020000000 1.0
C      1  0.5333050000000  0.4755000000000  0.4773340000000 1.0
C      1  0.5266990000000  0.4725050000000  0.5286080000000 1.0
C      1  0.5433750000000  0.5427810000000  0.4941530000000 1.0
C      1  0.4804760000000  0.4862670000000  0.5331790000000 1.0
C      1  0.5497720000000  0.4949030000000  0.4919970000000 1.0
END
