TITL C-105723-8489-4 -0.0512158729898145 125000 -385.619290457092 0 0 55 (C1) n - 1
REM
REM in /rds/project/t2_vol4/rds-t2-cs072/BORA/CARBON/from-Arr/AIRSS/Generating-Clusters/GAP-ML-2020/Only-C1/SD-CG/HFTN-CG
REM
REM
REM
REM
REM
REM ./C.cell (11c1c37f851c82e70ff6c80c92926a4b)
REM AIRSS Version 0.9.1 bugfix July 2018 build 013d7b7c2542+ Fri, 06 Jul 2018 19:26:36 +0100
REM compiler GCC version 9.3.0
REM options -cpp -mtune=generic -march=x86-64 -g -O0
REM seed 1827101951 382369691 -1664023290 -741764064 1224202311 -824186699 -622130984 -712467842 884034217 -1728737370 -1404693851 -1995844804 -2047387854 -982046472 423066117 -751900105 -1410703867 -158559003 1512030029 726028977 1445240692 968963296 -12795197 2016635966 619729627 -329829192 1289452355 -420789050 -39333897 400734581 -1229590158 247095833 846544254
REM
CELL 1.54180   50.00000   50.00000   50.00000   90.00000   90.00000   90.00000
LATT -1
SFAC C  
C      1  0.5269080000000  0.4479910000000  0.5029080000000 1.0
C      1  0.5104670000000  0.4654580000000  0.4529170000000 1.0
C      1  0.5108710000000  0.4452280000000  0.5270700000000 1.0
C      1  0.5037940000000  0.5043380000000  0.5649880000000 1.0
C      1  0.5490040000000  0.5290900000000  0.4429450000000 1.0
C      1  0.4943140000000  0.4766930000000  0.5600040000000 1.0
C      1  0.5668600000000  0.4721840000000  0.4838390000000 1.0
C      1  0.4543570000000  0.5386360000000  0.5148470000000 1.0
C      1  0.4457560000000  0.5215950000000  0.4694760000000 1.0
C      1  0.4646730000000  0.4451740000000  0.5049020000000 1.0
C      1  0.5463280000000  0.5481550000000  0.5080710000000 1.0
C      1  0.4667120000000  0.4881310000000  0.4422840000000 1.0
C      1  0.5310940000000  0.5037230000000  0.5606480000000 1.0
C      1  0.4428670000000  0.4950610000000  0.4567200000000 1.0
C      1  0.4820640000000  0.4453690000000  0.5277710000000 1.0
C      1  0.4375450000000  0.5249850000000  0.4959910000000 1.0
C      1  0.4917230000000  0.5295380000000  0.5555050000000 1.0
C      1  0.5508790000000  0.4999740000000  0.4459110000000 1.0
C      1  0.5108160000000  0.4500450000000  0.4789310000000 1.0
C      1  0.4247970000000  0.5022730000000  0.5085040000000 1.0
C      1  0.5292790000000  0.5440100000000  0.5307070000000 1.0
C      1  0.4334430000000  0.4997800000000  0.5351170000000 1.0
C      1  0.4406070000000  0.4585860000000  0.5139720000000 1.0
C      1  0.5169960000000  0.4612420000000  0.5503890000000 1.0
C      1  0.4805200000000  0.5132070000000  0.4415940000000 1.0
C      1  0.4479170000000  0.5242710000000  0.5399210000000 1.0
C      1  0.5434070000000  0.5231580000000  0.5450900000000 1.0
C      1  0.5692080000000  0.4947260000000  0.4690550000000 1.0
C      1  0.5574480000000  0.4802390000000  0.5294210000000 1.0
C      1  0.4445840000000  0.4728360000000  0.5389460000000 1.0
C      1  0.5073720000000  0.5124030000000  0.4365960000000 1.0
C      1  0.5091290000000  0.4943100000000  0.4937940000000 1.0
C      1  0.5241960000000  0.4881120000000  0.4414480000000 1.0
C      1  0.4809320000000  0.5487520000000  0.5088810000000 1.0
C      1  0.5623110000000  0.5093520000000  0.5282570000000 1.0
C      1  0.4267590000000  0.4764100000000  0.4963680000000 1.0
C      1  0.4713580000000  0.4648950000000  0.5478400000000 1.0
C      1  0.4703320000000  0.5326410000000  0.4616860000000 1.0
C      1  0.4308330000000  0.4751190000000  0.4699190000000 1.0
C      1  0.4876050000000  0.5484270000000  0.4797120000000 1.0
C      1  0.4817070000000  0.4648380000000  0.4512140000000 1.0
C      1  0.4990760000000  0.5021700000000  0.5172540000000 1.0
C      1  0.5006180000000  0.5454060000000  0.5320490000000 1.0
C      1  0.4804320000000  0.4541660000000  0.4808910000000 1.0
C      1  0.5615300000000  0.5422600000000  0.4644690000000 1.0
C      1  0.5140790000000  0.5517750000000  0.4674600000000 1.0
C      1  0.5395710000000  0.4774560000000  0.5512090000000 1.0
C      1  0.5747590000000  0.5219250000000  0.4803750000000 1.0
C      1  0.4661900000000  0.5230330000000  0.5588310000000 1.0
C      1  0.5403430000000  0.5549990000000  0.4807990000000 1.0
C      1  0.4722320000000  0.4947970000000  0.5104530000000 1.0
C      1  0.5672290000000  0.5272530000000  0.5071880000000 1.0
C      1  0.5211160000000  0.5366110000000  0.4431770000000 1.0
C      1  0.5530970000000  0.4628690000000  0.5056940000000 1.0
C      1  0.4819560000000  0.4843300000000  0.4859920000000 1.0
END
