TITL C-117339-2224-2 -16.3511332580451 125000 -495.11846441363 0 0 73 (C1) n - 1
REM
REM in /rds/project/t2_vol4/rds-t2-cs072/BORA/CARBON/from-Arr/AIRSS/Generating-Clusters/GAP-ML-2020/Only-C1/SD-CG/HFTN-CG
REM
REM
REM
REM
REM
REM ./C.cell (11c1c37f851c82e70ff6c80c92926a4b)
REM AIRSS Version 0.9.1 bugfix July 2018 build 013d7b7c2542+ Fri, 06 Jul 2018 19:26:36 +0100
REM compiler GCC version 9.3.0
REM options -cpp -mtune=generic -march=x86-64 -g -O0
REM seed 1873182665 -398269395 -227987051 -528597859 1128664049 -1440761509 221017452 -884149018 -1543587129 -949225853 -1287690852 2100465644 -1237626183 -151403227 -1691858099 370132679 -2105253454 -628336677 1168265611 877562653 -1076389564 290789914 -462495381 1382045040 688176965 -835605100 1104572027 -1674964098 1524263791 682629668 1405984312 373849295 -1140668349
REM
CELL 1.54180   50.00000   50.00000   50.00000   90.00000   90.00000   90.00000
LATT -1
SFAC C  
C      1  0.5450440000000  0.4848080000000  0.5428450000000 1.0
C      1  0.5210820000000  0.5160030000000  0.4307420000000 1.0
C      1  0.4901410000000  0.4342640000000  0.5023310000000 1.0
C      1  0.5087800000000  0.5747130000000  0.4924360000000 1.0
C      1  0.5132540000000  0.4731900000000  0.4779970000000 1.0
C      1  0.5307360000000  0.4681520000000  0.5244080000000 1.0
C      1  0.5389220000000  0.4403210000000  0.4560610000000 1.0
C      1  0.5615180000000  0.5103390000000  0.4737820000000 1.0
C      1  0.5192060000000  0.4278380000000  0.5044570000000 1.0
C      1  0.4707560000000  0.5468460000000  0.5010040000000 1.0
C      1  0.5286130000000  0.4865450000000  0.5651910000000 1.0
C      1  0.4365910000000  0.5344270000000  0.5291760000000 1.0
C      1  0.4451550000000  0.4610740000000  0.4552160000000 1.0
C      1  0.5011820000000  0.4822390000000  0.5201480000000 1.0
C      1  0.5363380000000  0.5727400000000  0.5000380000000 1.0
C      1  0.5049680000000  0.4995980000000  0.4687420000000 1.0
C      1  0.4725200000000  0.4819510000000  0.5367270000000 1.0
C      1  0.4904150000000  0.4879630000000  0.5745820000000 1.0
C      1  0.4947340000000  0.5510620000000  0.4809640000000 1.0
C      1  0.4505110000000  0.5146460000000  0.5669930000000 1.0
C      1  0.4732910000000  0.4263130000000  0.4791660000000 1.0
C      1  0.5575460000000  0.4517730000000  0.4871940000000 1.0
C      1  0.5011060000000  0.5787540000000  0.5202090000000 1.0
C      1  0.5113710000000  0.5230490000000  0.4845590000000 1.0
C      1  0.5381300000000  0.4305320000000  0.4844260000000 1.0
C      1  0.5778890000000  0.5470980000000  0.5247890000000 1.0
C      1  0.4307840000000  0.5060470000000  0.5195690000000 1.0
C      1  0.4203620000000  0.4834630000000  0.5331390000000 1.0
C      1  0.5167590000000  0.4567800000000  0.4522100000000 1.0
C      1  0.4605590000000  0.4549480000000  0.5382820000000 1.0
C      1  0.5039950000000  0.4431730000000  0.5490660000000 1.0
C      1  0.5387570000000  0.4928270000000  0.4327080000000 1.0
C      1  0.4811200000000  0.5477060000000  0.5502180000000 1.0
C      1  0.4337220000000  0.4598060000000  0.5282550000000 1.0
C      1  0.5035560000000  0.5099760000000  0.5091950000000 1.0
C      1  0.5076590000000  0.5356410000000  0.5580190000000 1.0
C      1  0.5559020000000  0.5332940000000  0.5357470000000 1.0
C      1  0.4980090000000  0.5513610000000  0.4514350000000 1.0
C      1  0.5102280000000  0.5092550000000  0.5697770000000 1.0
C      1  0.4397480000000  0.4598050000000  0.4995050000000 1.0
C      1  0.5597550000000  0.4598580000000  0.4597790000000 1.0
C      1  0.4598870000000  0.4377570000000  0.4606730000000 1.0
C      1  0.5861150000000  0.5248360000000  0.4822350000000 1.0
C      1  0.4262360000000  0.4693390000000  0.4768610000000 1.0
C      1  0.5407250000000  0.4736890000000  0.4976760000000 1.0
C      1  0.4542720000000  0.5363580000000  0.5513450000000 1.0
C      1  0.4973780000000  0.4984750000000  0.4383310000000 1.0
C      1  0.4308580000000  0.4984850000000  0.4704320000000 1.0
C      1  0.5777700000000  0.5459910000000  0.4972640000000 1.0
C      1  0.4641430000000  0.4762220000000  0.4946750000000 1.0
C      1  0.5397350000000  0.5336810000000  0.4712900000000 1.0
C      1  0.4641520000000  0.5310530000000  0.4234580000000 1.0
C      1  0.4802330000000  0.5626420000000  0.5261200000000 1.0
C      1  0.4772700000000  0.5190110000000  0.5115790000000 1.0
C      1  0.5156190000000  0.4753340000000  0.4316530000000 1.0
C      1  0.4780620000000  0.5506490000000  0.4323720000000 1.0
C      1  0.5307590000000  0.5467250000000  0.5441280000000 1.0
C      1  0.4660740000000  0.4934870000000  0.5629410000000 1.0
C      1  0.5571140000000  0.5054510000000  0.5275710000000 1.0
C      1  0.5571530000000  0.4973960000000  0.5003330000000 1.0
C      1  0.5242240000000  0.5393250000000  0.4456810000000 1.0
C      1  0.4416850000000  0.5417280000000  0.5007340000000 1.0
C      1  0.4914560000000  0.4658910000000  0.4967360000000 1.0
C      1  0.5521720000000  0.5552880000000  0.4858390000000 1.0
C      1  0.4288820000000  0.5177740000000  0.4903580000000 1.0
C      1  0.5585500000000  0.4877720000000  0.4528970000000 1.0
C      1  0.5274760000000  0.5704710000000  0.5282240000000 1.0
C      1  0.4495230000000  0.4900600000000  0.4491920000000 1.0
C      1  0.5249920000000  0.4406120000000  0.5303830000000 1.0
C      1  0.4688090000000  0.5044120000000  0.4338910000000 1.0
C      1  0.4807840000000  0.4368030000000  0.5328480000000 1.0
C      1  0.4598870000000  0.4971470000000  0.5146060000000 1.0
C      1  0.5072880000000  0.4659580000000  0.5665890000000 1.0
END
