TITL C-117357-3621-7 0.00846546559817893 125000 -613.598804833648 0 0 88 (C1) n - 1
REM
REM in /rds/project/t2_vol4/rds-t2-cs072/BORA/CARBON/from-Arr/AIRSS/Generating-Clusters/GAP-ML-2020/Only-C1/SD-CG/HFTN-CG
REM
REM
REM
REM
REM
REM ./C.cell (11c1c37f851c82e70ff6c80c92926a4b)
REM AIRSS Version 0.9.1 bugfix July 2018 build 013d7b7c2542+ Fri, 06 Jul 2018 19:26:36 +0100
REM compiler GCC version 9.3.0
REM options -cpp -mtune=generic -march=x86-64 -g -O0
REM seed -748209579 848449746 -1026607467 1657343706 513117392 1345898322 -1767980366 -1112238531 777823501 269471455 933408282 -515891509 1475060527 -807120246 -475980571 1756850682 -1536647647 -797796129 -418739358 -597856838 1428195038 602068819 1767684359 -548571168 1034872133 1568245791 1661496418 1336360179 -1395340560 2045752482 -1905839894 1780841589 -1272517606
REM
CELL 1.54180   50.00000   50.00000   50.00000   90.00000   90.00000   90.00000
LATT -1
SFAC C  
C      1  0.5659450000000  0.5566230000000  0.4718740000000 1.0
C      1  0.4707120000000  0.5805590000000  0.5255500000000 1.0
C      1  0.4851520000000  0.4785120000000  0.5125470000000 1.0
C      1  0.4358090000000  0.4933470000000  0.5514750000000 1.0
C      1  0.4904330000000  0.5445340000000  0.5053630000000 1.0
C      1  0.4941230000000  0.4703820000000  0.4857120000000 1.0
C      1  0.4560580000000  0.4975070000000  0.5703470000000 1.0
C      1  0.4994060000000  0.4859720000000  0.5834040000000 1.0
C      1  0.5312560000000  0.4834110000000  0.5243920000000 1.0
C      1  0.5069670000000  0.4314640000000  0.4493200000000 1.0
C      1  0.5176630000000  0.5272110000000  0.4697130000000 1.0
C      1  0.4698460000000  0.5020590000000  0.5099050000000 1.0
C      1  0.5099980000000  0.5608100000000  0.5442320000000 1.0
C      1  0.4268380000000  0.5131510000000  0.5323100000000 1.0
C      1  0.5010870000000  0.5115350000000  0.5416780000000 1.0
C      1  0.5139840000000  0.4517440000000  0.4297330000000 1.0
C      1  0.4522860000000  0.4458990000000  0.5454190000000 1.0
C      1  0.5490780000000  0.5396550000000  0.4400210000000 1.0
C      1  0.5416590000000  0.4538930000000  0.5286720000000 1.0
C      1  0.4667770000000  0.5651500000000  0.5009210000000 1.0
C      1  0.4696440000000  0.5222130000000  0.5712940000000 1.0
C      1  0.4805290000000  0.5657730000000  0.5461180000000 1.0
C      1  0.5689360000000  0.4644500000000  0.5148480000000 1.0
C      1  0.5747910000000  0.4920630000000  0.5228560000000 1.0
C      1  0.5322120000000  0.4919420000000  0.4966500000000 1.0
C      1  0.4995010000000  0.4391880000000  0.5559750000000 1.0
C      1  0.5549220000000  0.5611440000000  0.4967880000000 1.0
C      1  0.5516270000000  0.5018020000000  0.5419480000000 1.0
C      1  0.5251520000000  0.4519090000000  0.5574270000000 1.0
C      1  0.4326700000000  0.4666590000000  0.5397840000000 1.0
C      1  0.5252060000000  0.5230200000000  0.5764980000000 1.0
C      1  0.5406560000000  0.5392610000000  0.5118290000000 1.0
C      1  0.4924430000000  0.5290380000000  0.4806620000000 1.0
C      1  0.4741210000000  0.4755950000000  0.5773340000000 1.0
C      1  0.4355980000000  0.4985210000000  0.4382150000000 1.0
C      1  0.4885990000000  0.4150410000000  0.4893520000000 1.0
C      1  0.5240310000000  0.5235520000000  0.4387880000000 1.0
C      1  0.4176420000000  0.4994890000000  0.5079690000000 1.0
C      1  0.4646800000000  0.5402640000000  0.5478050000000 1.0
C      1  0.5354740000000  0.4320410000000  0.4591230000000 1.0
C      1  0.5467460000000  0.5307530000000  0.5385400000000 1.0
C      1  0.5288430000000  0.4951320000000  0.4321750000000 1.0
C      1  0.5693930000000  0.4803060000000  0.4653890000000 1.0
C      1  0.4494720000000  0.4648260000000  0.4680430000000 1.0
C      1  0.4736170000000  0.4512870000000  0.5641070000000 1.0
C      1  0.4995880000000  0.5657220000000  0.4333950000000 1.0
C      1  0.5228220000000  0.5783230000000  0.4676780000000 1.0
C      1  0.4976910000000  0.5142390000000  0.5769740000000 1.0
C      1  0.5449580000000  0.5654590000000  0.4528380000000 1.0
C      1  0.5081030000000  0.4202320000000  0.5100230000000 1.0
C      1  0.5197360000000  0.4746750000000  0.4793020000000 1.0
C      1  0.4978310000000  0.5394200000000  0.4290410000000 1.0
C      1  0.5156810000000  0.5585870000000  0.5155240000000 1.0
C      1  0.4743810000000  0.4816280000000  0.4661040000000 1.0
C      1  0.4184080000000  0.4736540000000  0.5173030000000 1.0
C      1  0.4432640000000  0.5297220000000  0.4797140000000 1.0
C      1  0.4439170000000  0.5468160000000  0.5034650000000 1.0
C      1  0.4922520000000  0.4237190000000  0.5334360000000 1.0
C      1  0.5038100000000  0.4851990000000  0.5327360000000 1.0
C      1  0.4641500000000  0.4271640000000  0.5267210000000 1.0
C      1  0.5803060000000  0.5086460000000  0.5020850000000 1.0
C      1  0.5416740000000  0.4516250000000  0.4386550000000 1.0
C      1  0.4561740000000  0.5472870000000  0.4575410000000 1.0
C      1  0.5333460000000  0.4335660000000  0.5087700000000 1.0
C      1  0.5245270000000  0.4754610000000  0.5744110000000 1.0
C      1  0.5476580000000  0.4371130000000  0.4842810000000 1.0
C      1  0.4615250000000  0.4231510000000  0.4983170000000 1.0
C      1  0.4298860000000  0.4856380000000  0.4617310000000 1.0
C      1  0.4560330000000  0.4373560000000  0.4727390000000 1.0
C      1  0.5293110000000  0.5440240000000  0.5575870000000 1.0
C      1  0.4700970000000  0.5691070000000  0.4704630000000 1.0
C      1  0.4603330000000  0.5065620000000  0.4301570000000 1.0
C      1  0.4700080000000  0.5330830000000  0.4357280000000 1.0
C      1  0.4398910000000  0.5373650000000  0.5300520000000 1.0
C      1  0.4796260000000  0.4858540000000  0.4367160000000 1.0
C      1  0.4237940000000  0.5067420000000  0.4813950000000 1.0
C      1  0.4700900000000  0.5090000000000  0.4816200000000 1.0
C      1  0.5337520000000  0.5188860000000  0.4909570000000 1.0
C      1  0.5673640000000  0.4586640000000  0.4866150000000 1.0
C      1  0.5710350000000  0.5315170000000  0.4592000000000 1.0
C      1  0.4951260000000  0.5773450000000  0.4576870000000 1.0
C      1  0.4836140000000  0.4259790000000  0.4629110000000 1.0
C      1  0.4815140000000  0.5249570000000  0.5261970000000 1.0
C      1  0.5510560000000  0.4778040000000  0.4428070000000 1.0
C      1  0.5056000000000  0.4784300000000  0.4268620000000 1.0
C      1  0.5403890000000  0.4988570000000  0.5691420000000 1.0
C      1  0.5300960000000  0.5758620000000  0.4952300000000 1.0
C      1  0.5780020000000  0.5068720000000  0.4737850000000 1.0
END
