TITL C-119484-4377-5 -786.604183898446 125000 -850.892310516505 0 0 123 (C1) n - 1
REM
REM in /rds/project/t2_vol4/rds-t2-cs072/BORA/CARBON/from-Arr/AIRSS/Generating-Clusters/GAP-ML-2020/Only-C1/SD-CG/HFTN-CG
REM
REM
REM
REM
REM
REM ./C.cell (11c1c37f851c82e70ff6c80c92926a4b)
REM AIRSS Version 0.9.1 bugfix July 2018 build 013d7b7c2542+ Fri, 06 Jul 2018 19:26:36 +0100
REM compiler GCC version 9.3.0
REM options -cpp -mtune=generic -march=x86-64 -g -O0
REM seed -674178919 283157253 -1949945599 707521420 489548841 377187089 1896099522 -1070717508 -1457769807 -1184042267 1439338264 -932202053 -496700927 -1119226090 257821555 -1592710389 -1745822663 -1999688830 -1372391324 1450949281 3166510 1156300637 -371372239 1515425868 -497711280 -1660570971 -1631328785 529886310 -956327292 1958187030 103807907 1831410897 -2098229506
REM
CELL 1.54180   50.00000   50.00000   50.00000   90.00000   90.00000   90.00000
LATT -1
SFAC C  
C      1  0.5551830000000  0.5616380000000  0.4705040000000 1.0
C      1  0.5298780000000  0.5735640000000  0.4665720000000 1.0
C      1  0.4731170000000  0.5329510000000  0.4730450000000 1.0
C      1  0.5382350000000  0.4310450000000  0.5004410000000 1.0
C      1  0.4707430000000  0.4690400000000  0.4132680000000 1.0
C      1  0.5000810000000  0.4688630000000  0.4541190000000 1.0
C      1  0.4698980000000  0.4239760000000  0.5613560000000 1.0
C      1  0.5526850000000  0.4842590000000  0.5090310000000 1.0
C      1  0.5572090000000  0.5409820000000  0.4925380000000 1.0
C      1  0.4850140000000  0.5741720000000  0.4431630000000 1.0
C      1  0.5242060000000  0.5387150000000  0.5766150000000 1.0
C      1  0.5173080000000  0.4991750000000  0.5357840000000 1.0
C      1  0.4609720000000  0.4687090000000  0.5812630000000 1.0
C      1  0.5945480000000  0.4992740000000  0.5153220000000 1.0
C      1  0.4507790000000  0.4639560000000  0.4326190000000 1.0
C      1  0.4897150000000  0.4724830000000  0.5890980000000 1.0
C      1  0.4405060000000  0.5350820000000  0.5662330000000 1.0
C      1  0.5509390000000  0.4962860000000  0.5750810000000 1.0
C      1  0.4417090000000  0.5141620000000  0.4425170000000 1.0
C      1  0.4092410000000  0.4899230000000  0.5162220000000 1.0
C      1  0.5153090000000  0.5880760000000  0.5383430000000 1.0
C      1  0.5126280000000  0.5330320000000  0.4251450000000 1.0
C      1  0.5774830000000  0.4922930000000  0.4918600000000 1.0
C      1  0.5158760000000  0.5147110000000  0.4804610000000 1.0
C      1  0.5463450000000  0.4466730000000  0.4740600000000 1.0
C      1  0.4839250000000  0.4475350000000  0.4934390000000 1.0
C      1  0.4730210000000  0.5042210000000  0.5440690000000 1.0
C      1  0.4411760000000  0.4678980000000  0.5260100000000 1.0
C      1  0.4235770000000  0.5180400000000  0.4685200000000 1.0
C      1  0.5847670000000  0.5065880000000  0.4336940000000 1.0
C      1  0.4730430000000  0.4157720000000  0.5331570000000 1.0
C      1  0.5785290000000  0.5256980000000  0.4536840000000 1.0
C      1  0.5353830000000  0.5201950000000  0.4107500000000 1.0
C      1  0.4440810000000  0.4915330000000  0.5803500000000 1.0
C      1  0.4956870000000  0.4250520000000  0.5729870000000 1.0
C      1  0.4907590000000  0.4944210000000  0.4440820000000 1.0
C      1  0.4315400000000  0.4298040000000  0.5192950000000 1.0
C      1  0.5068420000000  0.4490530000000  0.5840750000000 1.0
C      1  0.5352660000000  0.4730800000000  0.4859720000000 1.0
C      1  0.4967900000000  0.4557720000000  0.4113940000000 1.0
C      1  0.4921450000000  0.4338730000000  0.5199290000000 1.0
C      1  0.5746120000000  0.4810280000000  0.4418030000000 1.0
C      1  0.4220510000000  0.5335070000000  0.4928910000000 1.0
C      1  0.5126240000000  0.4198830000000  0.5011170000000 1.0
C      1  0.4893970000000  0.5886590000000  0.4921160000000 1.0
C      1  0.5646550000000  0.5157010000000  0.4765040000000 1.0
C      1  0.5137060000000  0.4726930000000  0.5355970000000 1.0
C      1  0.4126640000000  0.4735140000000  0.4924610000000 1.0
C      1  0.4592590000000  0.5338310000000  0.4255330000000 1.0
C      1  0.4230500000000  0.4946030000000  0.5607080000000 1.0
C      1  0.4360530000000  0.5593110000000  0.4899660000000 1.0
C      1  0.4822490000000  0.5225050000000  0.5902300000000 1.0
C      1  0.5747220000000  0.5403840000000  0.5176090000000 1.0
C      1  0.4525500000000  0.4107680000000  0.5134680000000 1.0
C      1  0.5272600000000  0.5107380000000  0.5846310000000 1.0
C      1  0.5605070000000  0.5340930000000  0.4070440000000 1.0
C      1  0.4653830000000  0.4077910000000  0.4890930000000 1.0
C      1  0.5493330000000  0.4718140000000  0.4306690000000 1.0
C      1  0.5002250000000  0.5371670000000  0.4652410000000 1.0
C      1  0.5835680000000  0.5174810000000  0.4085560000000 1.0
C      1  0.5348480000000  0.4512910000000  0.4449270000000 1.0
C      1  0.5366880000000  0.4288960000000  0.5508030000000 1.0
C      1  0.4837990000000  0.5245470000000  0.4136040000000 1.0
C      1  0.4696440000000  0.4979190000000  0.5025670000000 1.0
C      1  0.4902000000000  0.4618010000000  0.5296960000000 1.0
C      1  0.5385680000000  0.4993580000000  0.4706270000000 1.0
C      1  0.4466240000000  0.5753740000000  0.5120540000000 1.0
C      1  0.4733970000000  0.5861660000000  0.5163990000000 1.0
C      1  0.4231910000000  0.5200780000000  0.5482550000000 1.0
C      1  0.4877000000000  0.5833130000000  0.5417770000000 1.0
C      1  0.5698190000000  0.5525510000000  0.4478370000000 1.0
C      1  0.4328810000000  0.4529470000000  0.5002370000000 1.0
C      1  0.5346460000000  0.4899310000000  0.4121220000000 1.0
C      1  0.5591080000000  0.5300780000000  0.5414700000000 1.0
C      1  0.5611880000000  0.4660630000000  0.5352610000000 1.0
C      1  0.4965970000000  0.4941860000000  0.4910780000000 1.0
C      1  0.5338260000000  0.4487430000000  0.5726080000000 1.0
C      1  0.4549620000000  0.4864470000000  0.4793200000000 1.0
C      1  0.5507450000000  0.4692990000000  0.5652440000000 1.0
C      1  0.4760200000000  0.5815080000000  0.4691950000000 1.0
C      1  0.4961810000000  0.5176850000000  0.5383010000000 1.0
C      1  0.5379930000000  0.5729120000000  0.5419650000000 1.0
C      1  0.5311680000000  0.5856400000000  0.5157280000000 1.0
C      1  0.5270770000000  0.5298620000000  0.5034010000000 1.0
C      1  0.4544320000000  0.5178730000000  0.5846560000000 1.0
C      1  0.4158250000000  0.5179230000000  0.5187620000000 1.0
C      1  0.4610010000000  0.5580920000000  0.4384480000000 1.0
C      1  0.5822420000000  0.4733600000000  0.4680190000000 1.0
C      1  0.4802500000000  0.5655220000000  0.5639110000000 1.0
C      1  0.5150500000000  0.4134470000000  0.5552980000000 1.0
C      1  0.5702650000000  0.5074140000000  0.5570250000000 1.0
C      1  0.5396720000000  0.5098220000000  0.5215410000000 1.0
C      1  0.4562170000000  0.5589760000000  0.4684110000000 1.0
C      1  0.5981240000000  0.5263740000000  0.5175110000000 1.0
C      1  0.5660150000000  0.5581110000000  0.4213190000000 1.0
C      1  0.4516340000000  0.4448220000000  0.5668540000000 1.0
C      1  0.4236200000000  0.4883960000000  0.4702030000000 1.0
C      1  0.4528400000000  0.5591760000000  0.5595500000000 1.0
C      1  0.5043190000000  0.4683680000000  0.4831160000000 1.0
C      1  0.4601120000000  0.4459140000000  0.4528440000000 1.0
C      1  0.4414590000000  0.5689510000000  0.5372310000000 1.0
C      1  0.5744450000000  0.4478300000000  0.4706500000000 1.0
C      1  0.5101360000000  0.4800590000000  0.4039630000000 1.0
C      1  0.4658190000000  0.5056500000000  0.4584340000000 1.0
C      1  0.4979220000000  0.5355560000000  0.5162980000000 1.0
C      1  0.5181950000000  0.5844820000000  0.4905090000000 1.0
C      1  0.5426580000000  0.5490540000000  0.5564750000000 1.0
C      1  0.4959320000000  0.5464950000000  0.5799370000000 1.0
C      1  0.4168320000000  0.4756490000000  0.5409250000000 1.0
C      1  0.5004020000000  0.4998310000000  0.5916240000000 1.0
C      1  0.4894450000000  0.4202350000000  0.4792080000000 1.0
C      1  0.4571040000000  0.4558350000000  0.4810390000000 1.0
C      1  0.5498510000000  0.4385550000000  0.5268770000000 1.0
C      1  0.4680870000000  0.4819830000000  0.5275640000000 1.0
C      1  0.5119960000000  0.5138640000000  0.4499390000000 1.0
C      1  0.4321970000000  0.4462440000000  0.5447210000000 1.0
C      1  0.4855850000000  0.4323180000000  0.4522720000000 1.0
C      1  0.4743170000000  0.5270550000000  0.5019690000000 1.0
C      1  0.5828160000000  0.4873580000000  0.5392010000000 1.0
C      1  0.5100120000000  0.5600670000000  0.4467710000000 1.0
C      1  0.4862300000000  0.4950310000000  0.4129750000000 1.0
C      1  0.5068040000000  0.4450430000000  0.4364310000000 1.0
C      1  0.4332630000000  0.4856230000000  0.4417420000000 1.0
END
