TITL C-112704-765-3 28.1795809504842 125000 -1075.51880778485 0 0 150 (C1) n - 1
REM
REM in /rds/project/t2_vol4/rds-t2-cs072/BORA/CARBON/from-Arr/AIRSS/Generating-Clusters/GAP-ML-2020/Only-C1/SD-CG/HFTN-CG
REM
REM
REM
REM
REM
REM ./C.cell (11c1c37f851c82e70ff6c80c92926a4b)
REM AIRSS Version 0.9.1 bugfix July 2018 build 013d7b7c2542+ Fri, 06 Jul 2018 19:26:36 +0100
REM compiler GCC version 9.3.0
REM options -cpp -mtune=generic -march=x86-64 -g -O0
REM seed -860212609 1742808483 -1129526714 454652884 679056972 576173432 1962980079 1567696207 -1414819664 -2111409811 1168542200 -527646308 -339291774 885829676 1815284965 -62392916 839936525 90656887 1646336129 -1194176002 466646642 16024482 843428402 -1779519493 1954456846 -1025547074 -67895592 -2102154394 1431676721 -1955778154 1023949421 -177331619 -1603255982
REM
CELL 1.54180   50.00000   50.00000   50.00000   90.00000   90.00000   90.00000
LATT -1
SFAC C  
C      1  0.4562050000000  0.4556640000000  0.4317760000000 1.0
C      1  0.4357670000000  0.5188730000000  0.5561090000000 1.0
C      1  0.5380150000000  0.4784210000000  0.4829330000000 1.0
C      1  0.4666430000000  0.5955830000000  0.5280230000000 1.0
C      1  0.4772490000000  0.4805360000000  0.6065790000000 1.0
C      1  0.4958540000000  0.4727040000000  0.4088340000000 1.0
C      1  0.5655740000000  0.5867970000000  0.4988310000000 1.0
C      1  0.5097710000000  0.4577300000000  0.5157150000000 1.0
C      1  0.5374260000000  0.4565320000000  0.4249100000000 1.0
C      1  0.3950910000000  0.5087690000000  0.4928170000000 1.0
C      1  0.4414010000000  0.4364380000000  0.4453660000000 1.0
C      1  0.4325060000000  0.4176380000000  0.5468310000000 1.0
C      1  0.5074930000000  0.5167820000000  0.4445030000000 1.0
C      1  0.4826970000000  0.5454810000000  0.5035070000000 1.0
C      1  0.5562900000000  0.5382000000000  0.5642820000000 1.0
C      1  0.5318630000000  0.4753650000000  0.5119730000000 1.0
C      1  0.4098390000000  0.5087300000000  0.4487080000000 1.0
C      1  0.5028890000000  0.4873350000000  0.6124190000000 1.0
C      1  0.4554470000000  0.4154330000000  0.4584720000000 1.0
C      1  0.4821690000000  0.5025150000000  0.5172150000000 1.0
C      1  0.5213100000000  0.4424350000000  0.4447200000000 1.0
C      1  0.4258520000000  0.5298860000000  0.4371510000000 1.0
C      1  0.4288550000000  0.4722270000000  0.5674700000000 1.0
C      1  0.5590980000000  0.4191900000000  0.5170340000000 1.0
C      1  0.4681220000000  0.5984990000000  0.4997860000000 1.0
C      1  0.5708810000000  0.4695470000000  0.5501740000000 1.0
C      1  0.5987410000000  0.5418510000000  0.5111340000000 1.0
C      1  0.5116560000000  0.5549150000000  0.5664080000000 1.0
C      1  0.4215250000000  0.5041460000000  0.5314240000000 1.0
C      1  0.4754550000000  0.5583970000000  0.4460400000000 1.0
C      1  0.4948010000000  0.5215070000000  0.4151120000000 1.0
C      1  0.4265040000000  0.5514990000000  0.4560670000000 1.0
C      1  0.5761110000000  0.4815030000000  0.4365420000000 1.0
C      1  0.4979060000000  0.4949390000000  0.4642040000000 1.0
C      1  0.5153090000000  0.4450730000000  0.5771110000000 1.0
C      1  0.5897220000000  0.5832580000000  0.4863580000000 1.0
C      1  0.4652110000000  0.5580840000000  0.5673220000000 1.0
C      1  0.4043120000000  0.5243930000000  0.5147090000000 1.0
C      1  0.5261790000000  0.4070740000000  0.4781720000000 1.0
C      1  0.5774770000000  0.4386710000000  0.5071590000000 1.0
C      1  0.5602910000000  0.5027060000000  0.4247450000000 1.0
C      1  0.5975110000000  0.4689760000000  0.4791500000000 1.0
C      1  0.4966010000000  0.4564800000000  0.4900430000000 1.0
C      1  0.4605220000000  0.5368800000000  0.4881060000000 1.0
C      1  0.4381360000000  0.4973900000000  0.5765630000000 1.0
C      1  0.5942280000000  0.5124820000000  0.4743150000000 1.0
C      1  0.4699580000000  0.4642080000000  0.4870330000000 1.0
C      1  0.5226850000000  0.5623910000000  0.4417650000000 1.0
C      1  0.5657080000000  0.4368510000000  0.4576480000000 1.0
C      1  0.4890390000000  0.4043950000000  0.5234230000000 1.0
C      1  0.4533370000000  0.4684870000000  0.5095540000000 1.0
C      1  0.5170130000000  0.5929310000000  0.5316210000000 1.0
C      1  0.4137480000000  0.4757310000000  0.5433850000000 1.0
C      1  0.4594070000000  0.5082440000000  0.4916630000000 1.0
C      1  0.4717750000000  0.4770860000000  0.5285360000000 1.0
C      1  0.5396940000000  0.5616380000000  0.5667540000000 1.0
C      1  0.5862140000000  0.5570110000000  0.5304430000000 1.0
C      1  0.5931330000000  0.4883110000000  0.4589330000000 1.0
C      1  0.5171080000000  0.3999140000000  0.5250900000000 1.0
C      1  0.5065780000000  0.5407580000000  0.4864810000000 1.0
C      1  0.4063710000000  0.5479390000000  0.4752060000000 1.0
C      1  0.5371180000000  0.5822290000000  0.4873990000000 1.0
C      1  0.5274630000000  0.4096760000000  0.5497580000000 1.0
C      1  0.5354590000000  0.5488940000000  0.4198590000000 1.0
C      1  0.5208260000000  0.5105210000000  0.5434270000000 1.0
C      1  0.4777830000000  0.4013760000000  0.4970810000000 1.0
C      1  0.5462570000000  0.4789010000000  0.5881320000000 1.0
C      1  0.5818810000000  0.5379610000000  0.4690040000000 1.0
C      1  0.5813940000000  0.5448220000000  0.4406900000000 1.0
C      1  0.4816460000000  0.4511390000000  0.4213530000000 1.0
C      1  0.5495070000000  0.5267830000000  0.5377560000000 1.0
C      1  0.4266080000000  0.4196300000000  0.4971930000000 1.0
C      1  0.5994350000000  0.4812160000000  0.5052270000000 1.0
C      1  0.4198080000000  0.4268570000000  0.5250630000000 1.0
C      1  0.5125350000000  0.4984540000000  0.5162490000000 1.0
C      1  0.5671580000000  0.5777890000000  0.5267340000000 1.0
C      1  0.4687960000000  0.4892600000000  0.4695930000000 1.0
C      1  0.5767470000000  0.5257620000000  0.4209970000000 1.0
C      1  0.5373280000000  0.5010900000000  0.4062390000000 1.0
C      1  0.5092400000000  0.5379130000000  0.5414290000000 1.0
C      1  0.4811020000000  0.4965510000000  0.4079140000000 1.0
C      1  0.4078160000000  0.4537700000000  0.5259240000000 1.0
C      1  0.4832770000000  0.4129620000000  0.4525200000000 1.0
C      1  0.4736920000000  0.4635930000000  0.5841410000000 1.0
C      1  0.4497680000000  0.4523440000000  0.5733700000000 1.0
C      1  0.4907000000000  0.4571290000000  0.5385600000000 1.0
C      1  0.4111780000000  0.5511660000000  0.5035070000000 1.0
C      1  0.4524860000000  0.5584070000000  0.4671220000000 1.0
C      1  0.4511200000000  0.4086050000000  0.4858920000000 1.0
C      1  0.5592560000000  0.4449530000000  0.5597460000000 1.0
C      1  0.5406120000000  0.5755950000000  0.5404370000000 1.0
C      1  0.4958890000000  0.4313470000000  0.4356760000000 1.0
C      1  0.5171820000000  0.5970990000000  0.5039680000000 1.0
C      1  0.5073330000000  0.4215230000000  0.5641580000000 1.0
C      1  0.4417030000000  0.5822830000000  0.5336720000000 1.0
C      1  0.5419960000000  0.4519740000000  0.5803800000000 1.0
C      1  0.4803860000000  0.5862000000000  0.4476090000000 1.0
C      1  0.5339040000000  0.5509880000000  0.4963840000000 1.0
C      1  0.4890380000000  0.5724360000000  0.5649390000000 1.0
C      1  0.4246320000000  0.5450390000000  0.5614930000000 1.0
C      1  0.4812160000000  0.5130620000000  0.5742620000000 1.0
C      1  0.4482300000000  0.5255370000000  0.4208680000000 1.0
C      1  0.4545920000000  0.4284570000000  0.5580870000000 1.0
C      1  0.5257360000000  0.5852600000000  0.4591240000000 1.0
C      1  0.4975350000000  0.4666060000000  0.5663970000000 1.0
C      1  0.4552880000000  0.4984650000000  0.4189840000000 1.0
C      1  0.5827120000000  0.4645540000000  0.5215170000000 1.0
C      1  0.4476020000000  0.5818300000000  0.4875230000000 1.0
C      1  0.5117430000000  0.5112020000000  0.4880180000000 1.0
C      1  0.4999320000000  0.5972210000000  0.4619930000000 1.0
C      1  0.5638270000000  0.4563430000000  0.4361030000000 1.0
C      1  0.5369960000000  0.5130160000000  0.4483120000000 1.0
C      1  0.5647700000000  0.5117260000000  0.5168920000000 1.0
C      1  0.5220940000000  0.4931830000000  0.5947570000000 1.0
C      1  0.4118480000000  0.4847280000000  0.4880350000000 1.0
C      1  0.4300350000000  0.5729560000000  0.5088070000000 1.0
C      1  0.5675150000000  0.4898990000000  0.5732720000000 1.0
C      1  0.4665970000000  0.5299990000000  0.5561960000000 1.0
C      1  0.4398600000000  0.5674340000000  0.5580930000000 1.0
C      1  0.4721100000000  0.5400610000000  0.4221480000000 1.0
C      1  0.5549650000000  0.5292920000000  0.4892710000000 1.0
C      1  0.5399970000000  0.5073010000000  0.4760650000000 1.0
C      1  0.5689670000000  0.5169290000000  0.5742090000000 1.0
C      1  0.4118510000000  0.4387330000000  0.4818680000000 1.0
C      1  0.3951970000000  0.5227620000000  0.4693180000000 1.0
C      1  0.5137830000000  0.4679130000000  0.4683510000000 1.0
C      1  0.4973230000000  0.4030190000000  0.4752380000000 1.0
C      1  0.5963550000000  0.5567670000000  0.4865880000000 1.0
C      1  0.5526910000000  0.4222930000000  0.5447080000000 1.0
C      1  0.5061820000000  0.4971780000000  0.5685900000000 1.0
C      1  0.5627860000000  0.5495570000000  0.4203290000000 1.0
C      1  0.5329350000000  0.5492410000000  0.5258560000000 1.0
C      1  0.4940350000000  0.6039610000000  0.4892250000000 1.0
C      1  0.5396110000000  0.4244160000000  0.4595540000000 1.0
C      1  0.5832450000000  0.4440590000000  0.4797700000000 1.0
C      1  0.4908930000000  0.5916470000000  0.5437290000000 1.0
C      1  0.5577630000000  0.4825360000000  0.5246730000000 1.0
C      1  0.4191940000000  0.4497750000000  0.4570440000000 1.0
C      1  0.4201320000000  0.4806480000000  0.4569140000000 1.0
C      1  0.4497170000000  0.4824060000000  0.4440240000000 1.0
C      1  0.4029490000000  0.4592910000000  0.4988450000000 1.0
C      1  0.5031290000000  0.5445760000000  0.4558220000000 1.0
C      1  0.5934700000000  0.5108930000000  0.5046100000000 1.0
C      1  0.4629840000000  0.4986270000000  0.5900090000000 1.0
C      1  0.5364520000000  0.4047920000000  0.5048440000000 1.0
C      1  0.4828530000000  0.5312510000000  0.5293440000000 1.0
C      1  0.4829510000000  0.4254490000000  0.5459320000000 1.0
C      1  0.4363450000000  0.4930880000000  0.5053140000000 1.0
C      1  0.5243500000000  0.4760980000000  0.4092210000000 1.0
C      1  0.5223260000000  0.5262940000000  0.4063960000000 1.0
END
