TITL C-111150-5619-7 -0.0172413671431739 125000 -180.952756684069 0 0 28 (C1) n - 1
REM
REM in /rds/project/t2_vol4/rds-t2-cs072/BORA/CARBON/from-Arr/AIRSS/Generating-Clusters/GAP-ML-2020/Only-C1/SD-CG/HFTN-CG
REM
REM
REM
REM
REM
REM ./C.cell (11c1c37f851c82e70ff6c80c92926a4b)
REM AIRSS Version 0.9.1 bugfix July 2018 build 013d7b7c2542+ Fri, 06 Jul 2018 19:26:36 +0100
REM compiler GCC version 9.3.0
REM options -cpp -mtune=generic -march=x86-64 -g -O0
REM seed 1696454578 -2054816841 -1116741930 -1432960714 1106900340 569370931 458201927 1811378127 1421113176 -1430539754 1288469550 -2107517664 706306777 1488773196 -1142531004 -527502553 -571726305 -1607286077 -1546463454 1639270378 -1398691771 -1702645390 1204473976 1749155832 -2107913868 1325063820 -114372373 -612535970 -1424857303 911894112 -206407079 -2057644283 2115668193
REM
CELL 1.54180   50.00000   50.00000   50.00000   90.00000   90.00000   90.00000
LATT -1
SFAC C  
C      1  0.5328160000000  0.5145150000000  0.5245850000000 1.0
C      1  0.5101240000000  0.5455820000000  0.5033040000000 1.0
C      1  0.4524630000000  0.5058680000000  0.4483470000000 1.0
C      1  0.5548570000000  0.5002080000000  0.5125300000000 1.0
C      1  0.4939320000000  0.4663850000000  0.5379150000000 1.0
C      1  0.4949380000000  0.4902930000000  0.5480170000000 1.0
C      1  0.4768180000000  0.5156640000000  0.4436670000000 1.0
C      1  0.5161890000000  0.4544990000000  0.4958460000000 1.0
C      1  0.4693290000000  0.5447100000000  0.5312450000000 1.0
C      1  0.5046520000000  0.5121430000000  0.5320200000000 1.0
C      1  0.4848080000000  0.5077860000000  0.5067870000000 1.0
C      1  0.5027410000000  0.4766200000000  0.4841670000000 1.0
C      1  0.4600230000000  0.5248990000000  0.5145070000000 1.0
C      1  0.4755460000000  0.4490800000000  0.5234710000000 1.0
C      1  0.5159690000000  0.4980070000000  0.4711320000000 1.0
C      1  0.5443920000000  0.4536090000000  0.4931030000000 1.0
C      1  0.4429870000000  0.5200030000000  0.4937550000000 1.0
C      1  0.5030490000000  0.4447390000000  0.5198370000000 1.0
C      1  0.4962790000000  0.5258960000000  0.4873140000000 1.0
C      1  0.5439570000000  0.5001580000000  0.4732010000000 1.0
C      1  0.4957180000000  0.5419990000000  0.5298180000000 1.0
C      1  0.4747230000000  0.4838690000000  0.4916060000000 1.0
C      1  0.4614960000000  0.4636540000000  0.5059610000000 1.0
C      1  0.4977430000000  0.5179880000000  0.4605360000000 1.0
C      1  0.5535240000000  0.5220670000000  0.4903000000000 1.0
C      1  0.4534130000000  0.5024040000000  0.4760560000000 1.0
C      1  0.5509290000000  0.4790360000000  0.4939670000000 1.0
C      1  0.5365860000000  0.5383190000000  0.5070070000000 1.0
END
