TITL C-112711-663-4 -0.000399572971669208 125000 -138.834579460438 0 0 22 (C1) n - 1
REM
REM in /rds/project/t2_vol4/rds-t2-cs072/BORA/CARBON/from-Arr/AIRSS/Generating-Clusters/GAP-ML-2020/Only-C1/SD-CG/HFTN-CG
REM
REM
REM
REM
REM
REM ./C.cell (11c1c37f851c82e70ff6c80c92926a4b)
REM AIRSS Version 0.9.1 bugfix July 2018 build 013d7b7c2542+ Fri, 06 Jul 2018 19:26:36 +0100
REM compiler GCC version 9.3.0
REM options -cpp -mtune=generic -march=x86-64 -g -O0
REM seed -628436414 -708238666 -1948137609 -1495484773 1393904628 1486334313 -229570646 1762402386 -414479208 1820198829 1504470254 -288990213 -1843932165 -1546112839 -906531779 1860840251 921470197 -201011651 -1285456054 1803594846 -1021476266 -2050544889 -1206119400 1637470709 -2131787574 -131850642 719427043 588440032 1790308142 -1440032550 1040843892 1794479835 624175556
REM
CELL 1.54180   50.00000   50.00000   50.00000   90.00000   90.00000   90.00000
LATT -1
SFAC C  
C      1  0.4895570000000  0.5086160000000  0.4555500000000 1.0
C      1  0.5535140000000  0.5112820000000  0.4512530000000 1.0
C      1  0.4643580000000  0.4434690000000  0.4952510000000 1.0
C      1  0.4574590000000  0.4908950000000  0.4974990000000 1.0
C      1  0.5392520000000  0.5608930000000  0.5234390000000 1.0
C      1  0.5294040000000  0.5214340000000  0.5562580000000 1.0
C      1  0.5401350000000  0.5103750000000  0.4743160000000 1.0
C      1  0.5060130000000  0.5105860000000  0.5492450000000 1.0
C      1  0.5400520000000  0.4892290000000  0.4934870000000 1.0
C      1  0.5303260000000  0.4798180000000  0.5142180000000 1.0
C      1  0.4708130000000  0.4449000000000  0.4705040000000 1.0
C      1  0.5080820000000  0.4835150000000  0.5331280000000 1.0
C      1  0.5181990000000  0.5319270000000  0.4857310000000 1.0
C      1  0.4703440000000  0.5225830000000  0.5258250000000 1.0
C      1  0.4837300000000  0.4849130000000  0.4502070000000 1.0
C      1  0.4777940000000  0.5213200000000  0.5501490000000 1.0
C      1  0.4774660000000  0.4595930000000  0.4500420000000 1.0
C      1  0.4850800000000  0.4698260000000  0.5312970000000 1.0
C      1  0.4922000000000  0.5225940000000  0.4795790000000 1.0
C      1  0.5286110000000  0.5500410000000  0.5030490000000 1.0
C      1  0.4713260000000  0.5149270000000  0.4992640000000 1.0
C      1  0.4662850000000  0.4672660000000  0.5107090000000 1.0
END
