TITL C-117339-2224-1 -0.0200586249676332 125000 -271.102526029677 0 0 41 (C1) n - 1
REM
REM in /rds/project/t2_vol4/rds-t2-cs072/BORA/CARBON/from-Arr/AIRSS/Generating-Clusters/GAP-ML-2020/Only-C1/SD-CG/HFTN-CG
REM
REM
REM
REM
REM
REM ./C.cell (11c1c37f851c82e70ff6c80c92926a4b)
REM AIRSS Version 0.9.1 bugfix July 2018 build 013d7b7c2542+ Fri, 06 Jul 2018 19:26:36 +0100
REM compiler GCC version 9.3.0
REM options -cpp -mtune=generic -march=x86-64 -g -O0
REM seed 1379512878 -786002117 1760667437 -351464896 1633247449 455134018 132755533 -643837713 -911579463 1449363099 176755904 785289475 519408781 -316028232 2049842532 -1143497160 299041001 -1753007969 -798469842 -1921810686 1015210202 -862402785 902427958 -1682178465 59735460 -198882449 1168995210 1284812944 1168636076 1062136594 -1428815271 1009975664 528847117
REM
CELL 1.54180   50.00000   50.00000   50.00000   90.00000   90.00000   90.00000
LATT -1
SFAC C  
C      1  0.5448090000000  0.5205160000000  0.4696620000000 1.0
C      1  0.5391510000000  0.4748590000000  0.4916530000000 1.0
C      1  0.5198820000000  0.5477560000000  0.5291320000000 1.0
C      1  0.4843050000000  0.4377150000000  0.4939210000000 1.0
C      1  0.5525340000000  0.5000080000000  0.4884090000000 1.0
C      1  0.5108080000000  0.4733830000000  0.4840240000000 1.0
C      1  0.4750020000000  0.5715270000000  0.5170480000000 1.0
C      1  0.5003350000000  0.4493700000000  0.4726450000000 1.0
C      1  0.4832550000000  0.4517480000000  0.4496020000000 1.0
C      1  0.5019640000000  0.4462610000000  0.5427500000000 1.0
C      1  0.5019760000000  0.4989020000000  0.4715770000000 1.0
C      1  0.5169500000000  0.5165170000000  0.5649850000000 1.0
C      1  0.5410970000000  0.4646640000000  0.5181670000000 1.0
C      1  0.5514350000000  0.5107600000000  0.5160530000000 1.0
C      1  0.5066200000000  0.5464510000000  0.4856360000000 1.0
C      1  0.5135230000000  0.4967430000000  0.5437020000000 1.0
C      1  0.4472610000000  0.5059510000000  0.5340950000000 1.0
C      1  0.4945620000000  0.4730510000000  0.5391390000000 1.0
C      1  0.4921680000000  0.5400070000000  0.4612920000000 1.0
C      1  0.4987380000000  0.5587180000000  0.5110690000000 1.0
C      1  0.5101180000000  0.5190630000000  0.4497790000000 1.0
C      1  0.5347200000000  0.5407560000000  0.4867930000000 1.0
C      1  0.4989840000000  0.4328450000000  0.5167470000000 1.0
C      1  0.5045320000000  0.5169290000000  0.4947760000000 1.0
C      1  0.5394720000000  0.4900700000000  0.5320990000000 1.0
C      1  0.5206480000000  0.5405750000000  0.5565810000000 1.0
C      1  0.4911200000000  0.4807580000000  0.5098050000000 1.0
C      1  0.4564690000000  0.4513430000000  0.4585330000000 1.0
C      1  0.4658250000000  0.5456490000000  0.5144230000000 1.0
C      1  0.4952700000000  0.5090310000000  0.5201200000000 1.0
C      1  0.4731530000000  0.4963450000000  0.4675200000000 1.0
C      1  0.4602110000000  0.4534540000000  0.4873390000000 1.0
C      1  0.4550100000000  0.5295830000000  0.4929480000000 1.0
C      1  0.5359520000000  0.5192550000000  0.4432920000000 1.0
C      1  0.4681280000000  0.4768350000000  0.4461070000000 1.0
C      1  0.4471700000000  0.5020140000000  0.5072230000000 1.0
C      1  0.5230590000000  0.4446600000000  0.5236690000000 1.0
C      1  0.5405980000000  0.5365220000000  0.5139360000000 1.0
C      1  0.4676440000000  0.5261970000000  0.4684290000000 1.0
C      1  0.4647040000000  0.4815040000000  0.4941960000000 1.0
C      1  0.4708410000000  0.5217070000000  0.5311250000000 1.0
END
