TITL C-112723-615-1 0.20322709282054 125000 -598.145555105014 0 0 86 (C1) n - 1
REM
REM in /rds/project/t2_vol4/rds-t2-cs072/BORA/CARBON/from-Arr/AIRSS/Generating-Clusters/GAP-ML-2020/Only-C1/SD-CG/HFTN-CG
REM
REM
REM
REM
REM
REM ./C.cell (11c1c37f851c82e70ff6c80c92926a4b)
REM AIRSS Version 0.9.1 bugfix July 2018 build 013d7b7c2542+ Fri, 06 Jul 2018 19:26:36 +0100
REM compiler GCC version 9.3.0
REM options -cpp -mtune=generic -march=x86-64 -g -O0
REM seed 1463914074 1268821230 -1597443004 -857521713 1298022388 -163265945 962000120 -1558037172 1481517201 1097407601 -1568005374 -1809170644 -563786493 1509451532 1600067318 76771601 1629283280 -501552333 1971267947 606984000 1147152315 -12612074 632701216 -1100077701 1922388549 -404202411 -2035041838 -1035243248 987846454 -248306886 1569065423 -1942473252 -820652772
REM
CELL 1.54180   50.00000   50.00000   50.00000   90.00000   90.00000   90.00000
LATT -1
SFAC C  
C      1  0.5867540000000  0.4843390000000  0.4992470000000 1.0
C      1  0.4122400000000  0.5005290000000  0.5008580000000 1.0
C      1  0.5356640000000  0.5230110000000  0.4293280000000 1.0
C      1  0.5813020000000  0.5420190000000  0.4968840000000 1.0
C      1  0.5038390000000  0.4319120000000  0.4815840000000 1.0
C      1  0.4421390000000  0.4822730000000  0.5478260000000 1.0
C      1  0.5603620000000  0.4494050000000  0.5405960000000 1.0
C      1  0.5053800000000  0.5519100000000  0.4496180000000 1.0
C      1  0.4445670000000  0.4695070000000  0.5196670000000 1.0
C      1  0.5604960000000  0.4711570000000  0.5001750000000 1.0
C      1  0.4963430000000  0.4519760000000  0.5735450000000 1.0
C      1  0.5785930000000  0.5278460000000  0.5232610000000 1.0
C      1  0.5662220000000  0.4969800000000  0.4595490000000 1.0
C      1  0.4935230000000  0.5055950000000  0.4700050000000 1.0
C      1  0.4633850000000  0.5308930000000  0.4406930000000 1.0
C      1  0.4493660000000  0.5350810000000  0.5483540000000 1.0
C      1  0.4986770000000  0.5260680000000  0.5756750000000 1.0
C      1  0.5386790000000  0.4677310000000  0.5486950000000 1.0
C      1  0.4397830000000  0.4846530000000  0.4458130000000 1.0
C      1  0.4683160000000  0.4253590000000  0.4484800000000 1.0
C      1  0.4524410000000  0.5500650000000  0.4598370000000 1.0
C      1  0.4201260000000  0.5393850000000  0.5124080000000 1.0
C      1  0.4267900000000  0.4772520000000  0.4962400000000 1.0
C      1  0.5320300000000  0.5497100000000  0.4416950000000 1.0
C      1  0.4342280000000  0.5099240000000  0.5461520000000 1.0
C      1  0.5229040000000  0.5383830000000  0.5690380000000 1.0
C      1  0.5990350000000  0.5225910000000  0.4864920000000 1.0
C      1  0.5417810000000  0.4270850000000  0.4998360000000 1.0
C      1  0.5144750000000  0.4250310000000  0.5087900000000 1.0
C      1  0.5599050000000  0.5542820000000  0.4834780000000 1.0
C      1  0.5052000000000  0.4980590000000  0.5782190000000 1.0
C      1  0.5015680000000  0.5917500000000  0.5109340000000 1.0
C      1  0.5140210000000  0.5771330000000  0.4910770000000 1.0
C      1  0.4700600000000  0.4445170000000  0.5628260000000 1.0
C      1  0.4665610000000  0.5586890000000  0.5081520000000 1.0
C      1  0.5567170000000  0.5467210000000  0.4562840000000 1.0
C      1  0.4568990000000  0.4696210000000  0.4273100000000 1.0
C      1  0.5606980000000  0.4434980000000  0.5134910000000 1.0
C      1  0.4703590000000  0.4832790000000  0.5049530000000 1.0
C      1  0.4430760000000  0.5505090000000  0.5241480000000 1.0
C      1  0.4952790000000  0.5687030000000  0.4699440000000 1.0
C      1  0.4298290000000  0.5315750000000  0.4634190000000 1.0
C      1  0.4602600000000  0.4415530000000  0.4310830000000 1.0
C      1  0.4861520000000  0.4775600000000  0.5809110000000 1.0
C      1  0.4741210000000  0.4334550000000  0.5376550000000 1.0
C      1  0.4685980000000  0.4640120000000  0.4811610000000 1.0
C      1  0.4548980000000  0.4411480000000  0.5180900000000 1.0
C      1  0.5405220000000  0.4808520000000  0.5203220000000 1.0
C      1  0.5902880000000  0.4992370000000  0.4739210000000 1.0
C      1  0.5187490000000  0.5575840000000  0.5489710000000 1.0
C      1  0.5431990000000  0.5195490000000  0.5613440000000 1.0
C      1  0.4795000000000  0.4800240000000  0.4180110000000 1.0
C      1  0.4770640000000  0.4205600000000  0.4742030000000 1.0
C      1  0.5328440000000  0.5462330000000  0.5240190000000 1.0
C      1  0.4839980000000  0.5307770000000  0.5071020000000 1.0
C      1  0.4908940000000  0.5631520000000  0.5479550000000 1.0
C      1  0.4678680000000  0.5644270000000  0.4781290000000 1.0
C      1  0.5115500000000  0.5096130000000  0.4275740000000 1.0
C      1  0.5597280000000  0.5198870000000  0.4450480000000 1.0
C      1  0.5122490000000  0.4607190000000  0.4438080000000 1.0
C      1  0.5378370000000  0.5624040000000  0.4991880000000 1.0
C      1  0.4589860000000  0.4704690000000  0.5674620000000 1.0
C      1  0.4148220000000  0.5141950000000  0.5260930000000 1.0
C      1  0.5125230000000  0.5246680000000  0.5146600000000 1.0
C      1  0.4922420000000  0.4881910000000  0.5233720000000 1.0
C      1  0.5148330000000  0.4868860000000  0.4799060000000 1.0
C      1  0.5177640000000  0.4947550000000  0.5089620000000 1.0
C      1  0.5032220000000  0.4314960000000  0.5337490000000 1.0
C      1  0.4739720000000  0.5095490000000  0.4906730000000 1.0
C      1  0.5374680000000  0.4539820000000  0.4559330000000 1.0
C      1  0.5326100000000  0.4318610000000  0.4727950000000 1.0
C      1  0.4620570000000  0.4375320000000  0.4917320000000 1.0
C      1  0.5057860000000  0.4811050000000  0.4246340000000 1.0
C      1  0.4154240000000  0.5267710000000  0.4864550000000 1.0
C      1  0.4925460000000  0.5249290000000  0.4453150000000 1.0
C      1  0.5952330000000  0.5065470000000  0.5142160000000 1.0
C      1  0.4828400000000  0.5769210000000  0.5244240000000 1.0
C      1  0.4778970000000  0.5381520000000  0.5567240000000 1.0
C      1  0.4980710000000  0.4611500000000  0.4709060000000 1.0
C      1  0.4410120000000  0.4725770000000  0.4717300000000 1.0
C      1  0.4897890000000  0.5168670000000  0.5327000000000 1.0
C      1  0.5162320000000  0.4471290000000  0.5542170000000 1.0
C      1  0.5324270000000  0.4930690000000  0.5666580000000 1.0
C      1  0.5555130000000  0.5313860000000  0.5378170000000 1.0
C      1  0.5463560000000  0.4781310000000  0.4716590000000 1.0
C      1  0.4404450000000  0.5129320000000  0.4441370000000 1.0
END
