TITL C-117367-2251-3 -0.296256295845317 125000 -686.370090884332 0 0 101 (C1) n - 1
REM
REM in /rds/project/t2_vol4/rds-t2-cs072/BORA/CARBON/from-Arr/AIRSS/Generating-Clusters/GAP-ML-2020/Only-C1/SD-CG/HFTN-CG
REM
REM
REM
REM
REM
REM ./C.cell (11c1c37f851c82e70ff6c80c92926a4b)
REM AIRSS Version 0.9.1 bugfix July 2018 build 013d7b7c2542+ Fri, 06 Jul 2018 19:26:36 +0100
REM compiler GCC version 9.3.0
REM options -cpp -mtune=generic -march=x86-64 -g -O0
REM seed -1892863464 -2086931443 1808418534 49604593 -2019961386 973191239 -906828768 1610934975 -987795790 690153164 -2030694337 -2026232005 -522104151 1137613118 -1311323446 -889382592 -699437275 194483508 1716728194 -1211666269 -1923403064 -1203526046 363366781 -1222030708 -853104474 -1982491870 -1490420380 -1903358767 384439526 -2012528991 -1817395723 -1622619925 1634079151
REM
CELL 1.54180   50.00000   50.00000   50.00000   90.00000   90.00000   90.00000
LATT -1
SFAC C  
C      1  0.4378980000000  0.4989570000000  0.5483870000000 1.0
C      1  0.5162680000000  0.4863910000000  0.5569810000000 1.0
C      1  0.4712420000000  0.4789260000000  0.5855630000000 1.0
C      1  0.5327850000000  0.4695600000000  0.4742620000000 1.0
C      1  0.4459620000000  0.4494340000000  0.5412750000000 1.0
C      1  0.5451020000000  0.5446330000000  0.5431750000000 1.0
C      1  0.5070350000000  0.4968860000000  0.4440110000000 1.0
C      1  0.5559670000000  0.4393750000000  0.4992690000000 1.0
C      1  0.5308420000000  0.4196150000000  0.5348050000000 1.0
C      1  0.5045090000000  0.5236890000000  0.4772310000000 1.0
C      1  0.4370730000000  0.5283340000000  0.5492600000000 1.0
C      1  0.5543690000000  0.4628930000000  0.5388550000000 1.0
C      1  0.4627760000000  0.4191290000000  0.5019520000000 1.0
C      1  0.4982890000000  0.4506140000000  0.4448200000000 1.0
C      1  0.5122970000000  0.4616910000000  0.5137400000000 1.0
C      1  0.5520420000000  0.4358690000000  0.5276790000000 1.0
C      1  0.5469200000000  0.4920030000000  0.4228300000000 1.0
C      1  0.5658300000000  0.4823040000000  0.4409620000000 1.0
C      1  0.5848640000000  0.5074350000000  0.5067370000000 1.0
C      1  0.4600960000000  0.4275150000000  0.4744510000000 1.0
C      1  0.5796280000000  0.4985610000000  0.4598550000000 1.0
C      1  0.5382040000000  0.5066480000000  0.5672030000000 1.0
C      1  0.4134530000000  0.4675730000000  0.5128710000000 1.0
C      1  0.4951550000000  0.5177720000000  0.4113060000000 1.0
C      1  0.5277570000000  0.4451280000000  0.4927950000000 1.0
C      1  0.4737850000000  0.5943310000000  0.4964830000000 1.0
C      1  0.5063930000000  0.4742680000000  0.4637380000000 1.0
C      1  0.4603780000000  0.5020600000000  0.4579600000000 1.0
C      1  0.4933530000000  0.5541980000000  0.4354830000000 1.0
C      1  0.4902490000000  0.5675160000000  0.4618130000000 1.0
C      1  0.4421120000000  0.4314470000000  0.5172030000000 1.0
C      1  0.5338500000000  0.5193010000000  0.4708560000000 1.0
C      1  0.5528770000000  0.5646150000000  0.5220660000000 1.0
C      1  0.4608100000000  0.5673630000000  0.5363540000000 1.0
C      1  0.4480320000000  0.5255970000000  0.4414710000000 1.0
C      1  0.4640440000000  0.5308170000000  0.4974490000000 1.0
C      1  0.5589040000000  0.5185990000000  0.5511190000000 1.0
C      1  0.4983980000000  0.5153360000000  0.5868910000000 1.0
C      1  0.5427140000000  0.4959340000000  0.4873020000000 1.0
C      1  0.4547290000000  0.5007690000000  0.4879150000000 1.0
C      1  0.4848650000000  0.4973520000000  0.6015480000000 1.0
C      1  0.5628940000000  0.5451540000000  0.4492940000000 1.0
C      1  0.5697200000000  0.4568520000000  0.4812580000000 1.0
C      1  0.5786620000000  0.5039410000000  0.5352980000000 1.0
C      1  0.4095420000000  0.5103720000000  0.4727280000000 1.0
C      1  0.5015070000000  0.5051390000000  0.5004020000000 1.0
C      1  0.4151010000000  0.4868850000000  0.4635420000000 1.0
C      1  0.4201810000000  0.5362010000000  0.4793030000000 1.0
C      1  0.5241640000000  0.5270990000000  0.5809980000000 1.0
C      1  0.4380570000000  0.5434680000000  0.5014590000000 1.0
C      1  0.4663870000000  0.4894140000000  0.5557340000000 1.0
C      1  0.4778120000000  0.5858890000000  0.5224370000000 1.0
C      1  0.4952310000000  0.4505280000000  0.5355290000000 1.0
C      1  0.4382530000000  0.5503570000000  0.5285220000000 1.0
C      1  0.5037990000000  0.5663000000000  0.5580150000000 1.0
C      1  0.5131420000000  0.5546980000000  0.5071690000000 1.0
C      1  0.4796000000000  0.4681220000000  0.4281760000000 1.0
C      1  0.5032380000000  0.4593100000000  0.5620540000000 1.0
C      1  0.5645910000000  0.5532120000000  0.4986010000000 1.0
C      1  0.4351310000000  0.4427440000000  0.4720190000000 1.0
C      1  0.4793170000000  0.4533360000000  0.5783680000000 1.0
C      1  0.4784760000000  0.5905270000000  0.4714180000000 1.0
C      1  0.5334050000000  0.5120940000000  0.4408670000000 1.0
C      1  0.4670730000000  0.4773110000000  0.5022850000000 1.0
C      1  0.5769090000000  0.4771560000000  0.5427720000000 1.0
C      1  0.4779270000000  0.5523230000000  0.5547710000000 1.0
C      1  0.5051280000000  0.4251270000000  0.4852520000000 1.0
C      1  0.5217370000000  0.5325520000000  0.5253480000000 1.0
C      1  0.4949680000000  0.5279100000000  0.5394860000000 1.0
C      1  0.5054210000000  0.5803370000000  0.5331010000000 1.0
C      1  0.5492410000000  0.5469850000000  0.4746210000000 1.0
C      1  0.4691140000000  0.4671260000000  0.5325730000000 1.0
C      1  0.4248570000000  0.4752820000000  0.5364600000000 1.0
C      1  0.5265420000000  0.4525730000000  0.4333620000000 1.0
C      1  0.5281670000000  0.5775640000000  0.5165480000000 1.0
C      1  0.4282400000000  0.5398680000000  0.4527990000000 1.0
C      1  0.5033890000000  0.4215670000000  0.5324150000000 1.0
C      1  0.5427620000000  0.5379700000000  0.4295510000000 1.0
C      1  0.4873480000000  0.4302410000000  0.4634830000000 1.0
C      1  0.4757490000000  0.5312090000000  0.4302120000000 1.0
C      1  0.4929340000000  0.5492650000000  0.4862790000000 1.0
C      1  0.4809390000000  0.5177500000000  0.5172140000000 1.0
C      1  0.4988980000000  0.4873280000000  0.4165150000000 1.0
C      1  0.4874320000000  0.5143540000000  0.4542270000000 1.0
C      1  0.4565590000000  0.4773890000000  0.4420700000000 1.0
C      1  0.5741970000000  0.4873230000000  0.4861960000000 1.0
C      1  0.5287680000000  0.5041630000000  0.5128710000000 1.0
C      1  0.4575640000000  0.5352350000000  0.5664710000000 1.0
C      1  0.5532860000000  0.4601040000000  0.4543710000000 1.0
C      1  0.4326380000000  0.4659570000000  0.4551990000000 1.0
C      1  0.4905080000000  0.4146790000000  0.5071630000000 1.0
C      1  0.4243320000000  0.4449660000000  0.4995960000000 1.0
C      1  0.5160290000000  0.5404620000000  0.4227650000000 1.0
C      1  0.4944030000000  0.4774940000000  0.4933080000000 1.0
C      1  0.4926480000000  0.5053160000000  0.5578110000000 1.0
C      1  0.5831990000000  0.5318720000000  0.4921700000000 1.0
C      1  0.4579290000000  0.4402540000000  0.5663240000000 1.0
C      1  0.5292780000000  0.4797360000000  0.5310490000000 1.0
C      1  0.5808770000000  0.5265930000000  0.4627270000000 1.0
C      1  0.5259330000000  0.4734040000000  0.4153140000000 1.0
C      1  0.5270120000000  0.5511710000000  0.5662050000000 1.0
END
