TITL C-112726-704-2 -90.3750880720573 125000 -1001.24816890356 0 0 144 (C1) n - 1
REM
REM in /rds/project/t2_vol4/rds-t2-cs072/BORA/CARBON/from-Arr/AIRSS/Generating-Clusters/GAP-ML-2020/Only-C1/SD-CG/HFTN-CG
REM
REM
REM
REM
REM
REM ./C.cell (11c1c37f851c82e70ff6c80c92926a4b)
REM AIRSS Version 0.9.1 bugfix July 2018 build 013d7b7c2542+ Fri, 06 Jul 2018 19:26:36 +0100
REM compiler GCC version 9.3.0
REM options -cpp -mtune=generic -march=x86-64 -g -O0
REM seed -1743628330 -1233551156 313519064 -454049490 1958725720 -1188864691 -639861417 1474025817 975421030 2138376727 680822367 1292229890 1863016355 1761483969 2071853566 -14712877 1524765045 -1866052476 -1989162356 691828744 -593716156 294763790 -1102221772 -1560500636 364880735 1469850523 -1525503590 -971520426 1815358185 1812306476 -1107155356 150754424 -183076489
REM
CELL 1.54180   50.00000   50.00000   50.00000   90.00000   90.00000   90.00000
LATT -1
SFAC C  
C      1  0.5101530000000  0.4442390000000  0.4595590000000 1.0
C      1  0.4598860000000  0.4403600000000  0.4422030000000 1.0
C      1  0.5158950000000  0.4506870000000  0.4286250000000 1.0
C      1  0.4478900000000  0.4545630000000  0.5061900000000 1.0
C      1  0.5383910000000  0.4793690000000  0.4732030000000 1.0
C      1  0.5672020000000  0.5564290000000  0.5344620000000 1.0
C      1  0.4782660000000  0.5233610000000  0.5816780000000 1.0
C      1  0.5151520000000  0.3990160000000  0.5066590000000 1.0
C      1  0.4402220000000  0.4904610000000  0.5740860000000 1.0
C      1  0.5796450000000  0.4897400000000  0.5641950000000 1.0
C      1  0.4507000000000  0.5184990000000  0.5751900000000 1.0
C      1  0.4572510000000  0.4630690000000  0.5737170000000 1.0
C      1  0.4831410000000  0.6089900000000  0.4883210000000 1.0
C      1  0.5063180000000  0.5496200000000  0.5022100000000 1.0
C      1  0.4502660000000  0.5444170000000  0.5070640000000 1.0
C      1  0.4135960000000  0.4894420000000  0.4454640000000 1.0
C      1  0.5312400000000  0.4511630000000  0.4795540000000 1.0
C      1  0.5855760000000  0.5211840000000  0.4722880000000 1.0
C      1  0.4456960000000  0.4179590000000  0.4719100000000 1.0
C      1  0.4318950000000  0.5485940000000  0.5334540000000 1.0
C      1  0.5797600000000  0.4798920000000  0.4412310000000 1.0
C      1  0.4951310000000  0.4391550000000  0.4117010000000 1.0
C      1  0.5059000000000  0.6049760000000  0.4713150000000 1.0
C      1  0.5855690000000  0.4516930000000  0.4847800000000 1.0
C      1  0.5019810000000  0.4570690000000  0.5508840000000 1.0
C      1  0.4621810000000  0.5240660000000  0.4914570000000 1.0
C      1  0.3967570000000  0.5000620000000  0.4658720000000 1.0
C      1  0.4568290000000  0.4258750000000  0.4986660000000 1.0
C      1  0.5306310000000  0.5714160000000  0.5585580000000 1.0
C      1  0.4716300000000  0.4925000000000  0.5359840000000 1.0
C      1  0.4845440000000  0.4323440000000  0.4908640000000 1.0
C      1  0.5028580000000  0.4886120000000  0.6000360000000 1.0
C      1  0.5208560000000  0.4991300000000  0.4092070000000 1.0
C      1  0.4205840000000  0.5727170000000  0.4764770000000 1.0
C      1  0.5475410000000  0.5267720000000  0.4819980000000 1.0
C      1  0.4774390000000  0.5573040000000  0.4258630000000 1.0
C      1  0.5381300000000  0.5015200000000  0.4938140000000 1.0
C      1  0.5035380000000  0.4277650000000  0.5127800000000 1.0
C      1  0.4824050000000  0.5137520000000  0.4464160000000 1.0
C      1  0.5224290000000  0.4515680000000  0.5808390000000 1.0
C      1  0.4323110000000  0.4367270000000  0.4552880000000 1.0
C      1  0.4989850000000  0.5736100000000  0.4338090000000 1.0
C      1  0.5910630000000  0.4761610000000  0.4975210000000 1.0
C      1  0.4917000000000  0.5250780000000  0.5054590000000 1.0
C      1  0.4801860000000  0.4766200000000  0.5589140000000 1.0
C      1  0.4478610000000  0.4977510000000  0.4938040000000 1.0
C      1  0.5681250000000  0.4313550000000  0.4961650000000 1.0
C      1  0.5603140000000  0.4365150000000  0.4486560000000 1.0
C      1  0.4943260000000  0.4779120000000  0.4994620000000 1.0
C      1  0.5920480000000  0.4959180000000  0.5398120000000 1.0
C      1  0.4609260000000  0.5257070000000  0.4616470000000 1.0
C      1  0.5072500000000  0.4798440000000  0.4276250000000 1.0
C      1  0.4435670000000  0.5758640000000  0.4599630000000 1.0
C      1  0.4523530000000  0.4648270000000  0.4031460000000 1.0
C      1  0.4870800000000  0.5693120000000  0.5440600000000 1.0
C      1  0.5812110000000  0.4546440000000  0.4566250000000 1.0
C      1  0.5524810000000  0.4299810000000  0.5220340000000 1.0
C      1  0.5265100000000  0.4459780000000  0.5096920000000 1.0
C      1  0.4661240000000  0.4802500000000  0.5111920000000 1.0
C      1  0.5562330000000  0.5897140000000  0.4691090000000 1.0
C      1  0.5494310000000  0.4966600000000  0.5193930000000 1.0
C      1  0.5204310000000  0.4117350000000  0.5511980000000 1.0
C      1  0.5420670000000  0.5868940000000  0.4451470000000 1.0
C      1  0.5358690000000  0.4043280000000  0.5279390000000 1.0
C      1  0.4578570000000  0.5718610000000  0.5021020000000 1.0
C      1  0.4892430000000  0.5150650000000  0.5326170000000 1.0
C      1  0.5284350000000  0.4912360000000  0.5367050000000 1.0
C      1  0.5786250000000  0.5096400000000  0.4463730000000 1.0
C      1  0.4213470000000  0.4973950000000  0.5537650000000 1.0
C      1  0.5482310000000  0.4915110000000  0.5981980000000 1.0
C      1  0.4995820000000  0.5430330000000  0.5850210000000 1.0
C      1  0.4949660000000  0.5783440000000  0.4632000000000 1.0
C      1  0.4957060000000  0.4284670000000  0.5430660000000 1.0
C      1  0.5116730000000  0.5093990000000  0.5495120000000 1.0
C      1  0.5484390000000  0.4246120000000  0.4741800000000 1.0
C      1  0.5821460000000  0.5395700000000  0.5168780000000 1.0
C      1  0.4641320000000  0.4055640000000  0.5200320000000 1.0
C      1  0.4681360000000  0.4656440000000  0.4582910000000 1.0
C      1  0.5123140000000  0.5575510000000  0.4762820000000 1.0
C      1  0.4048010000000  0.5497240000000  0.4869090000000 1.0
C      1  0.5650480000000  0.5079500000000  0.5826450000000 1.0
C      1  0.4876480000000  0.3913930000000  0.5139060000000 1.0
C      1  0.5563260000000  0.5770290000000  0.5181920000000 1.0
C      1  0.4513440000000  0.5566250000000  0.4391830000000 1.0
C      1  0.5068600000000  0.5042990000000  0.4913630000000 1.0
C      1  0.4043010000000  0.5219480000000  0.4826420000000 1.0
C      1  0.4931720000000  0.4983970000000  0.5749650000000 1.0
C      1  0.4400370000000  0.5300830000000  0.4424620000000 1.0
C      1  0.5327030000000  0.6059140000000  0.4635540000000 1.0
C      1  0.4382890000000  0.5796470000000  0.5342760000000 1.0
C      1  0.5245830000000  0.5048340000000  0.6054230000000 1.0
C      1  0.4306520000000  0.5267350000000  0.5544420000000 1.0
C      1  0.5231340000000  0.4054650000000  0.4786760000000 1.0
C      1  0.4261240000000  0.5816770000000  0.5064480000000 1.0
C      1  0.4666480000000  0.5853490000000  0.5306430000000 1.0
C      1  0.4705360000000  0.4158430000000  0.4558430000000 1.0
C      1  0.4477260000000  0.4424790000000  0.5523940000000 1.0
C      1  0.4876530000000  0.5310840000000  0.4219840000000 1.0
C      1  0.5461050000000  0.4495630000000  0.4274290000000 1.0
C      1  0.5359220000000  0.4286510000000  0.5669240000000 1.0
C      1  0.5265920000000  0.5359700000000  0.4625960000000 1.0
C      1  0.4735100000000  0.4533590000000  0.5962330000000 1.0
C      1  0.4320300000000  0.4549590000000  0.5323800000000 1.0
C      1  0.4898740000000  0.4586780000000  0.4765900000000 1.0
C      1  0.5097490000000  0.6057080000000  0.5267400000000 1.0
C      1  0.5472220000000  0.4658190000000  0.5867560000000 1.0
C      1  0.4195060000000  0.5052620000000  0.5011140000000 1.0
C      1  0.3984200000000  0.4748760000000  0.4823320000000 1.0
C      1  0.5754780000000  0.4816920000000  0.5211060000000 1.0
C      1  0.4031840000000  0.4826700000000  0.5088110000000 1.0
C      1  0.4663710000000  0.4225060000000  0.5434530000000 1.0
C      1  0.4136710000000  0.4763450000000  0.5346430000000 1.0
C      1  0.5530380000000  0.5544230000000  0.5602470000000 1.0
C      1  0.5140900000000  0.5256770000000  0.4137950000000 1.0
C      1  0.4671080000000  0.5849940000000  0.4765410000000 1.0
C      1  0.5076360000000  0.5126170000000  0.4628080000000 1.0
C      1  0.5000260000000  0.4596580000000  0.5996210000000 1.0
C      1  0.5715660000000  0.5433970000000  0.4892080000000 1.0
C      1  0.5139380000000  0.4684210000000  0.5248610000000 1.0
C      1  0.5590110000000  0.5199850000000  0.4271750000000 1.0
C      1  0.4841190000000  0.6076350000000  0.5168460000000 1.0
C      1  0.4777270000000  0.4859550000000  0.4366030000000 1.0
C      1  0.5249090000000  0.5309690000000  0.5937080000000 1.0
C      1  0.5670120000000  0.4627080000000  0.5667280000000 1.0
C      1  0.4098510000000  0.5586540000000  0.5143260000000 1.0
C      1  0.5583840000000  0.4389360000000  0.5516990000000 1.0
C      1  0.5492710000000  0.4976000000000  0.4117660000000 1.0
C      1  0.4448760000000  0.4709310000000  0.4768500000000 1.0
C      1  0.5222160000000  0.4903660000000  0.4522770000000 1.0
C      1  0.5512420000000  0.5340660000000  0.5805330000000 1.0
C      1  0.4526340000000  0.4870750000000  0.4182710000000 1.0
C      1  0.5642050000000  0.5729000000000  0.4904580000000 1.0
C      1  0.5975350000000  0.5038670000000  0.4927180000000 1.0
C      1  0.5075110000000  0.5672290000000  0.5234410000000 1.0
C      1  0.5970720000000  0.5160160000000  0.5195630000000 1.0
C      1  0.5606330000000  0.4735010000000  0.4209740000000 1.0
C      1  0.5030300000000  0.5650210000000  0.5675670000000 1.0
C      1  0.4194510000000  0.4636870000000  0.4625510000000 1.0
C      1  0.4685780000000  0.4438290000000  0.4130020000000 1.0
C      1  0.4978760000000  0.4176050000000  0.4676290000000 1.0
C      1  0.5302450000000  0.5852840000000  0.5317060000000 1.0
C      1  0.5280030000000  0.5686320000000  0.4294930000000 1.0
C      1  0.5350240000000  0.5395300000000  0.4305890000000 1.0
C      1  0.4326070000000  0.5046730000000  0.4307340000000 1.0
END
