TITL C-119470-4330-8 0.000494514507146226 125000 -359.211899433115 0 0 54 (C1) n - 1
REM
REM in /rds/project/t2_vol4/rds-t2-cs072/BORA/CARBON/from-Arr/AIRSS/Generating-Clusters/GAP-ML-2020/Only-C1/SD-CG/HFTN-CG
REM
REM
REM
REM
REM
REM ./C.cell (11c1c37f851c82e70ff6c80c92926a4b)
REM AIRSS Version 0.9.1 bugfix July 2018 build 013d7b7c2542+ Fri, 06 Jul 2018 19:26:36 +0100
REM compiler GCC version 9.3.0
REM options -cpp -mtune=generic -march=x86-64 -g -O0
REM seed 227402651 706018474 -668052644 -1622958347 293696981 1718643117 1894197023 -167979525 1603941114 2012708429 2080383834 256632369 -2070500185 2117954246 856622727 -229363350 -804817009 -1637498612 841532882 1587443725 565922013 -823461759 -899591328 -21439401 -1318830012 -2093759313 1786274502 1316550230 1453365192 1988423573 -8688535 -1384451188 -1219894642
REM
CELL 1.54180   50.00000   50.00000   50.00000   90.00000   90.00000   90.00000
LATT -1
SFAC C  
C      1  0.5322000000000  0.5488400000000  0.4709940000000 1.0
C      1  0.4906330000000  0.5148150000000  0.4773640000000 1.0
C      1  0.4576450000000  0.5347310000000  0.5487860000000 1.0
C      1  0.5433710000000  0.4812360000000  0.4515080000000 1.0
C      1  0.5028400000000  0.5282740000000  0.5452620000000 1.0
C      1  0.4860980000000  0.4948860000000  0.4563180000000 1.0
C      1  0.4704320000000  0.4576000000000  0.4899110000000 1.0
C      1  0.4871390000000  0.4490460000000  0.4428650000000 1.0
C      1  0.5467170000000  0.4705960000000  0.5372220000000 1.0
C      1  0.4780000000000  0.4957090000000  0.5255500000000 1.0
C      1  0.5095030000000  0.4346930000000  0.4935770000000 1.0
C      1  0.4626780000000  0.5240370000000  0.4767100000000 1.0
C      1  0.4633340000000  0.5527670000000  0.4778330000000 1.0
C      1  0.5057040000000  0.5297500000000  0.4328330000000 1.0
C      1  0.4730670000000  0.4682710000000  0.4612350000000 1.0
C      1  0.4844630000000  0.4470440000000  0.5374860000000 1.0
C      1  0.5578400000000  0.4474560000000  0.4974980000000 1.0
C      1  0.4868970000000  0.4415900000000  0.5057280000000 1.0
C      1  0.5177190000000  0.5927320000000  0.4832870000000 1.0
C      1  0.5546940000000  0.5003130000000  0.4688380000000 1.0
C      1  0.5636100000000  0.4953850000000  0.4960810000000 1.0
C      1  0.4693060000000  0.5551560000000  0.5303550000000 1.0
C      1  0.4466660000000  0.4735940000000  0.4961140000000 1.0
C      1  0.5610850000000  0.4715990000000  0.5110850000000 1.0
C      1  0.5019720000000  0.4292560000000  0.5543140000000 1.0
C      1  0.5492710000000  0.4492630000000  0.5557100000000 1.0
C      1  0.5251330000000  0.5568460000000  0.5180300000000 1.0
C      1  0.5228170000000  0.4830860000000  0.4298700000000 1.0
C      1  0.4472690000000  0.5211680000000  0.5006440000000 1.0
C      1  0.5302390000000  0.5694420000000  0.4926590000000 1.0
C      1  0.4432510000000  0.4743370000000  0.4688490000000 1.0
C      1  0.4974310000000  0.5062370000000  0.5051670000000 1.0
C      1  0.5351020000000  0.4540470000000  0.4572410000000 1.0
C      1  0.4340210000000  0.5222520000000  0.5515940000000 1.0
C      1  0.5128800000000  0.4554010000000  0.4381180000000 1.0
C      1  0.4951720000000  0.4754130000000  0.5393420000000 1.0
C      1  0.4849810000000  0.5643090000000  0.4644760000000 1.0
C      1  0.5512080000000  0.5291080000000  0.4748890000000 1.0
C      1  0.5199950000000  0.5121500000000  0.5267870000000 1.0
C      1  0.5401570000000  0.5322180000000  0.5206070000000 1.0
C      1  0.4397620000000  0.4712030000000  0.5539670000000 1.0
C      1  0.4486830000000  0.4960630000000  0.5153430000000 1.0
C      1  0.4994380000000  0.5535630000000  0.5334080000000 1.0
C      1  0.5335190000000  0.4418980000000  0.4833040000000 1.0
C      1  0.4788500000000  0.5151660000000  0.5480660000000 1.0
C      1  0.5025830000000  0.5024120000000  0.4325420000000 1.0
C      1  0.5052850000000  0.5410520000000  0.4591450000000 1.0
C      1  0.4334600000000  0.4960180000000  0.5418600000000 1.0
C      1  0.5263850000000  0.4366490000000  0.5570620000000 1.0
C      1  0.4964090000000  0.5890070000000  0.4697710000000 1.0
C      1  0.5218360000000  0.4846310000000  0.5376320000000 1.0
C      1  0.4541960000000  0.5494850000000  0.5057450000000 1.0
C      1  0.5599150000000  0.5239320000000  0.5023940000000 1.0
C      1  0.4571390000000  0.4542710000000  0.5470220000000 1.0
END
