TITL C-111154-5549-7 2.37566565148918e-05 125000 -47.4999993015529 0 0 8 (C1) n - 1
REM
REM in /rds/project/t2_vol4/rds-t2-cs072/BORA/CARBON/from-Arr/AIRSS/Generating-Clusters/GAP-ML-2020/Only-C1/SD-CG/HFTN-CG
REM
REM
REM
REM
REM
REM ./C.cell (11c1c37f851c82e70ff6c80c92926a4b)
REM AIRSS Version 0.9.1 bugfix July 2018 build 013d7b7c2542+ Fri, 06 Jul 2018 19:26:36 +0100
REM compiler GCC version 9.3.0
REM options -cpp -mtune=generic -march=x86-64 -g -O0
REM seed -902754918 1313054468 -1980103109 -1604549346 1100494868 240770579 404002883 1598149736 2071359487 675421750 1710260731 -1024678053 -2003946764 1213844015 872425874 1679331747 -1906506865 658640672 -1908362201 26272521 -348434214 1280355918 578061410 701200481 -175258263 -1299818860 -1013440473 -1690986107 -1252376083 902406440 1886511617 -4121184 229763828
REM
CELL 1.54180   50.00000   50.00000   50.00000   90.00000   90.00000   90.00000
LATT -1
SFAC C  
C      1  0.5011730000000  0.4878840000000  0.4693720000000 1.0
C      1  0.5341430000000  0.4906170000000  0.5456220000000 1.0
C      1  0.4844720000000  0.5245540000000  0.4832060000000 1.0
C      1  0.4995940000000  0.5137790000000  0.4648720000000 1.0
C      1  0.4916520000000  0.5047730000000  0.5210430000000 1.0
C      1  0.4996350000000  0.4640180000000  0.4786320000000 1.0
C      1  0.5146770000000  0.4967190000000  0.5303130000000 1.0
C      1  0.4746540000000  0.5176580000000  0.5069400000000 1.0
END
