TITL C-111166-6113-7 971.742234023449 125000 -743.608249801308 0 0 107 (C1) n - 1
REM
REM in /rds/project/t2_vol4/rds-t2-cs072/BORA/CARBON/from-Arr/AIRSS/Generating-Clusters/GAP-ML-2020/Only-C1/SD-CG/HFTN-CG
REM
REM
REM
REM
REM
REM ./C.cell (11c1c37f851c82e70ff6c80c92926a4b)
REM AIRSS Version 0.9.1 bugfix July 2018 build 013d7b7c2542+ Fri, 06 Jul 2018 19:26:36 +0100
REM compiler GCC version 9.3.0
REM options -cpp -mtune=generic -march=x86-64 -g -O0
REM seed -117351838 986593783 413814979 -1359419650 33958357 1525424668 -1971343349 1856783874 -2147011678 -530414045 1592116140 -1290803350 1449861702 1324164562 -1801475432 1063798932 26440708 1016499184 -1727184168 -1734039862 -635678660 -967822606 -1801469982 -2112200650 -160497033 -472429481 569698379 -1776216224 -592548919 -2016395404 -1830190761 -1190929866 1753176671
REM
CELL 1.54180   50.00000   50.00000   50.00000   90.00000   90.00000   90.00000
LATT -1
SFAC C  
C      1  0.4984540000000  0.5684020000000  0.5557070000000 1.0
C      1  0.5172870000000  0.5884100000000  0.5140110000000 1.0
C      1  0.4601890000000  0.5015650000000  0.5404350000000 1.0
C      1  0.5213490000000  0.5280880000000  0.5055780000000 1.0
C      1  0.5739470000000  0.4737690000000  0.4561980000000 1.0
C      1  0.4788950000000  0.4726130000000  0.5103130000000 1.0
C      1  0.5522860000000  0.4958150000000  0.4210250000000 1.0
C      1  0.4449720000000  0.5111210000000  0.4876440000000 1.0
C      1  0.5612590000000  0.4355690000000  0.4878300000000 1.0
C      1  0.4967710000000  0.4801240000000  0.5325960000000 1.0
C      1  0.5506020000000  0.5211910000000  0.5593860000000 1.0
C      1  0.4205670000000  0.5075280000000  0.5568800000000 1.0
C      1  0.4848190000000  0.5340060000000  0.4955600000000 1.0
C      1  0.4739050000000  0.5118600000000  0.4813130000000 1.0
C      1  0.5748280000000  0.4747550000000  0.5068320000000 1.0
C      1  0.4405190000000  0.5241020000000  0.5406480000000 1.0
C      1  0.5249190000000  0.5313970000000  0.5685020000000 1.0
C      1  0.5079100000000  0.4616340000000  0.5737970000000 1.0
C      1  0.5425090000000  0.4149720000000  0.5242400000000 1.0
C      1  0.5590580000000  0.4956530000000  0.5464950000000 1.0
C      1  0.5296430000000  0.4524040000000  0.5540320000000 1.0
C      1  0.4303050000000  0.5268540000000  0.5115810000000 1.0
C      1  0.5450210000000  0.4881280000000  0.5180130000000 1.0
C      1  0.5303480000000  0.4600930000000  0.4256860000000 1.0
C      1  0.4323130000000  0.4768120000000  0.4502660000000 1.0
C      1  0.5800120000000  0.5120320000000  0.5329700000000 1.0
C      1  0.5184280000000  0.5481560000000  0.4470280000000 1.0
C      1  0.4416580000000  0.4532200000000  0.5329990000000 1.0
C      1  0.4975380000000  0.5305190000000  0.4340040000000 1.0
C      1  0.5878460000000  0.5009160000000  0.5079410000000 1.0
C      1  0.4784050000000  0.4834810000000  0.4291840000000 1.0
C      1  0.5492580000000  0.5770840000000  0.4814020000000 1.0
C      1  0.5240410000000  0.4235440000000  0.5434790000000 1.0
C      1  0.4824680000000  0.4654030000000  0.5571090000000 1.0
C      1  0.5033110000000  0.5001820000000  0.4301930000000 1.0
C      1  0.5006940000000  0.4040680000000  0.5029780000000 1.0
C      1  0.5254610000000  0.4875460000000  0.4145520000000 1.0
C      1  0.4899000000000  0.4445190000000  0.5060680000000 1.0
C      1  0.4516820000000  0.4786260000000  0.5205900000000 1.0
C      1  0.5319380000000  0.5040290000000  0.4961330000000 1.0
C      1  0.5091160000000  0.4446300000000  0.4388200000000 1.0
C      1  0.4490930000000  0.5201130000000  0.4397740000000 1.0
C      1  0.5755190000000  0.5539150000000  0.5125610000000 1.0
C      1  0.5610350000000  0.5547020000000  0.4683100000000 1.0
C      1  0.5744550000000  0.4597330000000  0.4810760000000 1.0
C      1  0.4074940000000  0.4898750000000  0.4890610000000 1.0
C      1  0.5220110000000  0.4911470000000  0.4567380000000 1.0
C      1  0.4650200000000  0.4443150000000  0.5490480000000 1.0
C      1  0.4635750000000  0.4871640000000  0.5672300000000 1.0
C      1  0.4744120000000  0.4269110000000  0.5291050000000 1.0
C      1  0.4980020000000  0.4113870000000  0.5309460000000 1.0
C      1  0.5246790000000  0.5587070000000  0.5620070000000 1.0
C      1  0.5209120000000  0.5821570000000  0.4844510000000 1.0
C      1  0.4798330000000  0.5478100000000  0.5617130000000 1.0
C      1  0.5873880000000  0.5152830000000  0.4832910000000 1.0
C      1  0.4427390000000  0.5475300000000  0.4289670000000 1.0
C      1  0.5053040000000  0.5667670000000  0.4654310000000 1.0
C      1  0.4547510000000  0.5486230000000  0.5481610000000 1.0
C      1  0.5575890000000  0.4697900000000  0.4324220000000 1.0
C      1  0.5178850000000  0.4544340000000  0.5007250000000 1.0
C      1  0.4362220000000  0.5555530000000  0.5043660000000 1.0
C      1  0.4498340000000  0.5678980000000  0.5269460000000 1.0
C      1  0.4211680000000  0.4681690000000  0.5469130000000 1.0
C      1  0.5323960000000  0.4283170000000  0.4822850000000 1.0
C      1  0.5428780000000  0.5838320000000  0.5265570000000 1.0
C      1  0.5718860000000  0.4546940000000  0.5293320000000 1.0
C      1  0.5750620000000  0.5024730000000  0.4598380000000 1.0
C      1  0.4861710000000  0.4240070000000  0.4830900000000 1.0
C      1  0.4068320000000  0.4926800000000  0.5365600000000 1.0
C      1  0.5276700000000  0.4067810000000  0.5003390000000 1.0
C      1  0.4494310000000  0.4307970000000  0.5128220000000 1.0
C      1  0.4961380000000  0.5213690000000  0.5666390000000 1.0
C      1  0.4456080000000  0.4616190000000  0.4731470000000 1.0
C      1  0.4857440000000  0.4989570000000  0.5844470000000 1.0
C      1  0.4844520000000  0.4584360000000  0.4395790000000 1.0
C      1  0.5633390000000  0.5166410000000  0.4360290000000 1.0
C      1  0.4058100000000  0.5066930000000  0.5118740000000 1.0
C      1  0.4305110000000  0.5512980000000  0.4560110000000 1.0
C      1  0.4682250000000  0.5872640000000  0.5246180000000 1.0
C      1  0.4465580000000  0.5608330000000  0.4778310000000 1.0
C      1  0.5640830000000  0.4312740000000  0.5162780000000 1.0
C      1  0.5422260000000  0.5093250000000  0.4679350000000 1.0
C      1  0.4982110000000  0.5290130000000  0.5187710000000 1.0
C      1  0.5474620000000  0.5649710000000  0.5474460000000 1.0
C      1  0.4819400000000  0.5471080000000  0.4135590000000 1.0
C      1  0.5672480000000  0.5402470000000  0.5400810000000 1.0
C      1  0.5031310000000  0.4787980000000  0.5948890000000 1.0
C      1  0.4899450000000  0.5087730000000  0.5381090000000 1.0
C      1  0.4585650000000  0.5576260000000  0.4086030000000 1.0
C      1  0.5616810000000  0.5778050000000  0.5069010000000 1.0
C      1  0.5580790000000  0.4650580000000  0.5523020000000 1.0
C      1  0.4120820000000  0.4959140000000  0.4616010000000 1.0
C      1  0.4509180000000  0.4917400000000  0.4331330000000 1.0
C      1  0.4366610000000  0.4825320000000  0.4944850000000 1.0
C      1  0.5094960000000  0.4289160000000  0.4628820000000 1.0
C      1  0.4781050000000  0.5538130000000  0.4726080000000 1.0
C      1  0.4287310000000  0.5207550000000  0.4622230000000 1.0
C      1  0.5140200000000  0.4813730000000  0.4833160000000 1.0
C      1  0.4751190000000  0.5281660000000  0.4544390000000 1.0
C      1  0.5455060000000  0.5374720000000  0.4515420000000 1.0
C      1  0.5237210000000  0.4685320000000  0.5262330000000 1.0
C      1  0.4853040000000  0.4852340000000  0.4847190000000 1.0
C      1  0.4944660000000  0.5857080000000  0.5319410000000 1.0
C      1  0.4725710000000  0.4660330000000  0.4647450000000 1.0
C      1  0.4335920000000  0.4842520000000  0.5686190000000 1.0
C      1  0.4558290000000  0.4343790000000  0.4854530000000 1.0
C      1  0.5792460000000  0.5416890000000  0.4869300000000 1.0
END
