TITL C-119462-4335-1 -60.0417539023688 125000 -571.469285930911 0 0 84 (C1) n - 1
REM
REM in /rds/project/t2_vol4/rds-t2-cs072/BORA/CARBON/from-Arr/AIRSS/Generating-Clusters/GAP-ML-2020/Only-C1/SD-CG/HFTN-CG
REM
REM
REM
REM
REM
REM ./C.cell (11c1c37f851c82e70ff6c80c92926a4b)
REM AIRSS Version 0.9.1 bugfix July 2018 build 013d7b7c2542+ Fri, 06 Jul 2018 19:26:36 +0100
REM compiler GCC version 9.3.0
REM options -cpp -mtune=generic -march=x86-64 -g -O0
REM seed -481087494 462797472 -1592941974 -35115308 636849706 1281685384 1416183502 -922448516 -1650717285 1511814903 1264830453 -1042019282 666591606 1603611812 -634107130 -772944410 -900065539 1654744594 1336812356 -285305743 -737202687 450403303 -78176959 -663672967 -1355538015 12353301 -1702613982 47410349 1101117157 -546099302 -777654730 -1765933148 -1770759947
REM
CELL 1.54180   50.00000   50.00000   50.00000   90.00000   90.00000   90.00000
LATT -1
SFAC C  
C      1  0.4554530000000  0.4378610000000  0.4920230000000 1.0
C      1  0.5365130000000  0.5804220000000  0.5229600000000 1.0
C      1  0.5253050000000  0.4340410000000  0.4645230000000 1.0
C      1  0.4619910000000  0.4961680000000  0.5109670000000 1.0
C      1  0.5594600000000  0.4489300000000  0.5023490000000 1.0
C      1  0.4344010000000  0.5053510000000  0.5215620000000 1.0
C      1  0.5209300000000  0.5564840000000  0.4665590000000 1.0
C      1  0.5416530000000  0.4634800000000  0.4284020000000 1.0
C      1  0.5481490000000  0.5867090000000  0.4977060000000 1.0
C      1  0.5331900000000  0.5268140000000  0.4688740000000 1.0
C      1  0.4738020000000  0.5212380000000  0.4304100000000 1.0
C      1  0.4749130000000  0.4868170000000  0.4827590000000 1.0
C      1  0.4957530000000  0.4538750000000  0.4302290000000 1.0
C      1  0.5082110000000  0.5545630000000  0.4956060000000 1.0
C      1  0.5380160000000  0.4575910000000  0.5222640000000 1.0
C      1  0.5245650000000  0.4770790000000  0.5729350000000 1.0
C      1  0.4441450000000  0.5254130000000  0.5427580000000 1.0
C      1  0.4264330000000  0.5622880000000  0.4811380000000 1.0
C      1  0.4165310000000  0.4677790000000  0.5007860000000 1.0
C      1  0.4654130000000  0.5375150000000  0.4729650000000 1.0
C      1  0.5369940000000  0.4905500000000  0.4329560000000 1.0
C      1  0.5519630000000  0.5099410000000  0.4520970000000 1.0
C      1  0.5557930000000  0.5087310000000  0.5639280000000 1.0
C      1  0.5089230000000  0.5118590000000  0.4619350000000 1.0
C      1  0.5483740000000  0.5574890000000  0.5354760000000 1.0
C      1  0.5135730000000  0.5039450000000  0.5753070000000 1.0
C      1  0.5636050000000  0.5653570000000  0.4905820000000 1.0
C      1  0.4751080000000  0.4500130000000  0.4492060000000 1.0
C      1  0.5016460000000  0.5180480000000  0.5320440000000 1.0
C      1  0.5036660000000  0.4354150000000  0.5490100000000 1.0
C      1  0.4770110000000  0.4728090000000  0.5226810000000 1.0
C      1  0.5033390000000  0.5237840000000  0.4323160000000 1.0
C      1  0.5376030000000  0.4774380000000  0.4781590000000 1.0
C      1  0.5039050000000  0.5489060000000  0.5429340000000 1.0
C      1  0.5613400000000  0.4939280000000  0.4728870000000 1.0
C      1  0.4666790000000  0.5230750000000  0.5614550000000 1.0
C      1  0.4924610000000  0.4806180000000  0.4190540000000 1.0
C      1  0.4782820000000  0.5492500000000  0.4987190000000 1.0
C      1  0.5114020000000  0.5687860000000  0.5206110000000 1.0
C      1  0.4319170000000  0.4502210000000  0.4833520000000 1.0
C      1  0.5048640000000  0.4225350000000  0.5088450000000 1.0
C      1  0.5456910000000  0.4485940000000  0.4777930000000 1.0
C      1  0.5268100000000  0.5082920000000  0.5189540000000 1.0
C      1  0.4355480000000  0.5354860000000  0.4781630000000 1.0
C      1  0.4622380000000  0.4445170000000  0.5202910000000 1.0
C      1  0.5775770000000  0.4952320000000  0.4961510000000 1.0
C      1  0.5549410000000  0.5046110000000  0.5344100000000 1.0
C      1  0.5753160000000  0.4699320000000  0.5118530000000 1.0
C      1  0.4767880000000  0.5495150000000  0.5555750000000 1.0
C      1  0.5140240000000  0.5002050000000  0.4178690000000 1.0
C      1  0.4815050000000  0.5203370000000  0.5099320000000 1.0
C      1  0.5232960000000  0.4807830000000  0.5050820000000 1.0
C      1  0.5180490000000  0.4848940000000  0.4578180000000 1.0
C      1  0.4176480000000  0.4890410000000  0.4807220000000 1.0
C      1  0.4807670000000  0.4753960000000  0.5550560000000 1.0
C      1  0.4896010000000  0.5044100000000  0.5583700000000 1.0
C      1  0.5723290000000  0.5166810000000  0.5144330000000 1.0
C      1  0.4371040000000  0.5769820000000  0.4991380000000 1.0
C      1  0.5426000000000  0.5748480000000  0.4731520000000 1.0
C      1  0.4698130000000  0.4930500000000  0.4308130000000 1.0
C      1  0.4401280000000  0.4563760000000  0.5396800000000 1.0
C      1  0.5340130000000  0.5241880000000  0.5727540000000 1.0
C      1  0.4331960000000  0.4717520000000  0.4632510000000 1.0
C      1  0.4539500000000  0.5532520000000  0.5390080000000 1.0
C      1  0.5037080000000  0.4591950000000  0.5638480000000 1.0
C      1  0.4736000000000  0.5455770000000  0.4464090000000 1.0
C      1  0.5586540000000  0.5428270000000  0.5099960000000 1.0
C      1  0.5222160000000  0.4448600000000  0.4371430000000 1.0
C      1  0.4760330000000  0.4333790000000  0.4722980000000 1.0
C      1  0.4606860000000  0.4756240000000  0.4538100000000 1.0
C      1  0.5025940000000  0.4254640000000  0.4805380000000 1.0
C      1  0.4587070000000  0.5672480000000  0.5144900000000 1.0
C      1  0.5322980000000  0.5309290000000  0.4995700000000 1.0
C      1  0.4246710000000  0.4762490000000  0.5256690000000 1.0
C      1  0.4852580000000  0.5131860000000  0.4792630000000 1.0
C      1  0.4841920000000  0.4276250000000  0.5288890000000 1.0
C      1  0.5237800000000  0.4329410000000  0.5286430000000 1.0
C      1  0.4542490000000  0.4643130000000  0.5611510000000 1.0
C      1  0.5022620000000  0.5517250000000  0.4437060000000 1.0
C      1  0.5301170000000  0.5473280000000  0.5565260000000 1.0
C      1  0.5583500000000  0.4741020000000  0.5375160000000 1.0
C      1  0.5527240000000  0.4794590000000  0.5663480000000 1.0
C      1  0.4957700000000  0.4730380000000  0.4996020000000 1.0
C      1  0.4239240000000  0.5134390000000  0.4929810000000 1.0
END
