TITL C-119484-4377-6 0.166460346017879 125000 -644.543217348035 0 0 95 (C1) n - 1
REM
REM in /rds/project/t2_vol4/rds-t2-cs072/BORA/CARBON/from-Arr/AIRSS/Generating-Clusters/GAP-ML-2020/Only-C1/SD-CG/HFTN-CG
REM
REM
REM
REM
REM
REM ./C.cell (11c1c37f851c82e70ff6c80c92926a4b)
REM AIRSS Version 0.9.1 bugfix July 2018 build 013d7b7c2542+ Fri, 06 Jul 2018 19:26:36 +0100
REM compiler GCC version 9.3.0
REM options -cpp -mtune=generic -march=x86-64 -g -O0
REM seed 2099766652 1534889076 1570591382 1413536169 327095405 -500749809 -23910380 -1754844540 299312676 505630181 -1510767048 604573594 1111278578 285532058 1586811578 -1408076004 946267117 -189551349 338641875 -1422908977 -240242977 1247516006 -1381363808 821541207 -156527044 -1620506519 523585501 -506910855 -665950883 1923255268 556513618 -148903996 -1610435936
REM
CELL 1.54180   50.00000   50.00000   50.00000   90.00000   90.00000   90.00000
LATT -1
SFAC C  
C      1  0.5252710000000  0.5019270000000  0.4434750000000 1.0
C      1  0.4972330000000  0.5117830000000  0.4318310000000 1.0
C      1  0.4369160000000  0.5450100000000  0.4651460000000 1.0
C      1  0.5166740000000  0.4226380000000  0.4487350000000 1.0
C      1  0.5706290000000  0.4961980000000  0.5343240000000 1.0
C      1  0.5234730000000  0.4966220000000  0.4733990000000 1.0
C      1  0.4868570000000  0.4698590000000  0.5750530000000 1.0
C      1  0.5261330000000  0.5451530000000  0.4254960000000 1.0
C      1  0.4771370000000  0.4744630000000  0.4622410000000 1.0
C      1  0.4585640000000  0.4683790000000  0.5671960000000 1.0
C      1  0.4854540000000  0.5770390000000  0.5143690000000 1.0
C      1  0.4357810000000  0.5240580000000  0.5561160000000 1.0
C      1  0.4693300000000  0.5115980000000  0.5772140000000 1.0
C      1  0.4564970000000  0.5022670000000  0.4384590000000 1.0
C      1  0.5313710000000  0.5553220000000  0.5518360000000 1.0
C      1  0.4737880000000  0.5242360000000  0.4494240000000 1.0
C      1  0.4255980000000  0.5208300000000  0.4598900000000 1.0
C      1  0.4936970000000  0.4364240000000  0.4416210000000 1.0
C      1  0.4596780000000  0.5290730000000  0.5009880000000 1.0
C      1  0.5446190000000  0.4574660000000  0.4442390000000 1.0
C      1  0.5031360000000  0.5796190000000  0.4595870000000 1.0
C      1  0.5707650000000  0.5395560000000  0.5339750000000 1.0
C      1  0.5068380000000  0.5302070000000  0.4117970000000 1.0
C      1  0.5696740000000  0.4573470000000  0.4537930000000 1.0
C      1  0.5062140000000  0.5172280000000  0.4891120000000 1.0
C      1  0.4648930000000  0.4194460000000  0.5114950000000 1.0
C      1  0.4673890000000  0.4900660000000  0.4861120000000 1.0
C      1  0.4720990000000  0.4337820000000  0.4624370000000 1.0
C      1  0.5536160000000  0.5387170000000  0.5572350000000 1.0
C      1  0.4417990000000  0.5538640000000  0.4948020000000 1.0
C      1  0.5035060000000  0.4477860000000  0.5660880000000 1.0
C      1  0.5766570000000  0.4685510000000  0.4776140000000 1.0
C      1  0.5144940000000  0.5707900000000  0.5051110000000 1.0
C      1  0.4182880000000  0.5025120000000  0.5149500000000 1.0
C      1  0.4792820000000  0.4238780000000  0.4892000000000 1.0
C      1  0.4621910000000  0.4952780000000  0.5286400000000 1.0
C      1  0.4794490000000  0.5752030000000  0.5410870000000 1.0
C      1  0.5441870000000  0.5696830000000  0.4620880000000 1.0
C      1  0.5770650000000  0.4987360000000  0.4788220000000 1.0
C      1  0.5065100000000  0.5415480000000  0.5605920000000 1.0
C      1  0.4780850000000  0.5173960000000  0.4804430000000 1.0
C      1  0.5346490000000  0.5661270000000  0.5256000000000 1.0
C      1  0.4121050000000  0.4729420000000  0.5149760000000 1.0
C      1  0.5917890000000  0.5174780000000  0.4947220000000 1.0
C      1  0.5188410000000  0.5427420000000  0.4892330000000 1.0
C      1  0.5217300000000  0.4822690000000  0.5205960000000 1.0
C      1  0.4590400000000  0.5372980000000  0.5701060000000 1.0
C      1  0.4141230000000  0.4672820000000  0.4874860000000 1.0
C      1  0.4981020000000  0.5240610000000  0.5357840000000 1.0
C      1  0.5124200000000  0.5090080000000  0.5181650000000 1.0
C      1  0.4720230000000  0.5228390000000  0.5273640000000 1.0
C      1  0.5152320000000  0.5172230000000  0.5775900000000 1.0
C      1  0.5421200000000  0.5271500000000  0.4411690000000 1.0
C      1  0.5576710000000  0.5413870000000  0.4632290000000 1.0
C      1  0.4618700000000  0.5510590000000  0.4523760000000 1.0
C      1  0.5258090000000  0.4737160000000  0.4299860000000 1.0
C      1  0.5244410000000  0.5831930000000  0.4801480000000 1.0
C      1  0.4540620000000  0.4545020000000  0.4596030000000 1.0
C      1  0.4289600000000  0.4679700000000  0.4647010000000 1.0
C      1  0.5261690000000  0.4475230000000  0.4649090000000 1.0
C      1  0.5617820000000  0.4982580000000  0.5605510000000 1.0
C      1  0.4776590000000  0.4775400000000  0.5102480000000 1.0
C      1  0.5320410000000  0.4271700000000  0.4879530000000 1.0
C      1  0.5370540000000  0.4302190000000  0.5351550000000 1.0
C      1  0.4194800000000  0.5273310000000  0.5328280000000 1.0
C      1  0.4799290000000  0.5573390000000  0.5620750000000 1.0
C      1  0.4321890000000  0.4958540000000  0.4509660000000 1.0
C      1  0.4229750000000  0.4581700000000  0.5358980000000 1.0
C      1  0.4662540000000  0.5736930000000  0.4928920000000 1.0
C      1  0.5440270000000  0.5150800000000  0.5720340000000 1.0
C      1  0.5561220000000  0.5525480000000  0.5136460000000 1.0
C      1  0.4510620000000  0.4960570000000  0.5600030000000 1.0
C      1  0.4213990000000  0.5478560000000  0.5143250000000 1.0
C      1  0.5470070000000  0.5347200000000  0.4909980000000 1.0
C      1  0.4436730000000  0.5033310000000  0.5038300000000 1.0
C      1  0.4635760000000  0.4287430000000  0.5372960000000 1.0
C      1  0.5077670000000  0.4697950000000  0.4756170000000 1.0
C      1  0.4451520000000  0.4491060000000  0.5492480000000 1.0
C      1  0.5850790000000  0.5181520000000  0.5228480000000 1.0
C      1  0.4936430000000  0.4983550000000  0.5817330000000 1.0
C      1  0.5037980000000  0.4648800000000  0.5049300000000 1.0
C      1  0.5642890000000  0.4596300000000  0.5025790000000 1.0
C      1  0.5296870000000  0.4058910000000  0.4663720000000 1.0
C      1  0.5239300000000  0.5688860000000  0.4418420000000 1.0
C      1  0.5838540000000  0.5300100000000  0.4718120000000 1.0
C      1  0.5495490000000  0.5027240000000  0.4893510000000 1.0
C      1  0.5302930000000  0.4411190000000  0.5595650000000 1.0
C      1  0.4992380000000  0.4623660000000  0.4278050000000 1.0
C      1  0.4902950000000  0.4291060000000  0.5474790000000 1.0
C      1  0.5518290000000  0.4838870000000  0.5137760000000 1.0
C      1  0.4808270000000  0.4851740000000  0.4333030000000 1.0
C      1  0.5101040000000  0.4211350000000  0.5288580000000 1.0
C      1  0.5051080000000  0.4313020000000  0.5022760000000 1.0
C      1  0.4764950000000  0.5718330000000  0.4663340000000 1.0
C      1  0.5508420000000  0.4354310000000  0.5098000000000 1.0
END
