TITL C-111163-5633-4 0.0400369759741891 125000 -276.50661460126 0 0 40 (C1) n - 1
REM
REM in /rds/project/t2_vol4/rds-t2-cs072/BORA/CARBON/from-Arr/AIRSS/Generating-Clusters/GAP-ML-2020/Only-C1/SD-CG/HFTN-CG
REM
REM
REM
REM
REM
REM ./C.cell (11c1c37f851c82e70ff6c80c92926a4b)
REM AIRSS Version 0.9.1 bugfix July 2018 build 013d7b7c2542+ Fri, 06 Jul 2018 19:26:36 +0100
REM compiler GCC version 9.3.0
REM options -cpp -mtune=generic -march=x86-64 -g -O0
REM seed -1352931460 387099045 364701057 204342121 1725120624 1308912420 236513193 1543378939 435214847 -406592079 120358298 -1994223551 1731886125 -738908803 -1227273111 -1037215793 -1861406193 -1624374176 -1848189831 960038491 -2022154115 -954682415 1054211926 -2080842326 52929187 1441337894 -732139496 1620467783 -921330656 914405875 -1288276012 1738788800 -1136159046
REM
CELL 1.54180   50.00000   50.00000   50.00000   90.00000   90.00000   90.00000
LATT -1
SFAC C  
C      1  0.4498280000000  0.4653360000000  0.5066850000000 1.0
C      1  0.4733520000000  0.4723490000000  0.4656950000000 1.0
C      1  0.4906670000000  0.4434150000000  0.5021710000000 1.0
C      1  0.4479440000000  0.5376900000000  0.5349690000000 1.0
C      1  0.5205560000000  0.4607020000000  0.4666310000000 1.0
C      1  0.4943650000000  0.5246780000000  0.5271150000000 1.0
C      1  0.4522410000000  0.5052290000000  0.4958660000000 1.0
C      1  0.5636520000000  0.4901080000000  0.5105450000000 1.0
C      1  0.4954360000000  0.4866950000000  0.5536590000000 1.0
C      1  0.4856400000000  0.6042210000000  0.5016280000000 1.0
C      1  0.5388970000000  0.4504920000000  0.5087570000000 1.0
C      1  0.5344110000000  0.4612540000000  0.5352420000000 1.0
C      1  0.5127090000000  0.5391860000000  0.5115710000000 1.0
C      1  0.5434410000000  0.5071900000000  0.4706850000000 1.0
C      1  0.5236430000000  0.5217810000000  0.4569520000000 1.0
C      1  0.4771120000000  0.5180190000000  0.4524570000000 1.0
C      1  0.4342190000000  0.5572000000000  0.5430730000000 1.0
C      1  0.5034500000000  0.4851720000000  0.4281400000000 1.0
C      1  0.4620980000000  0.4642750000000  0.5323540000000 1.0
C      1  0.5080380000000  0.5579440000000  0.4906500000000 1.0
C      1  0.4824150000000  0.5442640000000  0.4551180000000 1.0
C      1  0.5502110000000  0.4864930000000  0.5363170000000 1.0
C      1  0.5032780000000  0.5074310000000  0.4424020000000 1.0
C      1  0.4646980000000  0.5170310000000  0.5250580000000 1.0
C      1  0.5363160000000  0.5107530000000  0.5403240000000 1.0
C      1  0.5165820000000  0.4455830000000  0.4912640000000 1.0
C      1  0.4867230000000  0.4480860000000  0.5302870000000 1.0
C      1  0.4957610000000  0.5817520000000  0.4959880000000 1.0
C      1  0.4689070000000  0.4891810000000  0.5431400000000 1.0
C      1  0.5440130000000  0.4775680000000  0.4700170000000 1.0
C      1  0.4640520000000  0.4998290000000  0.4695850000000 1.0
C      1  0.5088020000000  0.5104970000000  0.5471820000000 1.0
C      1  0.4334040000000  0.4858510000000  0.5011480000000 1.0
C      1  0.5075460000000  0.4613130000000  0.5452200000000 1.0
C      1  0.5091160000000  0.5456610000000  0.4650290000000 1.0
C      1  0.5565560000000  0.4684580000000  0.4944200000000 1.0
C      1  0.4683970000000  0.4546250000000  0.4874020000000 1.0
C      1  0.4985700000000  0.4699320000000  0.4514750000000 1.0
C      1  0.5544370000000  0.5146210000000  0.4971670000000 1.0
C      1  0.5385150000000  0.5281350000000  0.5166100000000 1.0
END
