TITL C-112706-1746-11 0.0520768662502014 125000 -342.150189176164 0 0 51 (C1) n - 1
REM
REM in /rds/project/t2_vol4/rds-t2-cs072/BORA/CARBON/from-Arr/AIRSS/Generating-Clusters/GAP-ML-2020/Only-C1/SD-CG/HFTN-CG
REM
REM
REM
REM
REM
REM ./C.cell (11c1c37f851c82e70ff6c80c92926a4b)
REM AIRSS Version 0.9.1 bugfix July 2018 build 013d7b7c2542+ Fri, 06 Jul 2018 19:26:36 +0100
REM compiler GCC version 9.3.0
REM options -cpp -mtune=generic -march=x86-64 -g -O0
REM seed 397899351 1037225495 -1433971063 1345160634 1216540576 1543688934 -1965350402 1618563429 -1822531572 -1013586610 -826012766 1256124261 1078432209 1226108877 1211610848 576319545 821112788 18936139 1127552789 1750622240 987418115 -473828821 -298085893 -1292540143 208884691 -1549458030 1052933333 -1759153339 -1366817982 -1671750833 161009757 389628844 83595050
REM
CELL 1.54180   50.00000   50.00000   50.00000   90.00000   90.00000   90.00000
LATT -1
SFAC C  
C      1  0.4321350000000  0.5168970000000  0.4644840000000 1.0
C      1  0.4832840000000  0.4254550000000  0.5113950000000 1.0
C      1  0.5492290000000  0.4984720000000  0.4593690000000 1.0
C      1  0.4969480000000  0.4639030000000  0.5303610000000 1.0
C      1  0.5331570000000  0.4981370000000  0.4358580000000 1.0
C      1  0.5051250000000  0.4369930000000  0.4964930000000 1.0
C      1  0.5036010000000  0.5284290000000  0.5681180000000 1.0
C      1  0.4801920000000  0.4949720000000  0.4947820000000 1.0
C      1  0.4817880000000  0.5225750000000  0.4814730000000 1.0
C      1  0.4501380000000  0.4849410000000  0.4937110000000 1.0
C      1  0.4987750000000  0.4788600000000  0.4774610000000 1.0
C      1  0.5444810000000  0.4680130000000  0.3942490000000 1.0
C      1  0.4629880000000  0.4765080000000  0.4505480000000 1.0
C      1  0.5507820000000  0.4808050000000  0.5396970000000 1.0
C      1  0.5035690000000  0.5278030000000  0.4630210000000 1.0
C      1  0.4863480000000  0.4889730000000  0.5243300000000 1.0
C      1  0.5057480000000  0.5079270000000  0.4421590000000 1.0
C      1  0.4690810000000  0.4979510000000  0.5460500000000 1.0
C      1  0.5433750000000  0.5198590000000  0.4779100000000 1.0
C      1  0.4575090000000  0.4366430000000  0.5118560000000 1.0
C      1  0.5260730000000  0.5420030000000  0.4723750000000 1.0
C      1  0.4891350000000  0.4865110000000  0.4496090000000 1.0
C      1  0.5301490000000  0.5521770000000  0.5372850000000 1.0
C      1  0.4976950000000  0.5763140000000  0.4956150000000 1.0
C      1  0.4383550000000  0.5292250000000  0.4889840000000 1.0
C      1  0.4793840000000  0.5556640000000  0.5363410000000 1.0
C      1  0.4468830000000  0.5139290000000  0.5348700000000 1.0
C      1  0.5383630000000  0.4825890000000  0.4140950000000 1.0
C      1  0.5379220000000  0.4864100000000  0.5639160000000 1.0
C      1  0.5495930000000  0.4728430000000  0.4762070000000 1.0
C      1  0.5222210000000  0.5633400000000  0.4918280000000 1.0
C      1  0.5492260000000  0.4579910000000  0.5210990000000 1.0
C      1  0.4641750000000  0.5425450000000  0.4904810000000 1.0
C      1  0.4934980000000  0.4503320000000  0.4749900000000 1.0
C      1  0.4773660000000  0.5620850000000  0.5075420000000 1.0
C      1  0.5501510000000  0.5069970000000  0.5260300000000 1.0
C      1  0.5290310000000  0.5134850000000  0.5658580000000 1.0
C      1  0.5370270000000  0.5664840000000  0.5152590000000 1.0
C      1  0.5201680000000  0.4571230000000  0.5125480000000 1.0
C      1  0.4370520000000  0.5079240000000  0.5098960000000 1.0
C      1  0.4607010000000  0.5361170000000  0.5477730000000 1.0
C      1  0.4421740000000  0.4918670000000  0.4638460000000 1.0
C      1  0.5246990000000  0.4799320000000  0.4917560000000 1.0
C      1  0.4777510000000  0.5181140000000  0.5645300000000 1.0
C      1  0.5424440000000  0.5271500000000  0.5444900000000 1.0
C      1  0.4777740000000  0.4422970000000  0.5333130000000 1.0
C      1  0.4658360000000  0.4518280000000  0.4673600000000 1.0
C      1  0.5044230000000  0.5522650000000  0.5501290000000 1.0
C      1  0.5632800000000  0.4592710000000  0.4952550000000 1.0
C      1  0.5378650000000  0.5056450000000  0.5015890000000 1.0
C      1  0.4513320000000  0.4554270000000  0.4918090000000 1.0
END
