TITL C-119475-4551-7 -0.0568912728322523 125000 -111.291050183432 0 0 18 (C1) n - 1
REM
REM in /rds/project/t2_vol4/rds-t2-cs072/BORA/CARBON/from-Arr/AIRSS/Generating-Clusters/GAP-ML-2020/Only-C1/SD-CG/HFTN-CG
REM
REM
REM
REM
REM
REM ./C.cell (11c1c37f851c82e70ff6c80c92926a4b)
REM AIRSS Version 0.9.1 bugfix July 2018 build 013d7b7c2542+ Fri, 06 Jul 2018 19:26:36 +0100
REM compiler GCC version 9.3.0
REM options -cpp -mtune=generic -march=x86-64 -g -O0
REM seed 879279053 1574125688 1704019859 1958144110 -699884842 1058249793 -201177494 -754964144 -51498002 -1769477828 -600293213 -1757686229 -2003305055 1849651598 1827431058 1107307417 -2000869780 -728184767 2098269411 -770336759 -1215214799 -1489497865 402464449 -485783068 -1530366322 696777454 -576808646 -853257717 -1347897715 1596547560 -517506096 -1835666633 1743813748
REM
CELL 1.54180   50.00000   50.00000   50.00000   90.00000   90.00000   90.00000
LATT -1
SFAC C  
C      1  0.5282860000000  0.5093290000000  0.4923900000000 1.0
C      1  0.4870260000000  0.5093570000000  0.5295540000000 1.0
C      1  0.5333740000000  0.4621170000000  0.4770050000000 1.0
C      1  0.4920970000000  0.5403240000000  0.4716750000000 1.0
C      1  0.5303680000000  0.4441180000000  0.4596700000000 1.0
C      1  0.4901560000000  0.4619860000000  0.5454720000000 1.0
C      1  0.5130160000000  0.5190780000000  0.5357550000000 1.0
C      1  0.5351060000000  0.5012750000000  0.5372100000000 1.0
C      1  0.5035620000000  0.5168720000000  0.4818470000000 1.0
C      1  0.4797360000000  0.5171860000000  0.5044500000000 1.0
C      1  0.4437990000000  0.5280460000000  0.4756220000000 1.0
C      1  0.4595190000000  0.4824450000000  0.4594070000000 1.0
C      1  0.5350220000000  0.4816700000000  0.4957470000000 1.0
C      1  0.4488510000000  0.5048750000000  0.4651140000000 1.0
C      1  0.4671490000000  0.5364120000000  0.4881470000000 1.0
C      1  0.5331520000000  0.5231530000000  0.5175060000000 1.0
C      1  0.4811620000000  0.4843120000000  0.5389760000000 1.0
C      1  0.5386210000000  0.4774440000000  0.5244540000000 1.0
END
