TITL C-112720-906-10 0.00247150295938203 125000 -28.2972593051258 0 0 5 (D2h) n - 1
REM
REM in /rds/project/t2_vol4/rds-t2-cs072/BORA/CARBON/from-Arr/AIRSS/Generating-Clusters/GAP-ML-2020/Only-C1/SD-CG/HFTN-CG
REM
REM
REM
REM
REM
REM ./C.cell (11c1c37f851c82e70ff6c80c92926a4b)
REM AIRSS Version 0.9.1 bugfix July 2018 build 013d7b7c2542+ Fri, 06 Jul 2018 19:26:36 +0100
REM compiler GCC version 9.3.0
REM options -cpp -mtune=generic -march=x86-64 -g -O0
REM seed 1470617450 -573121432 -964539428 -1420527545 -1372897007 870764699 -1042353814 637263438 -903407302 -2006707321 -85866117 -1156530667 -1305000221 415671417 -113693032 -1260915697 -979889865 2130544119 -1041690944 -1354029811 -320483180 -1445353714 -61568335 -14199001 915038544 -21932683 -1766314040 -2040694827 1372174116 -471226060 1542265828 -1160205799 967242226
REM
CELL 1.54180   50.00000   50.00000   50.00000   90.00000   90.00000   90.00000
LATT -1
SFAC C  
C      1  0.4774590000000  0.5044290000000  0.5172920000000 1.0
C      1  0.5000000000000  0.5000000000000  0.5000000000000 1.0
C      1  0.5139500000000  0.4751870000000  0.4959440000000 1.0
C      1  0.5225410000000  0.4955710000000  0.4827080000000 1.0
C      1  0.4860500000000  0.5248130000000  0.5040560000000 1.0
END
