TITL C-111155-6202-8 -221.6219186616 125000 -441.545968449218 0 0 63 (C1) n - 1
REM
REM in /rds/project/t2_vol4/rds-t2-cs072/BORA/CARBON/from-Arr/AIRSS/Generating-Clusters/GAP-ML-2020/Only-C1/SD-CG/HFTN-CG
REM
REM
REM
REM
REM
REM ./C.cell (11c1c37f851c82e70ff6c80c92926a4b)
REM AIRSS Version 0.9.1 bugfix July 2018 build 013d7b7c2542+ Fri, 06 Jul 2018 19:26:36 +0100
REM compiler GCC version 9.3.0
REM options -cpp -mtune=generic -march=x86-64 -g -O0
REM seed -919236830 -1244009146 1500515890 -1024431375 465606661 -166105990 1207453642 -1680223583 906326668 1129035710 189127626 -554521578 735957663 846785686 -1413032199 -1410265405 -1343788599 819085576 1174632007 1722173511 -1089695503 -336368547 -1292594436 1522496900 -411724227 1751944951 703126881 1483278480 1719290593 -1397939285 1689502531 -2001623426 -2129393067
REM
CELL 1.54180   50.00000   50.00000   50.00000   90.00000   90.00000   90.00000
LATT -1
SFAC C  
C      1  0.4486910000000  0.4869530000000  0.5508890000000 1.0
C      1  0.4890750000000  0.4898840000000  0.4230330000000 1.0
C      1  0.4298690000000  0.4899330000000  0.5028240000000 1.0
C      1  0.4244820000000  0.5306440000000  0.5257230000000 1.0
C      1  0.5404900000000  0.4922880000000  0.5600730000000 1.0
C      1  0.5284230000000  0.4511880000000  0.5419670000000 1.0
C      1  0.4671840000000  0.4934570000000  0.5028160000000 1.0
C      1  0.5268440000000  0.5485090000000  0.4558800000000 1.0
C      1  0.4554260000000  0.5245250000000  0.4584180000000 1.0
C      1  0.4846840000000  0.4342080000000  0.5187000000000 1.0
C      1  0.5429760000000  0.5586000000000  0.4993600000000 1.0
C      1  0.5221530000000  0.5644900000000  0.4801370000000 1.0
C      1  0.4316940000000  0.4767520000000  0.5287210000000 1.0
C      1  0.4406010000000  0.4507710000000  0.5260630000000 1.0
C      1  0.5559420000000  0.5094490000000  0.4520840000000 1.0
C      1  0.4808210000000  0.4373010000000  0.4898670000000 1.0
C      1  0.4522850000000  0.4965270000000  0.4557560000000 1.0
C      1  0.5374470000000  0.4932250000000  0.4384260000000 1.0
C      1  0.4929700000000  0.4806710000000  0.5000810000000 1.0
C      1  0.5054700000000  0.5304610000000  0.4451100000000 1.0
C      1  0.4480720000000  0.5348600000000  0.5391300000000 1.0
C      1  0.4489760000000  0.4810300000000  0.4817690000000 1.0
C      1  0.4272770000000  0.5181740000000  0.5019980000000 1.0
C      1  0.4656610000000  0.4458930000000  0.5367740000000 1.0
C      1  0.5596990000000  0.4863460000000  0.5390540000000 1.0
C      1  0.4643330000000  0.4541730000000  0.4480290000000 1.0
C      1  0.5610880000000  0.5406090000000  0.4862480000000 1.0
C      1  0.4801790000000  0.5616710000000  0.4704940000000 1.0
C      1  0.5124580000000  0.4581880000000  0.4590460000000 1.0
C      1  0.4674420000000  0.5449840000000  0.5210840000000 1.0
C      1  0.4980420000000  0.4820310000000  0.4703440000000 1.0
C      1  0.4932160000000  0.4825730000000  0.5647080000000 1.0
C      1  0.5520600000000  0.5363840000000  0.4592310000000 1.0
C      1  0.4869960000000  0.5113700000000  0.5626300000000 1.0
C      1  0.5377100000000  0.5537600000000  0.5271110000000 1.0
C      1  0.5701760000000  0.5155940000000  0.4973350000000 1.0
C      1  0.4957670000000  0.5694080000000  0.4912430000000 1.0
C      1  0.5562570000000  0.4686380000000  0.4758300000000 1.0
C      1  0.5199910000000  0.4724570000000  0.5610590000000 1.0
C      1  0.5013830000000  0.5227350000000  0.4926720000000 1.0
C      1  0.4785430000000  0.5416460000000  0.4519870000000 1.0
C      1  0.5130790000000  0.4347010000000  0.5237490000000 1.0
C      1  0.5095550000000  0.5008250000000  0.5080790000000 1.0
C      1  0.5518890000000  0.5322240000000  0.5396990000000 1.0
C      1  0.4661910000000  0.4800940000000  0.4355620000000 1.0
C      1  0.5501100000000  0.4522590000000  0.4993260000000 1.0
C      1  0.5520150000000  0.4606960000000  0.5275960000000 1.0
C      1  0.5666040000000  0.5116800000000  0.5258180000000 1.0
C      1  0.5074570000000  0.4366670000000  0.4777130000000 1.0
C      1  0.4470960000000  0.5308710000000  0.4844250000000 1.0
C      1  0.5267230000000  0.4352620000000  0.4981320000000 1.0
C      1  0.5116280000000  0.5047850000000  0.4287580000000 1.0
C      1  0.4896150000000  0.5621530000000  0.5200630000000 1.0
C      1  0.5662940000000  0.4959400000000  0.4759080000000 1.0
C      1  0.5106490000000  0.5533570000000  0.5375850000000 1.0
C      1  0.5058740000000  0.5097680000000  0.4676310000000 1.0
C      1  0.5383560000000  0.4677330000000  0.4529860000000 1.0
C      1  0.4711370000000  0.5229760000000  0.5003220000000 1.0
C      1  0.5348440000000  0.5200770000000  0.5596460000000 1.0
C      1  0.5085490000000  0.5308150000000  0.5576600000000 1.0
C      1  0.4698120000000  0.4684550000000  0.5554190000000 1.0
C      1  0.4591750000000  0.5132890000000  0.5552370000000 1.0
C      1  0.4604950000000  0.4530110000000  0.4749870000000 1.0
END
