TITL C-119480-4661-7 -243.501640601164 125000 -403.370895779059 0 0 61 (C1) n - 1
REM
REM in /rds/project/t2_vol4/rds-t2-cs072/BORA/CARBON/from-Arr/AIRSS/Generating-Clusters/GAP-ML-2020/Only-C1/SD-CG/HFTN-CG
REM
REM
REM
REM
REM
REM ./C.cell (11c1c37f851c82e70ff6c80c92926a4b)
REM AIRSS Version 0.9.1 bugfix July 2018 build 013d7b7c2542+ Fri, 06 Jul 2018 19:26:36 +0100
REM compiler GCC version 9.3.0
REM options -cpp -mtune=generic -march=x86-64 -g -O0
REM seed -1950398260 155607178 929700967 321167813 1852559145 -262639873 -2114350038 507076554 -934330562 1743725097 561849095 -843065092 762888230 48337949 1359806735 1760191352 -1466206981 -1614826354 -1100211924 1624832753 1706014018 -803656917 -186495826 -564761846 -91254197 305584324 -789236441 -1154376942 -1369384549 -1140910218 809038618 -1703384953 -1669959708
REM
CELL 1.54180   50.00000   50.00000   50.00000   90.00000   90.00000   90.00000
LATT -1
SFAC C  
C      1  0.4742620000000  0.5052030000000  0.4422250000000 1.0
C      1  0.4624700000000  0.5429400000000  0.4510000000000 1.0
C      1  0.5360310000000  0.4625980000000  0.4864160000000 1.0
C      1  0.4490140000000  0.5609670000000  0.4970490000000 1.0
C      1  0.5427230000000  0.4596360000000  0.5351190000000 1.0
C      1  0.5270540000000  0.5496670000000  0.5217790000000 1.0
C      1  0.5201780000000  0.5561390000000  0.4585880000000 1.0
C      1  0.5501150000000  0.5312380000000  0.5212690000000 1.0
C      1  0.5448470000000  0.4824320000000  0.4410650000000 1.0
C      1  0.5345400000000  0.5091440000000  0.5666170000000 1.0
C      1  0.4868280000000  0.5055330000000  0.4710240000000 1.0
C      1  0.5617370000000  0.5070020000000  0.4711110000000 1.0
C      1  0.4391860000000  0.5444510000000  0.5171250000000 1.0
C      1  0.5533640000000  0.5113410000000  0.4441900000000 1.0
C      1  0.5305920000000  0.5180850000000  0.4281700000000 1.0
C      1  0.5004810000000  0.4181800000000  0.5228880000000 1.0
C      1  0.4832950000000  0.5326160000000  0.4351730000000 1.0
C      1  0.5043710000000  0.4935690000000  0.5470510000000 1.0
C      1  0.5467010000000  0.4600970000000  0.5628300000000 1.0
C      1  0.5277870000000  0.5119360000000  0.4883790000000 1.0
C      1  0.5130430000000  0.5120770000000  0.4655290000000 1.0
C      1  0.5319260000000  0.4872560000000  0.5296690000000 1.0
C      1  0.5406250000000  0.4444180000000  0.5102870000000 1.0
C      1  0.4364100000000  0.4953160000000  0.5266210000000 1.0
C      1  0.4445510000000  0.5085950000000  0.4834910000000 1.0
C      1  0.4443740000000  0.5448160000000  0.5447190000000 1.0
C      1  0.5051350000000  0.5377600000000  0.5335920000000 1.0
C      1  0.5005240000000  0.4738970000000  0.5674030000000 1.0
C      1  0.5165610000000  0.4199430000000  0.4771640000000 1.0
C      1  0.4840020000000  0.4975090000000  0.5268550000000 1.0
C      1  0.5202270000000  0.4894330000000  0.4274450000000 1.0
C      1  0.5117940000000  0.5340300000000  0.4425870000000 1.0
C      1  0.4587130000000  0.5017390000000  0.5429760000000 1.0
C      1  0.5229700000000  0.4860430000000  0.5019740000000 1.0
C      1  0.5219870000000  0.4214660000000  0.5058460000000 1.0
C      1  0.5081340000000  0.5216200000000  0.5597870000000 1.0
C      1  0.4486930000000  0.5172480000000  0.4544170000000 1.0
C      1  0.4823430000000  0.4338290000000  0.5359990000000 1.0
C      1  0.5482030000000  0.5102040000000  0.5404080000000 1.0
C      1  0.4841190000000  0.5282830000000  0.5728330000000 1.0
C      1  0.5525880000000  0.5274130000000  0.4912200000000 1.0
C      1  0.4754470000000  0.5248130000000  0.4899600000000 1.0
C      1  0.4702840000000  0.5529490000000  0.4787570000000 1.0
C      1  0.4314340000000  0.5166610000000  0.5074740000000 1.0
C      1  0.4939530000000  0.4816390000000  0.4348730000000 1.0
C      1  0.4627140000000  0.4615200000000  0.4665130000000 1.0
C      1  0.4607710000000  0.5266170000000  0.5577150000000 1.0
C      1  0.5541150000000  0.4777730000000  0.4676500000000 1.0
C      1  0.4446150000000  0.4700220000000  0.5151350000000 1.0
C      1  0.4622710000000  0.4549500000000  0.5332350000000 1.0
C      1  0.5408680000000  0.5524890000000  0.4784950000000 1.0
C      1  0.5137830000000  0.4451280000000  0.4678420000000 1.0
C      1  0.5000330000000  0.5640100000000  0.4787600000000 1.0
C      1  0.4809660000000  0.4789460000000  0.4815050000000 1.0
C      1  0.5304790000000  0.4780510000000  0.5749730000000 1.0
C      1  0.4873740000000  0.5237770000000  0.5161490000000 1.0
C      1  0.4820170000000  0.4554390000000  0.5545700000000 1.0
C      1  0.4948480000000  0.4787070000000  0.5065640000000 1.0
C      1  0.5217490000000  0.5626610000000  0.4974330000000 1.0
C      1  0.4497840000000  0.4777540000000  0.4868640000000 1.0
C      1  0.4899970000000  0.4604300000000  0.4556410000000 1.0
END
