TITL C-112708-820-6 72.3634217255712 125000 -1079.21285937082 0 0 154 (C1) n - 1
REM
REM in /rds/project/t2_vol4/rds-t2-cs072/BORA/CARBON/from-Arr/AIRSS/Generating-Clusters/GAP-ML-2020/Only-C1/SD-CG/HFTN-CG
REM
REM
REM
REM
REM
REM ./C.cell (11c1c37f851c82e70ff6c80c92926a4b)
REM AIRSS Version 0.9.1 bugfix July 2018 build 013d7b7c2542+ Fri, 06 Jul 2018 19:26:36 +0100
REM compiler GCC version 9.3.0
REM options -cpp -mtune=generic -march=x86-64 -g -O0
REM seed 1829412793 1524762626 -135866328 -1726826195 28320630 -443899838 -61284896 -1187984301 -1314784595 -225841268 1803267503 2044318407 674419516 -1914737320 -1811249964 -49869436 -937099390 -209864886 -1875508114 462624077 -1692120952 -559908395 1568738303 664014081 957462505 -303271959 1000110988 -897782039 -314766184 -1389895362 -1315578769 621053152 -2210144
REM
CELL 1.54180   50.00000   50.00000   50.00000   90.00000   90.00000   90.00000
LATT -1
SFAC C  
C      1  0.5241890000000  0.5899480000000  0.5395120000000 1.0
C      1  0.5457450000000  0.4882410000000  0.4060540000000 1.0
C      1  0.5764790000000  0.5158040000000  0.4361100000000 1.0
C      1  0.5253300000000  0.5986080000000  0.4908720000000 1.0
C      1  0.5834640000000  0.5355940000000  0.5363250000000 1.0
C      1  0.5531810000000  0.4240660000000  0.5537730000000 1.0
C      1  0.5426530000000  0.4349970000000  0.4219890000000 1.0
C      1  0.4499200000000  0.4959170000000  0.4898590000000 1.0
C      1  0.4208820000000  0.4905580000000  0.4988260000000 1.0
C      1  0.4691920000000  0.4893360000000  0.5115850000000 1.0
C      1  0.4245430000000  0.5737750000000  0.5349440000000 1.0
C      1  0.4264180000000  0.4641470000000  0.5711600000000 1.0
C      1  0.4223490000000  0.5510140000000  0.5531350000000 1.0
C      1  0.5608720000000  0.4477480000000  0.5677730000000 1.0
C      1  0.4953980000000  0.4624440000000  0.5977440000000 1.0
C      1  0.4851990000000  0.5778160000000  0.5095300000000 1.0
C      1  0.4287450000000  0.4921040000000  0.5292380000000 1.0
C      1  0.5624900000000  0.4145560000000  0.5278390000000 1.0
C      1  0.4167090000000  0.4483940000000  0.4754690000000 1.0
C      1  0.4909340000000  0.4973870000000  0.4518550000000 1.0
C      1  0.4166840000000  0.4617510000000  0.4999470000000 1.0
C      1  0.4668630000000  0.5676840000000  0.5547560000000 1.0
C      1  0.5539310000000  0.4825150000000  0.5126270000000 1.0
C      1  0.5536560000000  0.5499600000000  0.5700830000000 1.0
C      1  0.5826920000000  0.5243410000000  0.5086960000000 1.0
C      1  0.5313370000000  0.4619830000000  0.4110110000000 1.0
C      1  0.4883890000000  0.4860400000000  0.3948700000000 1.0
C      1  0.5586890000000  0.5221670000000  0.5715790000000 1.0
C      1  0.5277070000000  0.5735700000000  0.4491880000000 1.0
C      1  0.4765650000000  0.4171060000000  0.4861470000000 1.0
C      1  0.4469750000000  0.5486840000000  0.5683270000000 1.0
C      1  0.4599550000000  0.5074990000000  0.5331010000000 1.0
C      1  0.4833460000000  0.4411440000000  0.5042880000000 1.0
C      1  0.4833480000000  0.4499850000000  0.4186260000000 1.0
C      1  0.4174250000000  0.5314860000000  0.4763010000000 1.0
C      1  0.5086430000000  0.4767210000000  0.4877420000000 1.0
C      1  0.4485870000000  0.5520500000000  0.4504390000000 1.0
C      1  0.4185770000000  0.4628260000000  0.4501560000000 1.0
C      1  0.4602450000000  0.5333450000000  0.5193990000000 1.0
C      1  0.5162530000000  0.5142580000000  0.5144520000000 1.0
C      1  0.4501250000000  0.5289670000000  0.4916530000000 1.0
C      1  0.5549460000000  0.5625570000000  0.4536650000000 1.0
C      1  0.5251620000000  0.5101450000000  0.4133660000000 1.0
C      1  0.4875650000000  0.5777820000000  0.5744250000000 1.0
C      1  0.4321330000000  0.4243200000000  0.4740250000000 1.0
C      1  0.5304030000000  0.4349030000000  0.4782380000000 1.0
C      1  0.3958150000000  0.5371610000000  0.5183700000000 1.0
C      1  0.4373660000000  0.4479230000000  0.4332560000000 1.0
C      1  0.5133340000000  0.4456050000000  0.5852960000000 1.0
C      1  0.5632990000000  0.5555620000000  0.5433990000000 1.0
C      1  0.5011680000000  0.4042800000000  0.4492160000000 1.0
C      1  0.4533430000000  0.4740530000000  0.5732320000000 1.0
C      1  0.4531340000000  0.5948540000000  0.4675000000000 1.0
C      1  0.5148360000000  0.5967810000000  0.4636790000000 1.0
C      1  0.5024620000000  0.4254960000000  0.5646760000000 1.0
C      1  0.5029330000000  0.4631220000000  0.4032670000000 1.0
C      1  0.4941150000000  0.4778320000000  0.5531550000000 1.0
C      1  0.4886660000000  0.5550940000000  0.4207610000000 1.0
C      1  0.5110120000000  0.5378390000000  0.5316480000000 1.0
C      1  0.5490190000000  0.5848150000000  0.4978070000000 1.0
C      1  0.5267090000000  0.4071830000000  0.4916540000000 1.0
C      1  0.5154710000000  0.4732280000000  0.5373780000000 1.0
C      1  0.5883070000000  0.4899260000000  0.5475940000000 1.0
C      1  0.5965330000000  0.4769640000000  0.4538410000000 1.0
C      1  0.4300490000000  0.4448720000000  0.5492980000000 1.0
C      1  0.4409990000000  0.5907930000000  0.4930800000000 1.0
C      1  0.4823910000000  0.5526200000000  0.5277690000000 1.0
C      1  0.4487720000000  0.5791840000000  0.4441270000000 1.0
C      1  0.5136920000000  0.5571180000000  0.4747510000000 1.0
C      1  0.4156100000000  0.4914910000000  0.4501280000000 1.0
C      1  0.5829060000000  0.5159470000000  0.5574510000000 1.0
C      1  0.4092230000000  0.5038420000000  0.4753330000000 1.0
C      1  0.4887360000000  0.4471390000000  0.4476480000000 1.0
C      1  0.4830250000000  0.5717490000000  0.6009800000000 1.0
C      1  0.4526260000000  0.5112720000000  0.4136710000000 1.0
C      1  0.4055240000000  0.5500600000000  0.4961530000000 1.0
C      1  0.4061850000000  0.4829700000000  0.5688880000000 1.0
C      1  0.5351260000000  0.5069900000000  0.5597220000000 1.0
C      1  0.4901640000000  0.5183160000000  0.4718080000000 1.0
C      1  0.4492780000000  0.5860580000000  0.5390770000000 1.0
C      1  0.5155070000000  0.4948330000000  0.4393700000000 1.0
C      1  0.4480960000000  0.4122920000000  0.4960870000000 1.0
C      1  0.5596480000000  0.4437940000000  0.4683510000000 1.0
C      1  0.4776480000000  0.5294840000000  0.4093650000000 1.0
C      1  0.5830610000000  0.4423890000000  0.4859060000000 1.0
C      1  0.5243750000000  0.4220750000000  0.5438110000000 1.0
C      1  0.5595310000000  0.5400350000000  0.4355710000000 1.0
C      1  0.4749730000000  0.4217880000000  0.4546650000000 1.0
C      1  0.4195920000000  0.5736370000000  0.5060240000000 1.0
C      1  0.4866280000000  0.5661060000000  0.4807980000000 1.0
C      1  0.5392930000000  0.4879820000000  0.4855280000000 1.0
C      1  0.4295830000000  0.5119190000000  0.4330330000000 1.0
C      1  0.5388520000000  0.4602470000000  0.5821650000000 1.0
C      1  0.5360910000000  0.4070540000000  0.5184320000000 1.0
C      1  0.5085600000000  0.5234660000000  0.5585800000000 1.0
C      1  0.4751690000000  0.4313250000000  0.5588700000000 1.0
C      1  0.5845010000000  0.4621250000000  0.5550820000000 1.0
C      1  0.4943570000000  0.4996920000000  0.4996310000000 1.0
C      1  0.5531200000000  0.4552460000000  0.5201360000000 1.0
C      1  0.4083560000000  0.5014600000000  0.5489310000000 1.0
C      1  0.5290190000000  0.4698010000000  0.4429000000000 1.0
C      1  0.4673020000000  0.5005200000000  0.5827850000000 1.0
C      1  0.5328280000000  0.4952990000000  0.5314100000000 1.0
C      1  0.5415260000000  0.5493280000000  0.5237690000000 1.0
C      1  0.5149440000000  0.5043460000000  0.5988750000000 1.0
C      1  0.5165150000000  0.5301860000000  0.4717390000000 1.0
C      1  0.5599050000000  0.5637610000000  0.4818960000000 1.0
C      1  0.4717720000000  0.4603040000000  0.5532800000000 1.0
C      1  0.4908540000000  0.4892430000000  0.6004060000000 1.0
C      1  0.5498500000000  0.4740210000000  0.4632610000000 1.0
C      1  0.5471600000000  0.5782490000000  0.5265000000000 1.0
C      1  0.5964910000000  0.4470660000000  0.5346270000000 1.0
C      1  0.5172400000000  0.4426480000000  0.4519430000000 1.0
C      1  0.5347810000000  0.4897640000000  0.5840210000000 1.0
C      1  0.5564850000000  0.5380880000000  0.4992330000000 1.0
C      1  0.5348440000000  0.5181510000000  0.4893990000000 1.0
C      1  0.5168600000000  0.5576660000000  0.4261630000000 1.0
C      1  0.4335960000000  0.4605490000000  0.5246660000000 1.0
C      1  0.4846360000000  0.4722030000000  0.4643680000000 1.0
C      1  0.5783330000000  0.4365440000000  0.5150710000000 1.0
C      1  0.4841700000000  0.5888240000000  0.4610250000000 1.0
C      1  0.4836560000000  0.5448240000000  0.5967750000000 1.0
C      1  0.4597430000000  0.5928680000000  0.5140940000000 1.0
C      1  0.5225540000000  0.4191450000000  0.4349570000000 1.0
C      1  0.5353700000000  0.5370460000000  0.4204740000000 1.0
C      1  0.5658740000000  0.4426570000000  0.4375300000000 1.0
C      1  0.6021720000000  0.4857920000000  0.4972220000000 1.0
C      1  0.5991430000000  0.5119560000000  0.4849700000000 1.0
C      1  0.5099070000000  0.5336270000000  0.5877840000000 1.0
C      1  0.4608800000000  0.4852040000000  0.4039690000000 1.0
C      1  0.5287890000000  0.5579660000000  0.5789740000000 1.0
C      1  0.4831200000000  0.5047760000000  0.5561530000000 1.0
C      1  0.4985250000000  0.5120750000000  0.3993940000000 1.0
C      1  0.4686480000000  0.5420760000000  0.4726980000000 1.0
C      1  0.4462950000000  0.4251540000000  0.4488770000000 1.0
C      1  0.5942530000000  0.5056740000000  0.4569410000000 1.0
C      1  0.5154400000000  0.5799220000000  0.5652280000000 1.0
C      1  0.4048300000000  0.5300700000000  0.5431340000000 1.0
C      1  0.4598960000000  0.5302840000000  0.5870290000000 1.0
C      1  0.5997800000000  0.4640910000000  0.4789350000000 1.0
C      1  0.4562290000000  0.4590110000000  0.4149860000000 1.0
C      1  0.5090990000000  0.5952780000000  0.5150770000000 1.0
C      1  0.5699100000000  0.4914210000000  0.4197380000000 1.0
C      1  0.4495080000000  0.4223030000000  0.5475210000000 1.0
C      1  0.5027790000000  0.4002520000000  0.4781090000000 1.0
C      1  0.5109910000000  0.4504820000000  0.5005110000000 1.0
C      1  0.5812170000000  0.4670200000000  0.4321440000000 1.0
C      1  0.4447360000000  0.4109610000000  0.5229820000000 1.0
C      1  0.4581060000000  0.4763930000000  0.4711170000000 1.0
C      1  0.4652160000000  0.4604610000000  0.5207890000000 1.0
C      1  0.4268180000000  0.5351840000000  0.4486870000000 1.0
C      1  0.4757470000000  0.5761370000000  0.4350480000000 1.0
C      1  0.5254600000000  0.4487650000000  0.5263160000000 1.0
C      1  0.5825350000000  0.4932360000000  0.5178550000000 1.0
END
