TITL C-119459-4568-4 -0.0813359948586854 125000 -720.444306931044 0 0 102 (C1) n - 1
REM
REM in /rds/project/t2_vol4/rds-t2-cs072/BORA/CARBON/from-Arr/AIRSS/Generating-Clusters/GAP-ML-2020/Only-C1/SD-CG/HFTN-CG
REM
REM
REM
REM
REM
REM ./C.cell (11c1c37f851c82e70ff6c80c92926a4b)
REM AIRSS Version 0.9.1 bugfix July 2018 build 013d7b7c2542+ Fri, 06 Jul 2018 19:26:36 +0100
REM compiler GCC version 9.3.0
REM options -cpp -mtune=generic -march=x86-64 -g -O0
REM seed 1668078723 638255093 -373321061 456708073 -411627110 -1702291914 1284054361 217575741 1057567026 1922528069 -349852363 1166301147 1935811480 327670059 1522620037 274573638 -2091568122 -899223115 1189835240 -1028288197 1227816564 -133373629 -2128527083 -1675250447 -1949209099 -1284639335 1002710933 -1833241838 1057868621 -1364815407 1192456493 -555963842 293659100
REM
CELL 1.54180   50.00000   50.00000   50.00000   90.00000   90.00000   90.00000
LATT -1
SFAC C  
C      1  0.4820020000000  0.5829140000000  0.4973460000000 1.0
C      1  0.4372650000000  0.5422610000000  0.5730660000000 1.0
C      1  0.5375610000000  0.4707310000000  0.4252780000000 1.0
C      1  0.4176900000000  0.5481500000000  0.5120390000000 1.0
C      1  0.4454150000000  0.4758880000000  0.4333950000000 1.0
C      1  0.4629850000000  0.4380860000000  0.5283320000000 1.0
C      1  0.4003820000000  0.5188220000000  0.4742800000000 1.0
C      1  0.4754900000000  0.5196630000000  0.5247820000000 1.0
C      1  0.5154170000000  0.5284620000000  0.4912210000000 1.0
C      1  0.4617860000000  0.5677640000000  0.4853360000000 1.0
C      1  0.5128680000000  0.5418510000000  0.5491970000000 1.0
C      1  0.5075910000000  0.5797190000000  0.4861990000000 1.0
C      1  0.5165490000000  0.5356060000000  0.5998750000000 1.0
C      1  0.4881980000000  0.4796360000000  0.4923130000000 1.0
C      1  0.5670540000000  0.5554810000000  0.4925150000000 1.0
C      1  0.5151660000000  0.5075320000000  0.4669460000000 1.0
C      1  0.4633150000000  0.5361960000000  0.4361880000000 1.0
C      1  0.4891470000000  0.5291390000000  0.5014050000000 1.0
C      1  0.5288350000000  0.5376690000000  0.5758120000000 1.0
C      1  0.4721070000000  0.5244690000000  0.4773110000000 1.0
C      1  0.4763900000000  0.5510600000000  0.4614180000000 1.0
C      1  0.4480240000000  0.4536600000000  0.4493610000000 1.0
C      1  0.4992270000000  0.4445020000000  0.4364900000000 1.0
C      1  0.4169250000000  0.5364620000000  0.4859220000000 1.0
C      1  0.4380080000000  0.4925140000000  0.4741770000000 1.0
C      1  0.5604190000000  0.4327760000000  0.4723390000000 1.0
C      1  0.5243590000000  0.4146240000000  0.4974500000000 1.0
C      1  0.5246750000000  0.5770500000000  0.5101840000000 1.0
C      1  0.4816280000000  0.4419820000000  0.5501720000000 1.0
C      1  0.5943010000000  0.5056150000000  0.4967820000000 1.0
C      1  0.4589110000000  0.5676320000000  0.5345870000000 1.0
C      1  0.4712130000000  0.4260870000000  0.4793120000000 1.0
C      1  0.4587250000000  0.5505710000000  0.5575750000000 1.0
C      1  0.6096460000000  0.5287680000000  0.5045690000000 1.0
C      1  0.4361360000000  0.5311130000000  0.4363790000000 1.0
C      1  0.5093610000000  0.5693070000000  0.5336790000000 1.0
C      1  0.5825280000000  0.4584930000000  0.5021280000000 1.0
C      1  0.5386550000000  0.4280060000000  0.4547420000000 1.0
C      1  0.5043070000000  0.4190280000000  0.5169340000000 1.0
C      1  0.4817330000000  0.5105090000000  0.5763960000000 1.0
C      1  0.5789290000000  0.4549850000000  0.4736790000000 1.0
C      1  0.4690880000000  0.4862710000000  0.4214310000000 1.0
C      1  0.5324950000000  0.4912470000000  0.4853190000000 1.0
C      1  0.5140610000000  0.4670180000000  0.5730970000000 1.0
C      1  0.4864430000000  0.4942170000000  0.5183060000000 1.0
C      1  0.4122420000000  0.4970340000000  0.5210740000000 1.0
C      1  0.5841180000000  0.5381900000000  0.5102520000000 1.0
C      1  0.4478650000000  0.4415520000000  0.4735980000000 1.0
C      1  0.5514160000000  0.4248590000000  0.4985610000000 1.0
C      1  0.5079040000000  0.5123800000000  0.4196200000000 1.0
C      1  0.4865740000000  0.4988750000000  0.4707850000000 1.0
C      1  0.5169810000000  0.4167760000000  0.4698480000000 1.0
C      1  0.4216990000000  0.5232110000000  0.5296740000000 1.0
C      1  0.5142930000000  0.4845090000000  0.4164520000000 1.0
C      1  0.4790150000000  0.5140740000000  0.4227530000000 1.0
C      1  0.4912660000000  0.4683090000000  0.4211510000000 1.0
C      1  0.5600240000000  0.4852020000000  0.4349700000000 1.0
C      1  0.5281490000000  0.5244890000000  0.4375090000000 1.0
C      1  0.4319180000000  0.5196940000000  0.5571910000000 1.0
C      1  0.4668090000000  0.4864620000000  0.5718190000000 1.0
C      1  0.5277700000000  0.5159450000000  0.5344150000000 1.0
C      1  0.5515310000000  0.5692600000000  0.5121320000000 1.0
C      1  0.4292210000000  0.4940970000000  0.4473260000000 1.0
C      1  0.4922890000000  0.4262990000000  0.4597980000000 1.0
C      1  0.4452420000000  0.5581030000000  0.5108930000000 1.0
C      1  0.4482690000000  0.5251740000000  0.5147400000000 1.0
C      1  0.5335920000000  0.5138920000000  0.5058920000000 1.0
C      1  0.5784460000000  0.4786440000000  0.4568430000000 1.0
C      1  0.5713370000000  0.5252150000000  0.4556980000000 1.0
C      1  0.5504010000000  0.4593500000000  0.5361620000000 1.0
C      1  0.5278620000000  0.4491050000000  0.5545330000000 1.0
C      1  0.4775990000000  0.4239360000000  0.5074540000000 1.0
C      1  0.4299640000000  0.4785000000000  0.5351370000000 1.0
C      1  0.4827060000000  0.5315630000000  0.5541210000000 1.0
C      1  0.5245310000000  0.4917460000000  0.5837290000000 1.0
C      1  0.5565770000000  0.5578540000000  0.5371350000000 1.0
C      1  0.5574210000000  0.5102660000000  0.5479750000000 1.0
C      1  0.4416450000000  0.4922000000000  0.5581140000000 1.0
C      1  0.4396080000000  0.4539970000000  0.5220100000000 1.0
C      1  0.5046030000000  0.5107440000000  0.5934430000000 1.0
C      1  0.5309910000000  0.5504720000000  0.4525590000000 1.0
C      1  0.5277630000000  0.4455320000000  0.4352670000000 1.0
C      1  0.5445850000000  0.5116260000000  0.5736510000000 1.0
C      1  0.4182670000000  0.4750490000000  0.4839380000000 1.0
C      1  0.5115290000000  0.4921890000000  0.5316510000000 1.0
C      1  0.5855100000000  0.5035830000000  0.4690460000000 1.0
C      1  0.5248330000000  0.4690730000000  0.5209830000000 1.0
C      1  0.4142200000000  0.5176480000000  0.4465030000000 1.0
C      1  0.5551510000000  0.5133420000000  0.4355860000000 1.0
C      1  0.4832270000000  0.5783670000000  0.5264820000000 1.0
C      1  0.5679450000000  0.4845840000000  0.5373950000000 1.0
C      1  0.5713270000000  0.5352580000000  0.5372440000000 1.0
C      1  0.4317570000000  0.4527400000000  0.4946640000000 1.0
C      1  0.4022160000000  0.4951630000000  0.4941700000000 1.0
C      1  0.5061700000000  0.5631560000000  0.4623830000000 1.0
C      1  0.5578070000000  0.5480720000000  0.4663390000000 1.0
C      1  0.5855110000000  0.4834720000000  0.5147410000000 1.0
C      1  0.4440790000000  0.5189090000000  0.4863230000000 1.0
C      1  0.4848570000000  0.4634260000000  0.5695120000000 1.0
C      1  0.5647390000000  0.4418150000000  0.5171700000000 1.0
C      1  0.5163150000000  0.4696760000000  0.4934610000000 1.0
C      1  0.5073040000000  0.4318020000000  0.5428650000000 1.0
END
