TITL C-119474-4370-4 -219.547443495136 125000 -990.607673355521 0 0 141 (C1) n - 1
REM
REM in /rds/project/t2_vol4/rds-t2-cs072/BORA/CARBON/from-Arr/AIRSS/Generating-Clusters/GAP-ML-2020/Only-C1/SD-CG/HFTN-CG
REM
REM
REM
REM
REM
REM ./C.cell (11c1c37f851c82e70ff6c80c92926a4b)
REM AIRSS Version 0.9.1 bugfix July 2018 build 013d7b7c2542+ Fri, 06 Jul 2018 19:26:36 +0100
REM compiler GCC version 9.3.0
REM options -cpp -mtune=generic -march=x86-64 -g -O0
REM seed 1302165608 -1120980297 -1084102449 -2058309026 1382233256 -1435408864 430832300 2049782718 1186194665 241419521 202475520 -1606104530 -710798188 -1227599680 637683465 -554354255 419216526 1458110600 1238639187 -1469647261 255216708 -1346857464 1053236052 -6926132 -1434229521 790786484 -1655788109 -402768483 891362693 -1209553304 74107848 -2015163853 -576232527
REM
CELL 1.54180   50.00000   50.00000   50.00000   90.00000   90.00000   90.00000
LATT -1
SFAC C  
C      1  0.4420140000000  0.4151370000000  0.4868670000000 1.0
C      1  0.4934260000000  0.4450760000000  0.4226730000000 1.0
C      1  0.5272120000000  0.5804590000000  0.4411340000000 1.0
C      1  0.5189410000000  0.4315090000000  0.4252960000000 1.0
C      1  0.4275600000000  0.5207670000000  0.4592970000000 1.0
C      1  0.4558970000000  0.5955990000000  0.5147750000000 1.0
C      1  0.5398530000000  0.5338200000000  0.5435470000000 1.0
C      1  0.4984580000000  0.3934630000000  0.4493200000000 1.0
C      1  0.4749860000000  0.5076290000000  0.5293380000000 1.0
C      1  0.4226950000000  0.5568340000000  0.4936000000000 1.0
C      1  0.5743860000000  0.4344710000000  0.4891100000000 1.0
C      1  0.5633770000000  0.4288350000000  0.4633180000000 1.0
C      1  0.4427070000000  0.4326230000000  0.4618580000000 1.0
C      1  0.4571790000000  0.5603360000000  0.4307170000000 1.0
C      1  0.4684740000000  0.5675330000000  0.5599350000000 1.0
C      1  0.4519720000000  0.4578080000000  0.5009520000000 1.0
C      1  0.5419460000000  0.4758490000000  0.5817340000000 1.0
C      1  0.5758470000000  0.4624660000000  0.5014400000000 1.0
C      1  0.5411040000000  0.4750990000000  0.4145260000000 1.0
C      1  0.4185910000000  0.5195070000000  0.5339730000000 1.0
C      1  0.4934880000000  0.5353880000000  0.5963090000000 1.0
C      1  0.5062540000000  0.4707690000000  0.4646340000000 1.0
C      1  0.5422630000000  0.4092630000000  0.4637630000000 1.0
C      1  0.4979490000000  0.5838020000000  0.5340760000000 1.0
C      1  0.4633060000000  0.4530290000000  0.4722170000000 1.0
C      1  0.5038440000000  0.6146680000000  0.5045080000000 1.0
C      1  0.5745930000000  0.5584010000000  0.5464760000000 1.0
C      1  0.5019310000000  0.5150860000000  0.4705380000000 1.0
C      1  0.5319350000000  0.4175000000000  0.5468850000000 1.0
C      1  0.5886380000000  0.4884000000000  0.4921990000000 1.0
C      1  0.5168480000000  0.3998900000000  0.5311940000000 1.0
C      1  0.4907780000000  0.4913510000000  0.4822030000000 1.0
C      1  0.5816180000000  0.5306000000000  0.5530950000000 1.0
C      1  0.4871080000000  0.5384420000000  0.4721200000000 1.0
C      1  0.4227470000000  0.4549830000000  0.4519020000000 1.0
C      1  0.4771850000000  0.4582360000000  0.5182760000000 1.0
C      1  0.5198610000000  0.4612490000000  0.5678980000000 1.0
C      1  0.4962350000000  0.4964590000000  0.4168120000000 1.0
C      1  0.4933060000000  0.4474820000000  0.4759080000000 1.0
C      1  0.4895120000000  0.3897390000000  0.5311550000000 1.0
C      1  0.4857100000000  0.5231540000000  0.4172740000000 1.0
C      1  0.5908180000000  0.5075070000000  0.5371140000000 1.0
C      1  0.4906080000000  0.4734180000000  0.4354580000000 1.0
C      1  0.5248480000000  0.4961370000000  0.5924300000000 1.0
C      1  0.4797610000000  0.5786790000000  0.4303440000000 1.0
C      1  0.5914280000000  0.5360320000000  0.4935660000000 1.0
C      1  0.4850890000000  0.3911880000000  0.5026950000000 1.0
C      1  0.4574370000000  0.4168860000000  0.4418110000000 1.0
C      1  0.4678990000000  0.4466630000000  0.5481270000000 1.0
C      1  0.5288640000000  0.4508270000000  0.5157050000000 1.0
C      1  0.4726460000000  0.3971940000000  0.4566820000000 1.0
C      1  0.5506490000000  0.4955100000000  0.4588010000000 1.0
C      1  0.5770930000000  0.5609470000000  0.4982470000000 1.0
C      1  0.5552400000000  0.4952550000000  0.4290940000000 1.0
C      1  0.5474370000000  0.5602900000000  0.4509250000000 1.0
C      1  0.5136290000000  0.4905990000000  0.5285630000000 1.0
C      1  0.5206270000000  0.4085910000000  0.4437510000000 1.0
C      1  0.4443660000000  0.5890770000000  0.4698670000000 1.0
C      1  0.5193830000000  0.5430570000000  0.5912650000000 1.0
C      1  0.5326020000000  0.5812230000000  0.4980720000000 1.0
C      1  0.5737870000000  0.5742730000000  0.5230030000000 1.0
C      1  0.5301720000000  0.5191060000000  0.4662530000000 1.0
C      1  0.4870770000000  0.4267820000000  0.5605500000000 1.0
C      1  0.4064690000000  0.4587670000000  0.4933890000000 1.0
C      1  0.5143740000000  0.4318910000000  0.5642630000000 1.0
C      1  0.4992260000000  0.5627940000000  0.5557680000000 1.0
C      1  0.5211440000000  0.6048990000000  0.4845550000000 1.0
C      1  0.5048560000000  0.5688230000000  0.5074880000000 1.0
C      1  0.5007960000000  0.4871250000000  0.5769470000000 1.0
C      1  0.5232830000000  0.5647890000000  0.5727430000000 1.0
C      1  0.4167690000000  0.4666370000000  0.5391460000000 1.0
C      1  0.4186500000000  0.4908820000000  0.5257790000000 1.0
C      1  0.4132110000000  0.4452990000000  0.5187510000000 1.0
C      1  0.4758250000000  0.6096650000000  0.4981340000000 1.0
C      1  0.4569270000000  0.5044180000000  0.5901760000000 1.0
C      1  0.5231740000000  0.4964850000000  0.4075930000000 1.0
C      1  0.5962450000000  0.5105420000000  0.5089710000000 1.0
C      1  0.5165380000000  0.6047770000000  0.5293430000000 1.0
C      1  0.5136030000000  0.5988230000000  0.4580710000000 1.0
C      1  0.4849780000000  0.5466410000000  0.4982020000000 1.0
C      1  0.5498870000000  0.5613780000000  0.4833950000000 1.0
C      1  0.5540450000000  0.4511400000000  0.4500420000000 1.0
C      1  0.5078020000000  0.5421010000000  0.4211030000000 1.0
C      1  0.4678310000000  0.5313950000000  0.5895440000000 1.0
C      1  0.5058570000000  0.5694350000000  0.4240170000000 1.0
C      1  0.4381320000000  0.5034050000000  0.4823310000000 1.0
C      1  0.4640070000000  0.4924940000000  0.4711020000000 1.0
C      1  0.4876480000000  0.4859280000000  0.5132850000000 1.0
C      1  0.5478550000000  0.5207830000000  0.5156350000000 1.0
C      1  0.4413550000000  0.5247400000000  0.5026670000000 1.0
C      1  0.5377590000000  0.4048710000000  0.4915930000000 1.0
C      1  0.4677870000000  0.6046000000000  0.4708770000000 1.0
C      1  0.4683810000000  0.5873940000000  0.5391440000000 1.0
C      1  0.5013350000000  0.4406990000000  0.5035240000000 1.0
C      1  0.4702560000000  0.4319660000000  0.4237000000000 1.0
C      1  0.4983140000000  0.5087450000000  0.5479000000000 1.0
C      1  0.5101530000000  0.5349620000000  0.5417480000000 1.0
C      1  0.5526540000000  0.4325510000000  0.5299110000000 1.0
C      1  0.5359930000000  0.5347160000000  0.4931190000000 1.0
C      1  0.4367240000000  0.5823010000000  0.4962750000000 1.0
C      1  0.4635510000000  0.3965050000000  0.4844490000000 1.0
C      1  0.4246610000000  0.5484140000000  0.4653860000000 1.0
C      1  0.5777050000000  0.5004360000000  0.4689230000000 1.0
C      1  0.4163940000000  0.5364220000000  0.5118140000000 1.0
C      1  0.4588920000000  0.5308900000000  0.4243040000000 1.0
C      1  0.5112820000000  0.5414080000000  0.5116830000000 1.0
C      1  0.4857660000000  0.5983780000000  0.4505670000000 1.0
C      1  0.5410360000000  0.4495230000000  0.4248530000000 1.0
C      1  0.5405930000000  0.5170720000000  0.4184010000000 1.0
C      1  0.4631010000000  0.4738890000000  0.4494190000000 1.0
C      1  0.5100390000000  0.4090940000000  0.5027670000000 1.0
C      1  0.5221150000000  0.4661310000000  0.5395940000000 1.0
C      1  0.4727590000000  0.4060300000000  0.5465180000000 1.0
C      1  0.5601190000000  0.4173460000000  0.5062930000000 1.0
C      1  0.4304940000000  0.5268160000000  0.5597670000000 1.0
C      1  0.5629320000000  0.4896920000000  0.5685720000000 1.0
C      1  0.5725190000000  0.5455940000000  0.4487660000000 1.0
C      1  0.5449110000000  0.5638490000000  0.5503360000000 1.0
C      1  0.4517080000000  0.4230000000000  0.5370390000000 1.0
C      1  0.4377440000000  0.4303090000000  0.5121450000000 1.0
C      1  0.5835380000000  0.5284890000000  0.4671620000000 1.0
C      1  0.5364170000000  0.4959480000000  0.5122210000000 1.0
C      1  0.3989030000000  0.4535360000000  0.4675440000000 1.0
C      1  0.4335290000000  0.5026340000000  0.5741300000000 1.0
C      1  0.5788090000000  0.4811680000000  0.5466110000000 1.0
C      1  0.5434780000000  0.5855350000000  0.5264350000000 1.0
C      1  0.4368410000000  0.4779040000000  0.4383630000000 1.0
C      1  0.4385760000000  0.5109080000000  0.4354650000000 1.0
C      1  0.4670510000000  0.5302590000000  0.5143930000000 1.0
C      1  0.5318820000000  0.5355680000000  0.4393520000000 1.0
C      1  0.4728530000000  0.4818480000000  0.5852300000000 1.0
C      1  0.4315410000000  0.4758220000000  0.5618970000000 1.0
C      1  0.4275550000000  0.4807400000000  0.4992900000000 1.0
C      1  0.5738900000000  0.4576830000000  0.5307630000000 1.0
C      1  0.5437530000000  0.4704140000000  0.4978580000000 1.0
C      1  0.4388540000000  0.5681700000000  0.4510810000000 1.0
C      1  0.4566110000000  0.4645920000000  0.5684400000000 1.0
C      1  0.5377870000000  0.5214520000000  0.5903190000000 1.0
C      1  0.5375350000000  0.4706150000000  0.4681960000000 1.0
C      1  0.4513610000000  0.5463290000000  0.5699830000000 1.0
C      1  0.5578750000000  0.5187800000000  0.5682710000000 1.0
END
