TITL C-119455-4409-2 0.271884843370426 125000 -344.90122965092 0 0 51 (C1) n - 1
REM
REM in /rds/project/t2_vol4/rds-t2-cs072/BORA/CARBON/from-Arr/AIRSS/Generating-Clusters/GAP-ML-2020/Only-C1/SD-CG/HFTN-CG
REM
REM
REM
REM
REM
REM ./C.cell (11c1c37f851c82e70ff6c80c92926a4b)
REM AIRSS Version 0.9.1 bugfix July 2018 build 013d7b7c2542+ Fri, 06 Jul 2018 19:26:36 +0100
REM compiler GCC version 9.3.0
REM options -cpp -mtune=generic -march=x86-64 -g -O0
REM seed 82933630 -838440275 -1111931995 -98258478 -168085656 -1410827779 -398327800 -339402276 208376587 1417772096 2146658538 -522394165 410622882 -946348692 -985979484 -901612391 680728493 302445104 -700048195 163552004 -1678497406 541561826 -1742157136 -854740031 1827256809 1300116672 164818779 46807500 -1788964806 -390079188 -1060566607 -358909597 1093468718
REM
CELL 1.54180   50.00000   50.00000   50.00000   90.00000   90.00000   90.00000
LATT -1
SFAC C  
C      1  0.4748730000000  0.5220840000000  0.5587230000000 1.0
C      1  0.4555670000000  0.4445230000000  0.4734360000000 1.0
C      1  0.4879870000000  0.4733660000000  0.4247640000000 1.0
C      1  0.5093520000000  0.4416320000000  0.4955110000000 1.0
C      1  0.5500460000000  0.4745360000000  0.4889860000000 1.0
C      1  0.4701780000000  0.5713750000000  0.4834040000000 1.0
C      1  0.5124900000000  0.4912560000000  0.5046010000000 1.0
C      1  0.5098580000000  0.5706640000000  0.5093730000000 1.0
C      1  0.4766540000000  0.5178350000000  0.4503280000000 1.0
C      1  0.4644750000000  0.5637850000000  0.4579280000000 1.0
C      1  0.4505530000000  0.4886220000000  0.4932180000000 1.0
C      1  0.4982330000000  0.5049440000000  0.5664220000000 1.0
C      1  0.4693000000000  0.5092570000000  0.4784920000000 1.0
C      1  0.5166650000000  0.5248790000000  0.5555350000000 1.0
C      1  0.5344920000000  0.5568150000000  0.5048060000000 1.0
C      1  0.5368550000000  0.4579890000000  0.4438750000000 1.0
C      1  0.5163690000000  0.4401240000000  0.4451780000000 1.0
C      1  0.4983800000000  0.4978750000000  0.4814600000000 1.0
C      1  0.4657910000000  0.5545120000000  0.5066440000000 1.0
C      1  0.5528470000000  0.5289500000000  0.4741680000000 1.0
C      1  0.4676190000000  0.4542700000000  0.5226030000000 1.0
C      1  0.4937250000000  0.4961240000000  0.4376870000000 1.0
C      1  0.5417280000000  0.5213690000000  0.5418800000000 1.0
C      1  0.4897990000000  0.4474310000000  0.4328930000000 1.0
C      1  0.4918290000000  0.4778100000000  0.5605990000000 1.0
C      1  0.5130800000000  0.4912070000000  0.4589420000000 1.0
C      1  0.4681240000000  0.4741620000000  0.5433820000000 1.0
C      1  0.4494020000000  0.5147330000000  0.5637680000000 1.0
C      1  0.4546280000000  0.4606340000000  0.4963800000000 1.0
C      1  0.4758750000000  0.4372970000000  0.4578280000000 1.0
C      1  0.4580850000000  0.5282590000000  0.5008650000000 1.0
C      1  0.5619000000000  0.5202670000000  0.4989650000000 1.0
C      1  0.4935670000000  0.4997020000000  0.5208660000000 1.0
C      1  0.4889190000000  0.5587740000000  0.5252560000000 1.0
C      1  0.5028630000000  0.4325490000000  0.4700210000000 1.0
C      1  0.5345560000000  0.5493590000000  0.4760860000000 1.0
C      1  0.5146840000000  0.4606920000000  0.5546180000000 1.0
C      1  0.4505710000000  0.4971770000000  0.5420710000000 1.0
C      1  0.5059920000000  0.4366820000000  0.5439750000000 1.0
C      1  0.4987480000000  0.5773660000000  0.4835160000000 1.0
C      1  0.4925010000000  0.4390320000000  0.5202470000000 1.0
C      1  0.4458750000000  0.5059840000000  0.5147990000000 1.0
C      1  0.4934460000000  0.5416940000000  0.5475310000000 1.0
C      1  0.5615920000000  0.4931720000000  0.5073820000000 1.0
C      1  0.5384300000000  0.4784600000000  0.4622160000000 1.0
C      1  0.5099630000000  0.5597890000000  0.4639760000000 1.0
C      1  0.5275650000000  0.4622810000000  0.5008770000000 1.0
C      1  0.5394070000000  0.4727630000000  0.5482220000000 1.0
C      1  0.5488270000000  0.5370170000000  0.5192260000000 1.0
C      1  0.4847970000000  0.5454250000000  0.4509240000000 1.0
C      1  0.5509360000000  0.4934950000000  0.5355460000000 1.0
END
