TITL C-117343-1736-6 0.0912577969160088 125000 -243.780835985287 0 0 36 (C1) n - 1
REM
REM in /rds/project/t2_vol4/rds-t2-cs072/BORA/CARBON/from-Arr/AIRSS/Generating-Clusters/GAP-ML-2020/Only-C1/SD-CG/HFTN-CG
REM
REM
REM
REM
REM
REM ./C.cell (11c1c37f851c82e70ff6c80c92926a4b)
REM AIRSS Version 0.9.1 bugfix July 2018 build 013d7b7c2542+ Fri, 06 Jul 2018 19:26:36 +0100
REM compiler GCC version 9.3.0
REM options -cpp -mtune=generic -march=x86-64 -g -O0
REM seed 1308455407 1356938995 -668570576 -1422182 358388108 -385206703 253549160 -102984880 1309538125 110941963 -527838615 2034017835 -1610820117 -1262364261 -1099342917 2053274540 -1430702793 -1648250609 -1625429352 -1090760673 -1577091292 -464894262 109513310 -1528761534 106230443 -1472620901 -607731874 1633350791 2034135358 -415451916 -703414590 -1160365758 686117437
REM
CELL 1.54180   50.00000   50.00000   50.00000   90.00000   90.00000   90.00000
LATT -1
SFAC C  
C      1  0.4740850000000  0.4675790000000  0.5488650000000 1.0
C      1  0.5483940000000  0.5129190000000  0.5053100000000 1.0
C      1  0.5238120000000  0.4512050000000  0.4796380000000 1.0
C      1  0.5166190000000  0.5488930000000  0.5161630000000 1.0
C      1  0.5124740000000  0.4949610000000  0.5420120000000 1.0
C      1  0.5013190000000  0.4752640000000  0.4453420000000 1.0
C      1  0.4661830000000  0.5099940000000  0.5495180000000 1.0
C      1  0.4587360000000  0.4877060000000  0.5629650000000 1.0
C      1  0.4780900000000  0.5483770000000  0.4890610000000 1.0
C      1  0.5067040000000  0.5494120000000  0.4898250000000 1.0
C      1  0.4836700000000  0.4919450000000  0.5328300000000 1.0
C      1  0.5427010000000  0.4943960000000  0.4636260000000 1.0
C      1  0.4796430000000  0.5167130000000  0.4515510000000 1.0
C      1  0.5078830000000  0.5213660000000  0.4491580000000 1.0
C      1  0.4746460000000  0.4876800000000  0.4507020000000 1.0
C      1  0.5373810000000  0.5300200000000  0.5236830000000 1.0
C      1  0.5154150000000  0.4395190000000  0.5033740000000 1.0
C      1  0.5121030000000  0.4504650000000  0.5278270000000 1.0
C      1  0.4546220000000  0.4779310000000  0.4662520000000 1.0
C      1  0.5096290000000  0.4515970000000  0.4552910000000 1.0
C      1  0.4649310000000  0.5306030000000  0.4708400000000 1.0
C      1  0.5003990000000  0.4956900000000  0.4907070000000 1.0
C      1  0.5224400000000  0.5364910000000  0.4691760000000 1.0
C      1  0.4503930000000  0.5175520000000  0.4937720000000 1.0
C      1  0.4777710000000  0.4922290000000  0.5045320000000 1.0
C      1  0.5286580000000  0.4749450000000  0.5308410000000 1.0
C      1  0.5434380000000  0.4728810000000  0.4828210000000 1.0
C      1  0.4894510000000  0.4460620000000  0.5460460000000 1.0
C      1  0.5207120000000  0.5211750000000  0.5457530000000 1.0
C      1  0.5458300000000  0.4839710000000  0.5094640000000 1.0
C      1  0.4620080000000  0.5385350000000  0.5117240000000 1.0
C      1  0.4514450000000  0.4886000000000  0.4916130000000 1.0
C      1  0.5003440000000  0.5416300000000  0.5391040000000 1.0
C      1  0.5442510000000  0.5193990000000  0.4776170000000 1.0
C      1  0.4727140000000  0.5361390000000  0.5379650000000 1.0
C      1  0.5211050000000  0.4961560000000  0.4450310000000 1.0
END
