TITL C-111148-5706-1 102.943643941773 125000 -939.693066117414 0 0 134 (C1) n - 1
REM
REM in /rds/project/t2_vol4/rds-t2-cs072/BORA/CARBON/from-Arr/AIRSS/Generating-Clusters/GAP-ML-2020/Only-C1/SD-CG/HFTN-CG
REM
REM
REM
REM
REM
REM ./C.cell (11c1c37f851c82e70ff6c80c92926a4b)
REM AIRSS Version 0.9.1 bugfix July 2018 build 013d7b7c2542+ Fri, 06 Jul 2018 19:26:36 +0100
REM compiler GCC version 9.3.0
REM options -cpp -mtune=generic -march=x86-64 -g -O0
REM seed -1941388643 115049419 1503679006 -966191458 1524856154 -820121309 64187030 -1376804312 -848711662 1590662011 1948173007 1509473502 1848931865 824261772 -1153805766 -1180735342 1923678574 -2113382601 777066009 -1471062055 -822686933 -1972508675 2050813212 -433285453 536149600 -745886104 1057751730 -1114642653 -439916329 1575172577 941701432 1556929732 -2124358746
REM
CELL 1.54180   50.00000   50.00000   50.00000   90.00000   90.00000   90.00000
LATT -1
SFAC C  
C      1  0.4545560000000  0.4215650000000  0.4911610000000 1.0
C      1  0.4858390000000  0.4198940000000  0.5324650000000 1.0
C      1  0.5676760000000  0.5328810000000  0.4501650000000 1.0
C      1  0.4849630000000  0.4552750000000  0.4930120000000 1.0
C      1  0.4394860000000  0.4356830000000  0.5104860000000 1.0
C      1  0.4595740000000  0.4674690000000  0.5841420000000 1.0
C      1  0.5496720000000  0.4457150000000  0.5452130000000 1.0
C      1  0.4513130000000  0.4491150000000  0.4226370000000 1.0
C      1  0.4331200000000  0.5407810000000  0.4524850000000 1.0
C      1  0.5728500000000  0.4623580000000  0.5560330000000 1.0
C      1  0.4911490000000  0.4768550000000  0.5474350000000 1.0
C      1  0.4718930000000  0.5666380000000  0.4863290000000 1.0
C      1  0.5836640000000  0.5549260000000  0.5117940000000 1.0
C      1  0.5844650000000  0.4615750000000  0.5118670000000 1.0
C      1  0.4351810000000  0.4752340000000  0.5712940000000 1.0
C      1  0.4976420000000  0.4945430000000  0.5961340000000 1.0
C      1  0.5757790000000  0.5114770000000  0.5434960000000 1.0
C      1  0.5381180000000  0.4706760000000  0.5258240000000 1.0
C      1  0.5946180000000  0.4621910000000  0.5381910000000 1.0
C      1  0.3888510000000  0.4812400000000  0.4912850000000 1.0
C      1  0.4299820000000  0.4634290000000  0.4335260000000 1.0
C      1  0.4968960000000  0.5565800000000  0.5785610000000 1.0
C      1  0.4981770000000  0.4598270000000  0.4115260000000 1.0
C      1  0.5139260000000  0.4576790000000  0.4851290000000 1.0
C      1  0.5059470000000  0.5091760000000  0.4034420000000 1.0
C      1  0.4434920000000  0.4386560000000  0.5387810000000 1.0
C      1  0.5468490000000  0.5217420000000  0.4976450000000 1.0
C      1  0.5055260000000  0.4356250000000  0.4281770000000 1.0
C      1  0.4992390000000  0.5174000000000  0.5786840000000 1.0
C      1  0.4694230000000  0.4978730000000  0.5195580000000 1.0
C      1  0.5153520000000  0.4782230000000  0.5102330000000 1.0
C      1  0.5273810000000  0.4318520000000  0.4755560000000 1.0
C      1  0.5506860000000  0.5803670000000  0.5331220000000 1.0
C      1  0.5595310000000  0.4791050000000  0.5096860000000 1.0
C      1  0.5553770000000  0.4741900000000  0.4797500000000 1.0
C      1  0.4611540000000  0.5677300000000  0.5390910000000 1.0
C      1  0.4839640000000  0.4229300000000  0.5022990000000 1.0
C      1  0.5312880000000  0.5590350000000  0.4663780000000 1.0
C      1  0.4430650000000  0.4281580000000  0.4644440000000 1.0
C      1  0.3987160000000  0.5183410000000  0.5241080000000 1.0
C      1  0.5547560000000  0.4267720000000  0.5221860000000 1.0
C      1  0.5420090000000  0.4964910000000  0.5753640000000 1.0
C      1  0.5254580000000  0.4363360000000  0.5592810000000 1.0
C      1  0.3948310000000  0.4900640000000  0.5181000000000 1.0
C      1  0.6050800000000  0.4820500000000  0.5217200000000 1.0
C      1  0.4851100000000  0.5203960000000  0.5307110000000 1.0
C      1  0.4956950000000  0.5793370000000  0.5065720000000 1.0
C      1  0.3985340000000  0.5052520000000  0.4804100000000 1.0
C      1  0.4739890000000  0.5352690000000  0.5768760000000 1.0
C      1  0.4584360000000  0.4268050000000  0.4396210000000 1.0
C      1  0.5174160000000  0.5851950000000  0.4670710000000 1.0
C      1  0.5296760000000  0.4136820000000  0.5181780000000 1.0
C      1  0.4705930000000  0.4667390000000  0.4104670000000 1.0
C      1  0.4430490000000  0.5622440000000  0.4957680000000 1.0
C      1  0.5164030000000  0.5556450000000  0.5126910000000 1.0
C      1  0.5191480000000  0.4778750000000  0.5872540000000 1.0
C      1  0.5467810000000  0.5914140000000  0.5072000000000 1.0
C      1  0.5022070000000  0.5048370000000  0.5505020000000 1.0
C      1  0.5208420000000  0.5375300000000  0.5822020000000 1.0
C      1  0.5292680000000  0.5263490000000  0.4060280000000 1.0
C      1  0.4265190000000  0.5142470000000  0.4427760000000 1.0
C      1  0.5317720000000  0.5101940000000  0.5481780000000 1.0
C      1  0.5023980000000  0.5722920000000  0.5553650000000 1.0
C      1  0.5678250000000  0.5386780000000  0.5566440000000 1.0
C      1  0.5277450000000  0.4753410000000  0.4667540000000 1.0
C      1  0.5764550000000  0.4877060000000  0.4409360000000 1.0
C      1  0.5284570000000  0.4321450000000  0.4453430000000 1.0
C      1  0.4546520000000  0.5135550000000  0.5859490000000 1.0
C      1  0.4565610000000  0.5546760000000  0.4418190000000 1.0
C      1  0.4043970000000  0.5290040000000  0.4960890000000 1.0
C      1  0.5918780000000  0.5292580000000  0.5013730000000 1.0
C      1  0.5478960000000  0.5519480000000  0.4431110000000 1.0
C      1  0.5729890000000  0.5195370000000  0.4777580000000 1.0
C      1  0.5436440000000  0.4815140000000  0.4105670000000 1.0
C      1  0.5543010000000  0.4434320000000  0.4450790000000 1.0
C      1  0.5975280000000  0.5093030000000  0.5223530000000 1.0
C      1  0.4528560000000  0.5032160000000  0.4953590000000 1.0
C      1  0.5129510000000  0.4186050000000  0.5408270000000 1.0
C      1  0.4611240000000  0.4939260000000  0.4116690000000 1.0
C      1  0.4702250000000  0.5160430000000  0.4761160000000 1.0
C      1  0.4242190000000  0.5468950000000  0.4808790000000 1.0
C      1  0.4833310000000  0.4941450000000  0.4641620000000 1.0
C      1  0.5189010000000  0.5936640000000  0.4944680000000 1.0
C      1  0.4210820000000  0.4478390000000  0.4586320000000 1.0
C      1  0.5718010000000  0.4372950000000  0.5010000000000 1.0
C      1  0.4838170000000  0.4201120000000  0.4340720000000 1.0
C      1  0.5153810000000  0.5171050000000  0.4491150000000 1.0
C      1  0.5624480000000  0.5695940000000  0.4978560000000 1.0
C      1  0.5154180000000  0.4814110000000  0.4054190000000 1.0
C      1  0.5122210000000  0.4982130000000  0.4674500000000 1.0
C      1  0.5064960000000  0.5420960000000  0.4588050000000 1.0
C      1  0.5513920000000  0.5089570000000  0.4103810000000 1.0
C      1  0.5676940000000  0.4887100000000  0.5634010000000 1.0
C      1  0.4798620000000  0.4531630000000  0.5682950000000 1.0
C      1  0.5269250000000  0.5639090000000  0.5408970000000 1.0
C      1  0.4265790000000  0.4602480000000  0.5009380000000 1.0
C      1  0.5608220000000  0.4667340000000  0.4294980000000 1.0
C      1  0.4044620000000  0.4570270000000  0.4817870000000 1.0
C      1  0.5759280000000  0.4915960000000  0.4682050000000 1.0
C      1  0.5528210000000  0.5066590000000  0.5241180000000 1.0
C      1  0.4284170000000  0.4611650000000  0.5481450000000 1.0
C      1  0.5016990000000  0.5304280000000  0.5073720000000 1.0
C      1  0.4863830000000  0.5388450000000  0.4822230000000 1.0
C      1  0.5688280000000  0.5361350000000  0.5855740000000 1.0
C      1  0.4311440000000  0.5042330000000  0.5710240000000 1.0
C      1  0.4789450000000  0.5171920000000  0.4100960000000 1.0
C      1  0.5197710000000  0.5076800000000  0.4966520000000 1.0
C      1  0.5733250000000  0.5615990000000  0.5374580000000 1.0
C      1  0.4696580000000  0.4905280000000  0.5960160000000 1.0
C      1  0.5574950000000  0.4437680000000  0.4762320000000 1.0
C      1  0.5367320000000  0.5396080000000  0.5557920000000 1.0
C      1  0.5401580000000  0.5508860000000  0.4938390000000 1.0
C      1  0.5093520000000  0.4536770000000  0.5753140000000 1.0
C      1  0.4425350000000  0.4799540000000  0.4811560000000 1.0
C      1  0.4843600000000  0.5816970000000  0.5346760000000 1.0
C      1  0.4761010000000  0.5433880000000  0.4230910000000 1.0
C      1  0.4391770000000  0.5592290000000  0.5231780000000 1.0
C      1  0.4374270000000  0.5322370000000  0.5366960000000 1.0
C      1  0.4212620000000  0.4779550000000  0.5249560000000 1.0
C      1  0.4682860000000  0.4321750000000  0.5505320000000 1.0
C      1  0.4191080000000  0.4972650000000  0.4635150000000 1.0
C      1  0.4411990000000  0.5037470000000  0.5216710000000 1.0
C      1  0.5708450000000  0.5131140000000  0.4300640000000 1.0
C      1  0.4359680000000  0.4925890000000  0.4258400000000 1.0
C      1  0.4870000000000  0.4744640000000  0.5188820000000 1.0
C      1  0.4653590000000  0.5393870000000  0.5483460000000 1.0
C      1  0.4156400000000  0.5208420000000  0.5508520000000 1.0
C      1  0.4694990000000  0.4700090000000  0.4719220000000 1.0
C      1  0.5013050000000  0.5576740000000  0.4311710000000 1.0
C      1  0.5457360000000  0.5228510000000  0.5931460000000 1.0
C      1  0.5132630000000  0.4142040000000  0.4951590000000 1.0
C      1  0.4698750000000  0.5753290000000  0.4577710000000 1.0
C      1  0.4958570000000  0.5816770000000  0.4480060000000 1.0
C      1  0.5288590000000  0.5501880000000  0.4208370000000 1.0
END
