TITL C-112725-736-8 -185.186173501922 125000 -853.778144356142 0 0 122 (C1) n - 1
REM
REM in /rds/project/t2_vol4/rds-t2-cs072/BORA/CARBON/from-Arr/AIRSS/Generating-Clusters/GAP-ML-2020/Only-C1/SD-CG/HFTN-CG
REM
REM
REM
REM
REM
REM ./C.cell (11c1c37f851c82e70ff6c80c92926a4b)
REM AIRSS Version 0.9.1 bugfix July 2018 build 013d7b7c2542+ Fri, 06 Jul 2018 19:26:36 +0100
REM compiler GCC version 9.3.0
REM options -cpp -mtune=generic -march=x86-64 -g -O0
REM seed 204070463 -1513032842 -491061789 -155167618 773306840 -1695129538 -1323330822 1001830223 -1038401075 1734218962 1180498232 1218465204 -1076083205 2085415189 -578410511 997920029 215353380 260874018 -1904965296 -1556997362 1809428742 351535079 -1755834329 1561591949 801948635 1875902272 1653158326 1819731494 -1086806242 -46456882 1868731095 -203442044 536103207
REM
CELL 1.54180   50.00000   50.00000   50.00000   90.00000   90.00000   90.00000
LATT -1
SFAC C  
C      1  0.5115460000000  0.4099570000000  0.4959170000000 1.0
C      1  0.4992620000000  0.4643880000000  0.4942010000000 1.0
C      1  0.5076540000000  0.4743170000000  0.5923310000000 1.0
C      1  0.5394560000000  0.5867120000000  0.4779310000000 1.0
C      1  0.4915060000000  0.5306660000000  0.5354610000000 1.0
C      1  0.4333630000000  0.4455220000000  0.5445990000000 1.0
C      1  0.4985720000000  0.5138480000000  0.3969410000000 1.0
C      1  0.5163460000000  0.5225880000000  0.5878290000000 1.0
C      1  0.5867500000000  0.4890450000000  0.4706200000000 1.0
C      1  0.5165690000000  0.5178780000000  0.5306240000000 1.0
C      1  0.5595360000000  0.5142100000000  0.4980190000000 1.0
C      1  0.5839040000000  0.4967070000000  0.5360490000000 1.0
C      1  0.4146170000000  0.4659700000000  0.5367320000000 1.0
C      1  0.5006070000000  0.5388240000000  0.4108920000000 1.0
C      1  0.5624790000000  0.5124080000000  0.4306120000000 1.0
C      1  0.5747910000000  0.5558950000000  0.4811440000000 1.0
C      1  0.5210840000000  0.4881420000000  0.5410130000000 1.0
C      1  0.5296620000000  0.5599030000000  0.4379300000000 1.0
C      1  0.5012480000000  0.4652900000000  0.5472570000000 1.0
C      1  0.5258620000000  0.5643440000000  0.5624300000000 1.0
C      1  0.4665830000000  0.5052220000000  0.5941770000000 1.0
C      1  0.4527730000000  0.4854110000000  0.4999260000000 1.0
C      1  0.5487990000000  0.5197470000000  0.4542820000000 1.0
C      1  0.5228910000000  0.5440450000000  0.4840630000000 1.0
C      1  0.4574630000000  0.5022250000000  0.5225840000000 1.0
C      1  0.4020600000000  0.5055030000000  0.5172740000000 1.0
C      1  0.4092930000000  0.4596730000000  0.5092980000000 1.0
C      1  0.5380420000000  0.4582640000000  0.4181340000000 1.0
C      1  0.4293100000000  0.4396950000000  0.4974240000000 1.0
C      1  0.4670440000000  0.5848230000000  0.5271770000000 1.0
C      1  0.5841070000000  0.4670380000000  0.4904100000000 1.0
C      1  0.4956590000000  0.4266460000000  0.5725960000000 1.0
C      1  0.5091590000000  0.4501020000000  0.5735580000000 1.0
C      1  0.4520750000000  0.4571310000000  0.4878860000000 1.0
C      1  0.5877810000000  0.5127570000000  0.4861790000000 1.0
C      1  0.4151080000000  0.5242070000000  0.4993010000000 1.0
C      1  0.4049930000000  0.4841650000000  0.4972010000000 1.0
C      1  0.5446910000000  0.4939740000000  0.5634310000000 1.0
C      1  0.4916820000000  0.4430770000000  0.4196810000000 1.0
C      1  0.4779290000000  0.4927370000000  0.4006750000000 1.0
C      1  0.5238370000000  0.4740520000000  0.4766380000000 1.0
C      1  0.5156540000000  0.5818550000000  0.5217500000000 1.0
C      1  0.4850250000000  0.5460260000000  0.4380490000000 1.0
C      1  0.4559420000000  0.4475390000000  0.5620250000000 1.0
C      1  0.4978210000000  0.5711380000000  0.5637650000000 1.0
C      1  0.4513040000000  0.5565490000000  0.5659320000000 1.0
C      1  0.5375280000000  0.5731440000000  0.5369120000000 1.0
C      1  0.5567050000000  0.4647620000000  0.4389410000000 1.0
C      1  0.4731600000000  0.5254900000000  0.5143750000000 1.0
C      1  0.4289110000000  0.5388830000000  0.5566910000000 1.0
C      1  0.4273260000000  0.4993020000000  0.4836510000000 1.0
C      1  0.4927310000000  0.5843410000000  0.5386040000000 1.0
C      1  0.4777090000000  0.5547290000000  0.5771790000000 1.0
C      1  0.5057850000000  0.4501650000000  0.5215200000000 1.0
C      1  0.4519140000000  0.5589420000000  0.4614320000000 1.0
C      1  0.5219830000000  0.4742680000000  0.4003860000000 1.0
C      1  0.4082300000000  0.4946470000000  0.5432750000000 1.0
C      1  0.4808130000000  0.4813240000000  0.5884870000000 1.0
C      1  0.5572200000000  0.4272250000000  0.5061000000000 1.0
C      1  0.4624220000000  0.4969180000000  0.5508850000000 1.0
C      1  0.4676550000000  0.4184510000000  0.5295820000000 1.0
C      1  0.4412310000000  0.4285820000000  0.5233810000000 1.0
C      1  0.4886160000000  0.5161810000000  0.4927670000000 1.0
C      1  0.4238700000000  0.5505370000000  0.5043320000000 1.0
C      1  0.5393430000000  0.5804620000000  0.4513170000000 1.0
C      1  0.4839880000000  0.4263100000000  0.4636000000000 1.0
C      1  0.4877230000000  0.5789910000000  0.4824480000000 1.0
C      1  0.5152230000000  0.5751710000000  0.4928310000000 1.0
C      1  0.5083380000000  0.4889460000000  0.4556500000000 1.0
C      1  0.4895300000000  0.4256280000000  0.5111220000000 1.0
C      1  0.5797920000000  0.5460900000000  0.5196620000000 1.0
C      1  0.5265390000000  0.4954150000000  0.5877290000000 1.0
C      1  0.5357580000000  0.4945710000000  0.4956390000000 1.0
C      1  0.5519420000000  0.5362210000000  0.4783420000000 1.0
C      1  0.5935450000000  0.5403390000000  0.4946050000000 1.0
C      1  0.5586950000000  0.4387150000000  0.5326240000000 1.0
C      1  0.4733530000000  0.4715960000000  0.5607870000000 1.0
C      1  0.4471840000000  0.5730480000000  0.5425920000000 1.0
C      1  0.5380790000000  0.4788740000000  0.5196680000000 1.0
C      1  0.5331560000000  0.5390880000000  0.5714350000000 1.0
C      1  0.5776370000000  0.4569830000000  0.5409080000000 1.0
C      1  0.4808900000000  0.4847510000000  0.4609800000000 1.0
C      1  0.4647400000000  0.5802660000000  0.4992320000000 1.0
C      1  0.5672430000000  0.5209470000000  0.5289770000000 1.0
C      1  0.4300420000000  0.4309090000000  0.4693670000000 1.0
C      1  0.5721140000000  0.4887960000000  0.4444670000000 1.0
C      1  0.4438600000000  0.5117800000000  0.4358630000000 1.0
C      1  0.4496560000000  0.4676750000000  0.4587950000000 1.0
C      1  0.5711800000000  0.4809840000000  0.5566040000000 1.0
C      1  0.5456470000000  0.4511520000000  0.4640160000000 1.0
C      1  0.4725880000000  0.4242100000000  0.5577510000000 1.0
C      1  0.4564240000000  0.5376340000000  0.4423520000000 1.0
C      1  0.4939560000000  0.4672650000000  0.4029750000000 1.0
C      1  0.5104220000000  0.5409530000000  0.4552330000000 1.0
C      1  0.4447720000000  0.4402930000000  0.4472210000000 1.0
C      1  0.4786670000000  0.5694060000000  0.4574070000000 1.0
C      1  0.5610990000000  0.5687140000000  0.5206380000000 1.0
C      1  0.5888610000000  0.4727950000000  0.5189370000000 1.0
C      1  0.5281340000000  0.4290680000000  0.4524280000000 1.0
C      1  0.5350090000000  0.4510130000000  0.5234040000000 1.0
C      1  0.5444300000000  0.5199250000000  0.4087520000000 1.0
C      1  0.5095840000000  0.4150920000000  0.4681290000000 1.0
C      1  0.4427280000000  0.5654220000000  0.4877770000000 1.0
C      1  0.5252350000000  0.5021420000000  0.3961870000000 1.0
C      1  0.5373180000000  0.4081460000000  0.5027300000000 1.0
C      1  0.4787240000000  0.4422890000000  0.4872980000000 1.0
C      1  0.5288730000000  0.5448310000000  0.4132930000000 1.0
C      1  0.4200710000000  0.5122570000000  0.5642000000000 1.0
C      1  0.4444010000000  0.5034710000000  0.5754200000000 1.0
C      1  0.5170100000000  0.5191380000000  0.5001060000000 1.0
C      1  0.5624040000000  0.5789370000000  0.4934390000000 1.0
C      1  0.5201710000000  0.5139660000000  0.4500010000000 1.0
C      1  0.4348680000000  0.4930940000000  0.4560770000000 1.0
C      1  0.4266780000000  0.5557120000000  0.5323600000000 1.0
C      1  0.5666310000000  0.4453970000000  0.4846200000000 1.0
C      1  0.5443360000000  0.5217090000000  0.5497010000000 1.0
C      1  0.4861530000000  0.5272610000000  0.5856600000000 1.0
C      1  0.5195570000000  0.4379470000000  0.4271860000000 1.0
C      1  0.4804680000000  0.4888210000000  0.4891430000000 1.0
C      1  0.4720530000000  0.4327750000000  0.4388010000000 1.0
C      1  0.4818850000000  0.5175790000000  0.5573870000000 1.0
C      1  0.4556450000000  0.5009320000000  0.4136770000000 1.0
END
