TITL C-111142-5549-6 4.93684429118908 125000 -412.567919134929 0 0 60 (C1) n - 1
REM
REM in /rds/project/t2_vol4/rds-t2-cs072/BORA/CARBON/from-Arr/AIRSS/Generating-Clusters/GAP-ML-2020/Only-C1/SD-CG/HFTN-CG
REM
REM
REM
REM
REM
REM ./C.cell (11c1c37f851c82e70ff6c80c92926a4b)
REM AIRSS Version 0.9.1 bugfix July 2018 build 013d7b7c2542+ Fri, 06 Jul 2018 19:26:36 +0100
REM compiler GCC version 9.3.0
REM options -cpp -mtune=generic -march=x86-64 -g -O0
REM seed 2135438433 -1105051731 88189479 387861419 1179751560 870081392 -2009390360 -2122402925 -1298569943 702054643 644217632 -833965904 -1665532409 520501208 -1451214460 271150483 -627259769 -1436099215 494828982 1077215362 -1052452879 -716876399 -864303168 -1741071040 360088727 -1645914010 -1429391137 2120549846 592197716 -1516302964 -79314851 -61457802 1944506279
REM
CELL 1.54180   50.00000   50.00000   50.00000   90.00000   90.00000   90.00000
LATT -1
SFAC C  
C      1  0.4832350000000  0.5696010000000  0.5015890000000 1.0
C      1  0.4784030000000  0.4445880000000  0.4575250000000 1.0
C      1  0.4645280000000  0.4541860000000  0.5338860000000 1.0
C      1  0.5615220000000  0.5565810000000  0.4662030000000 1.0
C      1  0.5661520000000  0.4253570000000  0.5186320000000 1.0
C      1  0.4295870000000  0.5303420000000  0.4406810000000 1.0
C      1  0.5281630000000  0.5054660000000  0.5648510000000 1.0
C      1  0.5234160000000  0.5582090000000  0.5162840000000 1.0
C      1  0.4604520000000  0.4314330000000  0.4774490000000 1.0
C      1  0.5497580000000  0.5474300000000  0.5137540000000 1.0
C      1  0.5080300000000  0.5646200000000  0.4922530000000 1.0
C      1  0.5463190000000  0.4867980000000  0.5531510000000 1.0
C      1  0.4365210000000  0.5433180000000  0.4630070000000 1.0
C      1  0.4950130000000  0.5118890000000  0.4383490000000 1.0
C      1  0.5385740000000  0.5453090000000  0.4559900000000 1.0
C      1  0.4940800000000  0.4715060000000  0.5650270000000 1.0
C      1  0.5318130000000  0.4534080000000  0.4696010000000 1.0
C      1  0.5110980000000  0.5482670000000  0.5417420000000 1.0
C      1  0.5323230000000  0.4849840000000  0.5044030000000 1.0
C      1  0.5409320000000  0.5183630000000  0.4426920000000 1.0
C      1  0.4392070000000  0.4906060000000  0.5115550000000 1.0
C      1  0.4611610000000  0.4657450000000  0.4481320000000 1.0
C      1  0.5648190000000  0.5111450000000  0.4842320000000 1.0
C      1  0.4810150000000  0.5156770000000  0.5632590000000 1.0
C      1  0.5371780000000  0.4597360000000  0.5466950000000 1.0
C      1  0.5091560000000  0.4537590000000  0.5491010000000 1.0
C      1  0.5304030000000  0.4567280000000  0.5006050000000 1.0
C      1  0.5061850000000  0.4965480000000  0.5036190000000 1.0
C      1  0.4877720000000  0.4780000000000  0.4931210000000 1.0
C      1  0.4691610000000  0.4944380000000  0.4437260000000 1.0
C      1  0.4452970000000  0.4623660000000  0.5149480000000 1.0
C      1  0.4599590000000  0.5571730000000  0.5075920000000 1.0
C      1  0.5540460000000  0.5303400000000  0.5359930000000 1.0
C      1  0.5126770000000  0.5514120000000  0.4658210000000 1.0
C      1  0.4447230000000  0.4499840000000  0.4891970000000 1.0
C      1  0.5019960000000  0.4981190000000  0.5712860000000 1.0
C      1  0.5484120000000  0.4442360000000  0.5228080000000 1.0
C      1  0.4669760000000  0.4721030000000  0.5555250000000 1.0
C      1  0.5591280000000  0.4954840000000  0.5067470000000 1.0
C      1  0.4837090000000  0.5392840000000  0.5477010000000 1.0
C      1  0.5551190000000  0.4991590000000  0.4589380000000 1.0
C      1  0.4413240000000  0.4908310000000  0.4825970000000 1.0
C      1  0.5473690000000  0.4721570000000  0.4584210000000 1.0
C      1  0.5315220000000  0.5319140000000  0.5535250000000 1.0
C      1  0.5041600000000  0.4432470000000  0.4701640000000 1.0
C      1  0.4763470000000  0.5233990000000  0.4803060000000 1.0
C      1  0.5620780000000  0.5397430000000  0.4881750000000 1.0
C      1  0.5006320000000  0.4506490000000  0.4999340000000 1.0
C      1  0.4594860000000  0.4994120000000  0.5531650000000 1.0
C      1  0.4933000000000  0.5323370000000  0.4584690000000 1.0
C      1  0.4957960000000  0.5216390000000  0.5027420000000 1.0
C      1  0.4536580000000  0.5426820000000  0.4833720000000 1.0
C      1  0.4693080000000  0.4953270000000  0.4749580000000 1.0
C      1  0.4914750000000  0.4439850000000  0.5274570000000 1.0
C      1  0.4392970000000  0.4668470000000  0.4678680000000 1.0
C      1  0.5194600000000  0.5088190000000  0.4280320000000 1.0
C      1  0.4475650000000  0.5109760000000  0.5301430000000 1.0
C      1  0.5618000000000  0.5031240000000  0.5338410000000 1.0
C      1  0.4606930000000  0.5383420000000  0.5296100000000 1.0
C      1  0.4467110000000  0.5108710000000  0.4395540000000 1.0
END
