TITL C-111161-5865-2 -3.68549146134458 125000 -110.711526827759 0 0 17 (C1) n - 1
REM
REM in /rds/project/t2_vol4/rds-t2-cs072/BORA/CARBON/from-Arr/AIRSS/Generating-Clusters/GAP-ML-2020/Only-C1/SD-CG/HFTN-CG
REM
REM
REM
REM
REM
REM ./C.cell (11c1c37f851c82e70ff6c80c92926a4b)
REM AIRSS Version 0.9.1 bugfix July 2018 build 013d7b7c2542+ Fri, 06 Jul 2018 19:26:36 +0100
REM compiler GCC version 9.3.0
REM options -cpp -mtune=generic -march=x86-64 -g -O0
REM seed -1351942005 765554270 -539976408 -2017843110 2066384768 -1914076167 -1174708518 -70538194 -1696903362 -347790291 625881658 -1847179505 -1144038431 -954424891 1781842766 1045736398 1408517216 -347061186 -14887990 230083937 440118690 -575481394 -555899262 -1844396154 2113955145 281217132 595726846 1885828347 -1223546002 -1029720175 1689547057 268017541 -1266807908
REM
CELL 1.54180   50.00000   50.00000   50.00000   90.00000   90.00000   90.00000
LATT -1
SFAC C  
C      1  0.5300520000000  0.5152270000000  0.5510430000000 1.0
C      1  0.5460900000000  0.4972200000000  0.5432650000000 1.0
C      1  0.4905500000000  0.5414810000000  0.5412480000000 1.0
C      1  0.4785100000000  0.5077680000000  0.4550500000000 1.0
C      1  0.4983680000000  0.4890240000000  0.4245910000000 1.0
C      1  0.5508260000000  0.4771300000000  0.5265330000000 1.0
C      1  0.4749540000000  0.5428930000000  0.5208380000000 1.0
C      1  0.5110360000000  0.5328680000000  0.5546500000000 1.0
C      1  0.4990000000000  0.4865740000000  0.4531710000000 1.0
C      1  0.4700330000000  0.5228520000000  0.4751440000000 1.0
C      1  0.5088450000000  0.4703570000000  0.4717450000000 1.0
C      1  0.5333990000000  0.4667920000000  0.5109720000000 1.0
C      1  0.5080370000000  0.4657190000000  0.4992860000000 1.0
C      1  0.4681140000000  0.5356770000000  0.4969570000000 1.0
C      1  0.4787850000000  0.5070900000000  0.4262980000000 1.0
C      1  0.4850450000000  0.4683530000000  0.5154950000000 1.0
C      1  0.4683550000000  0.4729730000000  0.5337150000000 1.0
END
