TITL C-119473-4652-6 -0.141920582793528 125000 -453.786740780006 0 0 66 (C1) n - 1
REM
REM in /rds/project/t2_vol4/rds-t2-cs072/BORA/CARBON/from-Arr/AIRSS/Generating-Clusters/GAP-ML-2020/Only-C1/SD-CG/HFTN-CG
REM
REM
REM
REM
REM
REM ./C.cell (11c1c37f851c82e70ff6c80c92926a4b)
REM AIRSS Version 0.9.1 bugfix July 2018 build 013d7b7c2542+ Fri, 06 Jul 2018 19:26:36 +0100
REM compiler GCC version 9.3.0
REM options -cpp -mtune=generic -march=x86-64 -g -O0
REM seed -1378912697 215030479 -2086644835 2114302619 107938585 1293822798 -1069343630 745735541 1272966689 266838080 835867713 -471005513 -474659225 286427822 -935914141 1234905250 2018388867 1549219867 -456771171 1917609058 -1544064418 -603102154 1379672518 -1013704071 50780758 -832153240 -868727258 1093288054 -1008713734 -1312032958 -937482964 -665514167 -1867241805
REM
CELL 1.54180   50.00000   50.00000   50.00000   90.00000   90.00000   90.00000
LATT -1
SFAC C  
C      1  0.5472060000000  0.5317870000000  0.4427150000000 1.0
C      1  0.5014440000000  0.4919380000000  0.5146870000000 1.0
C      1  0.4824950000000  0.5267490000000  0.4916070000000 1.0
C      1  0.4695520000000  0.5092010000000  0.5624210000000 1.0
C      1  0.5155940000000  0.4424240000000  0.5510370000000 1.0
C      1  0.5048790000000  0.4522090000000  0.4514140000000 1.0
C      1  0.5390950000000  0.5134310000000  0.5644540000000 1.0
C      1  0.5283790000000  0.5178210000000  0.4827020000000 1.0
C      1  0.5070930000000  0.4604950000000  0.5725360000000 1.0
C      1  0.4486600000000  0.4795940000000  0.5308760000000 1.0
C      1  0.4685450000000  0.4728010000000  0.4324770000000 1.0
C      1  0.4936100000000  0.5706200000000  0.5058450000000 1.0
C      1  0.5394600000000  0.4485820000000  0.5376620000000 1.0
C      1  0.5210160000000  0.4371000000000  0.4911110000000 1.0
C      1  0.5347860000000  0.5528160000000  0.4576420000000 1.0
C      1  0.4380420000000  0.5507760000000  0.5122120000000 1.0
C      1  0.4246500000000  0.5271250000000  0.5188710000000 1.0
C      1  0.4953900000000  0.4855040000000  0.4879720000000 1.0
C      1  0.4561230000000  0.5089440000000  0.4879800000000 1.0
C      1  0.5621910000000  0.4868070000000  0.5204190000000 1.0
C      1  0.4628890000000  0.4814420000000  0.5556330000000 1.0
C      1  0.5816650000000  0.5284550000000  0.4775970000000 1.0
C      1  0.4915190000000  0.4350440000000  0.4923090000000 1.0
C      1  0.5168420000000  0.5377380000000  0.5283120000000 1.0
C      1  0.4506790000000  0.4553340000000  0.5155040000000 1.0
C      1  0.5287770000000  0.4500190000000  0.4663860000000 1.0
C      1  0.5237930000000  0.4794650000000  0.5832170000000 1.0
C      1  0.4678910000000  0.4842580000000  0.4793590000000 1.0
C      1  0.4933890000000  0.5199820000000  0.5199200000000 1.0
C      1  0.5602350000000  0.5164110000000  0.5207700000000 1.0
C      1  0.4799830000000  0.4602560000000  0.5618370000000 1.0
C      1  0.4672970000000  0.5236880000000  0.5365080000000 1.0
C      1  0.4658600000000  0.5357950000000  0.4474820000000 1.0
C      1  0.4333580000000  0.4520670000000  0.4940090000000 1.0
C      1  0.4454700000000  0.5068530000000  0.5180150000000 1.0
C      1  0.5024320000000  0.5111000000000  0.4737630000000 1.0
C      1  0.4466330000000  0.5305270000000  0.4685220000000 1.0
C      1  0.5194030000000  0.5575520000000  0.5078750000000 1.0
C      1  0.5495070000000  0.4697430000000  0.4700340000000 1.0
C      1  0.4828110000000  0.4430320000000  0.4664800000000 1.0
C      1  0.5378380000000  0.5472630000000  0.4878990000000 1.0
C      1  0.5646580000000  0.5345810000000  0.4984650000000 1.0
C      1  0.4594840000000  0.4614340000000  0.4593080000000 1.0
C      1  0.4473930000000  0.5542720000000  0.4858930000000 1.0
C      1  0.5149170000000  0.5084000000000  0.5812270000000 1.0
C      1  0.4326330000000  0.4527980000000  0.4681580000000 1.0
C      1  0.4599200000000  0.5521660000000  0.5315470000000 1.0
C      1  0.4883600000000  0.4412190000000  0.5408400000000 1.0
C      1  0.4770890000000  0.5570790000000  0.4848900000000 1.0
C      1  0.4775770000000  0.5726540000000  0.5280590000000 1.0
C      1  0.4896150000000  0.5149630000000  0.5799140000000 1.0
C      1  0.4759420000000  0.4394680000000  0.5161190000000 1.0
C      1  0.5037290000000  0.5030720000000  0.4411500000000 1.0
C      1  0.5561250000000  0.4679230000000  0.4985160000000 1.0
C      1  0.5542910000000  0.4725580000000  0.5441920000000 1.0
C      1  0.4614070000000  0.4956350000000  0.4185670000000 1.0
C      1  0.4764410000000  0.5156790000000  0.4302290000000 1.0
C      1  0.5096940000000  0.5594100000000  0.4495750000000 1.0
C      1  0.5411350000000  0.4454590000000  0.5094610000000 1.0
C      1  0.5477590000000  0.4859890000000  0.5674260000000 1.0
C      1  0.5674270000000  0.5171520000000  0.4577050000000 1.0
C      1  0.4841100000000  0.5565160000000  0.4563340000000 1.0
C      1  0.5329720000000  0.5071920000000  0.4365400000000 1.0
C      1  0.5530950000000  0.4917470000000  0.4521470000000 1.0
C      1  0.4971270000000  0.4741180000000  0.4362230000000 1.0
C      1  0.5406170000000  0.5257680000000  0.5394420000000 1.0
END
