TITL C-111157-5680-8 0.895564547353252 125000 -584.797375676742 0 0 86 (C1) n - 1
REM
REM in /rds/project/t2_vol4/rds-t2-cs072/BORA/CARBON/from-Arr/AIRSS/Generating-Clusters/GAP-ML-2020/Only-C1/SD-CG/HFTN-CG
REM
REM
REM
REM
REM
REM ./C.cell (11c1c37f851c82e70ff6c80c92926a4b)
REM AIRSS Version 0.9.1 bugfix July 2018 build 013d7b7c2542+ Fri, 06 Jul 2018 19:26:36 +0100
REM compiler GCC version 9.3.0
REM options -cpp -mtune=generic -march=x86-64 -g -O0
REM seed -1313774233 712875374 -907190759 -575126368 657195914 -1428451032 121598564 -784438562 176134331 1454107547 -891584333 2056321815 1733182317 -1059889613 2104308817 737183083 1567814465 1764970294 1080045983 1293131281 -1983879493 -1317350014 1936727564 1956727366 1455329344 -710674241 318682333 1396540348 -1107464973 627108012 316559273 -1125242858 -614095715
REM
CELL 1.54180   50.00000   50.00000   50.00000   90.00000   90.00000   90.00000
LATT -1
SFAC C  
C      1  0.5609000000000  0.5320910000000  0.5111610000000 1.0
C      1  0.5346340000000  0.5108580000000  0.5711550000000 1.0
C      1  0.5687600000000  0.4671820000000  0.4666630000000 1.0
C      1  0.4681690000000  0.5297980000000  0.4351950000000 1.0
C      1  0.5114940000000  0.5524700000000  0.4333780000000 1.0
C      1  0.5729310000000  0.5161390000000  0.4874360000000 1.0
C      1  0.5627730000000  0.4533070000000  0.5123820000000 1.0
C      1  0.5210800000000  0.5174890000000  0.4866500000000 1.0
C      1  0.4881600000000  0.4612610000000  0.5276470000000 1.0
C      1  0.5497960000000  0.4352000000000  0.5306870000000 1.0
C      1  0.5414040000000  0.4935410000000  0.5285840000000 1.0
C      1  0.4405530000000  0.5237680000000  0.4806390000000 1.0
C      1  0.4861000000000  0.4413790000000  0.4757950000000 1.0
C      1  0.5318520000000  0.5079190000000  0.4230840000000 1.0
C      1  0.5376530000000  0.5700230000000  0.4782440000000 1.0
C      1  0.5590560000000  0.5430500000000  0.4458880000000 1.0
C      1  0.5196600000000  0.4857170000000  0.4418980000000 1.0
C      1  0.4595390000000  0.5210440000000  0.5619280000000 1.0
C      1  0.5084940000000  0.4384650000000  0.5607660000000 1.0
C      1  0.4401280000000  0.4360770000000  0.4884340000000 1.0
C      1  0.4519040000000  0.4630090000000  0.4457720000000 1.0
C      1  0.4939210000000  0.5250620000000  0.4859140000000 1.0
C      1  0.5828430000000  0.4741660000000  0.5247190000000 1.0
C      1  0.4329220000000  0.4549020000000  0.4649180000000 1.0
C      1  0.4841580000000  0.5505120000000  0.4716580000000 1.0
C      1  0.4658000000000  0.4256170000000  0.5433290000000 1.0
C      1  0.4569370000000  0.4529920000000  0.5361710000000 1.0
C      1  0.5088840000000  0.5162490000000  0.5605400000000 1.0
C      1  0.5030800000000  0.4678590000000  0.5549410000000 1.0
C      1  0.5329220000000  0.5200640000000  0.5154760000000 1.0
C      1  0.4459120000000  0.4774080000000  0.4961990000000 1.0
C      1  0.4307960000000  0.5144080000000  0.5258470000000 1.0
C      1  0.5121500000000  0.5273070000000  0.4185530000000 1.0
C      1  0.5253980000000  0.4888490000000  0.5533580000000 1.0
C      1  0.4779600000000  0.4173940000000  0.5164970000000 1.0
C      1  0.5091510000000  0.5810480000000  0.5206580000000 1.0
C      1  0.4729390000000  0.4722620000000  0.4826140000000 1.0
C      1  0.5494060000000  0.4486230000000  0.4583880000000 1.0
C      1  0.5705020000000  0.5245810000000  0.5388270000000 1.0
C      1  0.5029240000000  0.4324150000000  0.5174200000000 1.0
C      1  0.5100220000000  0.4419320000000  0.4919360000000 1.0
C      1  0.4408220000000  0.4536600000000  0.5118470000000 1.0
C      1  0.4843590000000  0.5515450000000  0.4438150000000 1.0
C      1  0.4804770000000  0.5088500000000  0.5064060000000 1.0
C      1  0.4845440000000  0.4259640000000  0.5629460000000 1.0
C      1  0.5357620000000  0.5032290000000  0.4650020000000 1.0
C      1  0.4659470000000  0.5728430000000  0.5008660000000 1.0
C      1  0.5241120000000  0.4564040000000  0.4470350000000 1.0
C      1  0.4921270000000  0.4811680000000  0.5040170000000 1.0
C      1  0.5724730000000  0.5395500000000  0.4706920000000 1.0
C      1  0.4668620000000  0.4884050000000  0.4568240000000 1.0
C      1  0.5435170000000  0.4765360000000  0.5048930000000 1.0
C      1  0.4224960000000  0.4788670000000  0.4777660000000 1.0
C      1  0.5147750000000  0.5624730000000  0.5439510000000 1.0
C      1  0.4883730000000  0.5751580000000  0.4830400000000 1.0
C      1  0.4623430000000  0.5442930000000  0.5454330000000 1.0
C      1  0.4072630000000  0.5089270000000  0.5098030000000 1.0
C      1  0.4792860000000  0.4807110000000  0.5670240000000 1.0
C      1  0.4511750000000  0.5053880000000  0.5036810000000 1.0
C      1  0.5509410000000  0.5172200000000  0.4408530000000 1.0
C      1  0.4417580000000  0.5015510000000  0.5507700000000 1.0
C      1  0.4664020000000  0.4249080000000  0.4910570000000 1.0
C      1  0.4873280000000  0.5312120000000  0.5218600000000 1.0
C      1  0.5353850000000  0.5603420000000  0.4503970000000 1.0
C      1  0.4539030000000  0.5149370000000  0.4558500000000 1.0
C      1  0.4778320000000  0.4588830000000  0.4328970000000 1.0
C      1  0.4800060000000  0.5801500000000  0.5240510000000 1.0
C      1  0.5179320000000  0.4695760000000  0.4949480000000 1.0
C      1  0.4128810000000  0.5055740000000  0.4829280000000 1.0
C      1  0.4866650000000  0.5133070000000  0.4217530000000 1.0
C      1  0.5655730000000  0.4448600000000  0.4821720000000 1.0
C      1  0.5149670000000  0.5812100000000  0.4929240000000 1.0
C      1  0.5382300000000  0.5566940000000  0.5590660000000 1.0
C      1  0.5720640000000  0.4955580000000  0.5360620000000 1.0
C      1  0.4830120000000  0.5080120000000  0.5704780000000 1.0
C      1  0.5508710000000  0.5313480000000  0.5589320000000 1.0
C      1  0.5579930000000  0.4913360000000  0.4813000000000 1.0
C      1  0.4539840000000  0.4758870000000  0.5544280000000 1.0
C      1  0.4455950000000  0.5512600000000  0.4998520000000 1.0
C      1  0.5122490000000  0.5330320000000  0.5347590000000 1.0
C      1  0.4402540000000  0.5430960000000  0.5259390000000 1.0
C      1  0.4814260000000  0.5659870000000  0.5480960000000 1.0
C      1  0.4971320000000  0.4443390000000  0.4487380000000 1.0
C      1  0.5607260000000  0.5559550000000  0.4904180000000 1.0
C      1  0.4897510000000  0.4872870000000  0.4355080000000 1.0
C      1  0.5247610000000  0.4290730000000  0.5375730000000 1.0
END
