TITL C-119466-4368-5 39.0483999379852 125000 -112.473709299156 0 0 18 (C1) n - 1
REM
REM in /rds/project/t2_vol4/rds-t2-cs072/BORA/CARBON/from-Arr/AIRSS/Generating-Clusters/GAP-ML-2020/Only-C1/SD-CG/HFTN-CG
REM
REM
REM
REM
REM
REM ./C.cell (11c1c37f851c82e70ff6c80c92926a4b)
REM AIRSS Version 0.9.1 bugfix July 2018 build 013d7b7c2542+ Fri, 06 Jul 2018 19:26:36 +0100
REM compiler GCC version 9.3.0
REM options -cpp -mtune=generic -march=x86-64 -g -O0
REM seed 1358546104 1125406814 -847789478 -851268588 1225864979 1191131294 1162535061 -2111389298 1177912001 1880471173 673936034 229591487 1721966283 -471221018 -896679066 375087691 -1817662151 -2077495144 -66913793 -1756264157 -2040533365 -874806492 135096583 1878753070 2026298072 1857957134 777090589 -1573203257 -1197084466 -1195235283 759038609 585862646 816442007
REM
CELL 1.54180   50.00000   50.00000   50.00000   90.00000   90.00000   90.00000
LATT -1
SFAC C  
C      1  0.5279360000000  0.4670290000000  0.5243030000000 1.0
C      1  0.4785130000000  0.5045310000000  0.4372560000000 1.0
C      1  0.4957970000000  0.5479090000000  0.4579580000000 1.0
C      1  0.5402030000000  0.4944700000000  0.5274930000000 1.0
C      1  0.5107730000000  0.5150540000000  0.5553720000000 1.0
C      1  0.4566650000000  0.5159880000000  0.4869750000000 1.0
C      1  0.4842790000000  0.4915380000000  0.5316980000000 1.0
C      1  0.4697870000000  0.4923480000000  0.4828040000000 1.0
C      1  0.4521890000000  0.5405520000000  0.4829660000000 1.0
C      1  0.5466530000000  0.5034390000000  0.5013610000000 1.0
C      1  0.4742020000000  0.4869300000000  0.4553760000000 1.0
C      1  0.5352910000000  0.5111930000000  0.5483090000000 1.0
C      1  0.4999250000000  0.4686520000000  0.5216660000000 1.0
C      1  0.5389490000000  0.4813340000000  0.4887270000000 1.0
C      1  0.4886680000000  0.5280700000000  0.4432110000000 1.0
C      1  0.4820360000000  0.4821180000000  0.5062070000000 1.0
C      1  0.4849580000000  0.5112570000000  0.5503960000000 1.0
C      1  0.5331770000000  0.4575880000000  0.4979210000000 1.0
END
