TITL C-117344-1834-9 -0.0475508642017342 125000 -146.382797955043 0 0 23 (C1) n - 1
REM
REM in /rds/project/t2_vol4/rds-t2-cs072/BORA/CARBON/from-Arr/AIRSS/Generating-Clusters/GAP-ML-2020/Only-C1/SD-CG/HFTN-CG
REM
REM
REM
REM
REM
REM ./C.cell (11c1c37f851c82e70ff6c80c92926a4b)
REM AIRSS Version 0.9.1 bugfix July 2018 build 013d7b7c2542+ Fri, 06 Jul 2018 19:26:36 +0100
REM compiler GCC version 9.3.0
REM options -cpp -mtune=generic -march=x86-64 -g -O0
REM seed 909791774 106295601 -1758505149 1815838641 727532702 -702818742 -2144021160 -749563186 2140998262 619306353 -69098406 -56799260 -134182628 -1402526263 6177522 1146311600 -1304613766 99509184 -1582871337 123895927 -2146748773 1509586475 -572012228 -37140787 1485030460 1154754204 1030588577 -1895081336 1889809378 -1355919845 -150380931 -1545711347 1318321463
REM
CELL 1.54180   50.00000   50.00000   50.00000   90.00000   90.00000   90.00000
LATT -1
SFAC C  
C      1  0.4880900000000  0.5312670000000  0.5595600000000 1.0
C      1  0.5436620000000  0.5327720000000  0.5285370000000 1.0
C      1  0.5286960000000  0.5372960000000  0.4509120000000 1.0
C      1  0.4632100000000  0.4698930000000  0.5225060000000 1.0
C      1  0.4910780000000  0.4793360000000  0.4610360000000 1.0
C      1  0.5183170000000  0.4876520000000  0.4589930000000 1.0
C      1  0.5184090000000  0.4656220000000  0.5199090000000 1.0
C      1  0.4663300000000  0.4821390000000  0.5446580000000 1.0
C      1  0.5041160000000  0.5386840000000  0.5379420000000 1.0
C      1  0.5269450000000  0.5119560000000  0.4499760000000 1.0
C      1  0.5260120000000  0.5529190000000  0.5291470000000 1.0
C      1  0.5492080000000  0.5080250000000  0.5326440000000 1.0
C      1  0.4674290000000  0.4953130000000  0.4592770000000 1.0
C      1  0.4703210000000  0.5221500000000  0.4547770000000 1.0
C      1  0.5137890000000  0.4592200000000  0.4944050000000 1.0
C      1  0.5034550000000  0.5071690000000  0.5299180000000 1.0
C      1  0.4880260000000  0.4615150000000  0.4824330000000 1.0
C      1  0.4797370000000  0.5447690000000  0.4616600000000 1.0
C      1  0.4828640000000  0.5038430000000  0.5480490000000 1.0
C      1  0.5326980000000  0.4687140000000  0.4746200000000 1.0
C      1  0.5266510000000  0.4910830000000  0.5280900000000 1.0
C      1  0.4633290000000  0.4669170000000  0.4956380000000 1.0
C      1  0.4476290000000  0.4817470000000  0.4753130000000 1.0
END
