TITL C-117355-4226-4 0.00512769587310296 125000 -347.640051191574 0 0 52 (C1) n - 1
REM
REM in /rds/project/t2_vol4/rds-t2-cs072/BORA/CARBON/from-Arr/AIRSS/Generating-Clusters/GAP-ML-2020/Only-C1/SD-CG/HFTN-CG
REM
REM
REM
REM
REM
REM ./C.cell (11c1c37f851c82e70ff6c80c92926a4b)
REM AIRSS Version 0.9.1 bugfix July 2018 build 013d7b7c2542+ Fri, 06 Jul 2018 19:26:36 +0100
REM compiler GCC version 9.3.0
REM options -cpp -mtune=generic -march=x86-64 -g -O0
REM seed -374370061 -643069372 -745062038 14889170 1632392174 -1880622066 381040808 -1110357573 883946922 -511759625 1241920683 253564730 686047590 1545700346 804395808 1748726707 -412693601 1619141706 -572447208 327745578 1062145194 248471517 85710172 303282152 -649137359 -17871393 -1170542683 921033071 -1536163357 820041187 -914385574 181265833 -193017575
REM
CELL 1.54180   50.00000   50.00000   50.00000   90.00000   90.00000   90.00000
LATT -1
SFAC C  
C      1  0.4378860000000  0.4665220000000  0.5048420000000 1.0
C      1  0.4518260000000  0.5278730000000  0.5339820000000 1.0
C      1  0.4833840000000  0.4783820000000  0.5080050000000 1.0
C      1  0.4886250000000  0.5342990000000  0.4625720000000 1.0
C      1  0.5133530000000  0.4807560000000  0.5175810000000 1.0
C      1  0.4680390000000  0.4950620000000  0.4447220000000 1.0
C      1  0.5287950000000  0.5035000000000  0.5322330000000 1.0
C      1  0.4485040000000  0.5159110000000  0.4892200000000 1.0
C      1  0.5137260000000  0.4643110000000  0.5436940000000 1.0
C      1  0.5638520000000  0.4792090000000  0.4780580000000 1.0
C      1  0.4826950000000  0.4693430000000  0.4401370000000 1.0
C      1  0.4672430000000  0.5436070000000  0.5154230000000 1.0
C      1  0.4959400000000  0.5387870000000  0.5106440000000 1.0
C      1  0.5622650000000  0.5340850000000  0.5159710000000 1.0
C      1  0.5683900000000  0.4974700000000  0.4970670000000 1.0
C      1  0.4562220000000  0.4797600000000  0.5230910000000 1.0
C      1  0.4720580000000  0.4440620000000  0.4442640000000 1.0
C      1  0.4981500000000  0.5174860000000  0.4866300000000 1.0
C      1  0.5010040000000  0.4378050000000  0.5363840000000 1.0
C      1  0.4453000000000  0.5070670000000  0.5168450000000 1.0
C      1  0.5040630000000  0.5330610000000  0.5604830000000 1.0
C      1  0.4872620000000  0.4552020000000  0.5524920000000 1.0
C      1  0.4797320000000  0.4960470000000  0.4863680000000 1.0
C      1  0.4988650000000  0.4322030000000  0.5103930000000 1.0
C      1  0.4795070000000  0.5573510000000  0.4735630000000 1.0
C      1  0.4584060000000  0.5431240000000  0.4884980000000 1.0
C      1  0.5167190000000  0.5332280000000  0.5323390000000 1.0
C      1  0.5122970000000  0.5057460000000  0.4391790000000 1.0
C      1  0.5568240000000  0.5058370000000  0.5224280000000 1.0
C      1  0.4536510000000  0.4944490000000  0.4705360000000 1.0
C      1  0.4727630000000  0.4977620000000  0.5667430000000 1.0
C      1  0.5031910000000  0.5616460000000  0.4912410000000 1.0
C      1  0.4665400000000  0.4748220000000  0.5513590000000 1.0
C      1  0.5212890000000  0.5014060000000  0.4823810000000 1.0
C      1  0.5110790000000  0.4772800000000  0.4383800000000 1.0
C      1  0.5013230000000  0.5043720000000  0.5707530000000 1.0
C      1  0.5199120000000  0.4715180000000  0.4898620000000 1.0
C      1  0.4863240000000  0.5166330000000  0.4409280000000 1.0
C      1  0.5679450000000  0.5266870000000  0.4890910000000 1.0
C      1  0.5423020000000  0.4596350000000  0.4754730000000 1.0
C      1  0.4466920000000  0.4676050000000  0.4796860000000 1.0
C      1  0.5310250000000  0.5548090000000  0.4897100000000 1.0
C      1  0.5357940000000  0.4674900000000  0.4486360000000 1.0
C      1  0.5388940000000  0.5489660000000  0.5178700000000 1.0
C      1  0.5464840000000  0.5360240000000  0.4727910000000 1.0
C      1  0.4693330000000  0.4502020000000  0.4706730000000 1.0
C      1  0.4921670000000  0.4534140000000  0.4919190000000 1.0
C      1  0.5363690000000  0.5122710000000  0.4567200000000 1.0
C      1  0.4611480000000  0.5241130000000  0.5601560000000 1.0
C      1  0.5540650000000  0.4892780000000  0.4528100000000 1.0
C      1  0.5203850000000  0.4889530000000  0.5573490000000 1.0
C      1  0.4803890000000  0.5435700000000  0.5678250000000 1.0
END
