TITL C-111163-5633-7 -0.0494752936757328 125000 -523.661560201356 0 0 75 (C1) n - 1
REM
REM in /rds/project/t2_vol4/rds-t2-cs072/BORA/CARBON/from-Arr/AIRSS/Generating-Clusters/GAP-ML-2020/Only-C1/SD-CG/HFTN-CG
REM
REM
REM
REM
REM
REM ./C.cell (11c1c37f851c82e70ff6c80c92926a4b)
REM AIRSS Version 0.9.1 bugfix July 2018 build 013d7b7c2542+ Fri, 06 Jul 2018 19:26:36 +0100
REM compiler GCC version 9.3.0
REM options -cpp -mtune=generic -march=x86-64 -g -O0
REM seed -1991098591 -2040264565 1414350715 286759583 1012914682 -764140630 -1987811200 -1882166962 -1242190627 -2109251788 2057546216 -1866114448 1786329505 -1761792000 403565403 1667052519 -612473325 1336913110 -1453785779 -7185406 -1269462088 530241042 -1107180430 1122601174 -216061574 1381308289 -31209992 -555810452 489950790 1606004174 480669886 1907685197 1428361268
REM
CELL 1.54180   50.00000   50.00000   50.00000   90.00000   90.00000   90.00000
LATT -1
SFAC C  
C      1  0.5760970000000  0.4983380000000  0.4971880000000 1.0
C      1  0.5161890000000  0.4256540000000  0.4765870000000 1.0
C      1  0.5592230000000  0.4500380000000  0.4945830000000 1.0
C      1  0.4228890000000  0.5135960000000  0.5403650000000 1.0
C      1  0.4662900000000  0.4790510000000  0.4423620000000 1.0
C      1  0.4888610000000  0.5195310000000  0.5702920000000 1.0
C      1  0.4555330000000  0.4367940000000  0.5121000000000 1.0
C      1  0.5043810000000  0.5327570000000  0.5235380000000 1.0
C      1  0.5008850000000  0.4788040000000  0.5020000000000 1.0
C      1  0.5774720000000  0.4878030000000  0.5276540000000 1.0
C      1  0.4430310000000  0.5520210000000  0.5241900000000 1.0
C      1  0.5698730000000  0.4442240000000  0.5187360000000 1.0
C      1  0.5277630000000  0.4869120000000  0.5124160000000 1.0
C      1  0.5388180000000  0.4588590000000  0.4535780000000 1.0
C      1  0.4993450000000  0.4366320000000  0.4556830000000 1.0
C      1  0.5093650000000  0.5617050000000  0.5163770000000 1.0
C      1  0.4414850000000  0.5340300000000  0.5467220000000 1.0
C      1  0.5099800000000  0.5301400000000  0.5546620000000 1.0
C      1  0.4674280000000  0.5248790000000  0.4556330000000 1.0
C      1  0.4851670000000  0.5178260000000  0.4801680000000 1.0
C      1  0.5052860000000  0.5370270000000  0.4347980000000 1.0
C      1  0.4607110000000  0.5194350000000  0.5651550000000 1.0
C      1  0.5770480000000  0.5221000000000  0.4501110000000 1.0
C      1  0.5625060000000  0.4647370000000  0.5360400000000 1.0
C      1  0.4560320000000  0.4581710000000  0.4583450000000 1.0
C      1  0.4532820000000  0.4909910000000  0.5656310000000 1.0
C      1  0.4720310000000  0.4361760000000  0.4640850000000 1.0
C      1  0.5097710000000  0.5081830000000  0.4359960000000 1.0
C      1  0.5513720000000  0.5291560000000  0.4428350000000 1.0
C      1  0.5248210000000  0.4887300000000  0.5639550000000 1.0
C      1  0.5418710000000  0.4387540000000  0.4743920000000 1.0
C      1  0.4766870000000  0.4742400000000  0.5711170000000 1.0
C      1  0.5346590000000  0.5160280000000  0.5619130000000 1.0
C      1  0.4608750000000  0.5712440000000  0.5113750000000 1.0
C      1  0.5336570000000  0.5743670000000  0.4508940000000 1.0
C      1  0.4948280000000  0.5816120000000  0.4796580000000 1.0
C      1  0.5319160000000  0.5504070000000  0.4381360000000 1.0
C      1  0.4882810000000  0.5785050000000  0.5081870000000 1.0
C      1  0.4744600000000  0.5677910000000  0.4649240000000 1.0
C      1  0.5243680000000  0.5772950000000  0.4761870000000 1.0
C      1  0.5259370000000  0.5181660000000  0.5069380000000 1.0
C      1  0.5747100000000  0.5145940000000  0.5370950000000 1.0
C      1  0.5779870000000  0.4992340000000  0.4655520000000 1.0
C      1  0.4957770000000  0.4834110000000  0.4433980000000 1.0
C      1  0.5478830000000  0.5387390000000  0.5052260000000 1.0
C      1  0.4254950000000  0.5162840000000  0.4908050000000 1.0
C      1  0.4854640000000  0.4509640000000  0.5576080000000 1.0
C      1  0.4169660000000  0.5030840000000  0.5141820000000 1.0
C      1  0.5120230000000  0.4585770000000  0.4428370000000 1.0
C      1  0.5004040000000  0.4271110000000  0.5272120000000 1.0
C      1  0.4517460000000  0.5023340000000  0.4499120000000 1.0
C      1  0.4243990000000  0.4760120000000  0.5223410000000 1.0
C      1  0.5121680000000  0.4472140000000  0.5458060000000 1.0
C      1  0.5498210000000  0.4845080000000  0.4625350000000 1.0
C      1  0.4803610000000  0.5475780000000  0.4447310000000 1.0
C      1  0.4731240000000  0.4342450000000  0.5359170000000 1.0
C      1  0.5330580000000  0.5086350000000  0.4545330000000 1.0
C      1  0.4524600000000  0.5633200000000  0.4846940000000 1.0
C      1  0.4813220000000  0.4926770000000  0.5152710000000 1.0
C      1  0.5515330000000  0.4797380000000  0.4927490000000 1.0
C      1  0.5154780000000  0.5167490000000  0.4792550000000 1.0
C      1  0.4357330000000  0.4569150000000  0.5047760000000 1.0
C      1  0.5613970000000  0.5220130000000  0.5600150000000 1.0
C      1  0.4346940000000  0.5429850000000  0.4966010000000 1.0
C      1  0.4304790000000  0.4867070000000  0.5493490000000 1.0
C      1  0.5331170000000  0.5635400000000  0.5006980000000 1.0
C      1  0.4987320000000  0.4201510000000  0.4992010000000 1.0
C      1  0.4375110000000  0.4682510000000  0.4778720000000 1.0
C      1  0.5324490000000  0.4701420000000  0.5417940000000 1.0
C      1  0.4983440000000  0.4921460000000  0.5740060000000 1.0
C      1  0.4798110000000  0.5191480000000  0.5094910000000 1.0
C      1  0.4970630000000  0.4912070000000  0.4762410000000 1.0
C      1  0.4716720000000  0.4264120000000  0.4909270000000 1.0
C      1  0.5724030000000  0.5262300000000  0.5104420000000 1.0
C      1  0.4339420000000  0.4964380000000  0.4714210000000 1.0
END
