TITL C-111145-7598-9 66.6806277928407 125000 -220.878922106052 0 0 34 (C1) n - 1
REM
REM in /rds/project/t2_vol4/rds-t2-cs072/BORA/CARBON/from-Arr/AIRSS/Generating-Clusters/GAP-ML-2020/Only-C1/SD-CG/HFTN-CG
REM
REM
REM
REM
REM
REM ./C.cell (11c1c37f851c82e70ff6c80c92926a4b)
REM AIRSS Version 0.9.1 bugfix July 2018 build 013d7b7c2542+ Fri, 06 Jul 2018 19:26:36 +0100
REM compiler GCC version 9.3.0
REM options -cpp -mtune=generic -march=x86-64 -g -O0
REM seed -255736469 293068801 1790722754 -885363196 -1902573078 -1971944091 -899704976 1163462335 1331503951 1783564816 1029007727 -728385479 -1677094090 1842994842 -486116671 1482409360 -420480193 -1205549933 -1806389336 646012270 -1531341420 -146840336 1277250435 -1769100898 -1089070016 -1176528038 1917394606 -1793145710 1966157842 -1827540429 -302774079 -1890389674 1861346838
REM
CELL 1.54180   50.00000   50.00000   50.00000   90.00000   90.00000   90.00000
LATT -1
SFAC C  
C      1  0.5395030000000  0.4778680000000  0.5292380000000 1.0
C      1  0.5101570000000  0.5737710000000  0.4841730000000 1.0
C      1  0.5001470000000  0.4371140000000  0.5158620000000 1.0
C      1  0.4756090000000  0.5203650000000  0.4863160000000 1.0
C      1  0.4995750000000  0.4355060000000  0.4903910000000 1.0
C      1  0.5456620000000  0.4889610000000  0.4834330000000 1.0
C      1  0.4555100000000  0.4996140000000  0.5417210000000 1.0
C      1  0.4921160000000  0.5643440000000  0.4641670000000 1.0
C      1  0.4967350000000  0.4564160000000  0.5359290000000 1.0
C      1  0.4845790000000  0.5028070000000  0.5328050000000 1.0
C      1  0.4525570000000  0.4801480000000  0.5602600000000 1.0
C      1  0.5334970000000  0.5325040000000  0.4874930000000 1.0
C      1  0.4429700000000  0.5035100000000  0.4394360000000 1.0
C      1  0.5493510000000  0.5116700000000  0.4990150000000 1.0
C      1  0.4558430000000  0.4818790000000  0.4472410000000 1.0
C      1  0.5228370000000  0.5555110000000  0.5002260000000 1.0
C      1  0.5157300000000  0.5202750000000  0.4687010000000 1.0
C      1  0.5477040000000  0.5057180000000  0.5269040000000 1.0
C      1  0.4916940000000  0.5231060000000  0.5130310000000 1.0
C      1  0.4972960000000  0.4624920000000  0.4724810000000 1.0
C      1  0.4391120000000  0.5087030000000  0.5183070000000 1.0
C      1  0.4883090000000  0.5373560000000  0.4658640000000 1.0
C      1  0.5180150000000  0.4717390000000  0.4539210000000 1.0
C      1  0.5023120000000  0.5071440000000  0.4908500000000 1.0
C      1  0.5042070000000  0.4796680000000  0.4961160000000 1.0
C      1  0.5272400000000  0.5218070000000  0.5399520000000 1.0
C      1  0.4871680000000  0.4772230000000  0.5181100000000 1.0
C      1  0.4715430000000  0.4699070000000  0.4638190000000 1.0
C      1  0.5330310000000  0.4713580000000  0.5018070000000 1.0
C      1  0.5082870000000  0.5010760000000  0.5497150000000 1.0
C      1  0.5178220000000  0.4737270000000  0.5469760000000 1.0
C      1  0.5309150000000  0.4942130000000  0.4590590000000 1.0
C      1  0.5133370000000  0.5401070000000  0.5213560000000 1.0
C      1  0.4496290000000  0.5123930000000  0.4953230000000 1.0
END
