TITL C-117355-4226-7 64.2185995068127 125000 -575.400360897871 0 0 83 (C1) n - 1
REM
REM in /rds/project/t2_vol4/rds-t2-cs072/BORA/CARBON/from-Arr/AIRSS/Generating-Clusters/GAP-ML-2020/Only-C1/SD-CG/HFTN-CG
REM
REM
REM
REM
REM
REM ./C.cell (11c1c37f851c82e70ff6c80c92926a4b)
REM AIRSS Version 0.9.1 bugfix July 2018 build 013d7b7c2542+ Fri, 06 Jul 2018 19:26:36 +0100
REM compiler GCC version 9.3.0
REM options -cpp -mtune=generic -march=x86-64 -g -O0
REM seed 1576731135 -2114347433 -520453860 -213012130 -1888922995 -1705405331 2084333147 218360091 1837586485 808269702 -2048787210 238023230 -585474046 -1011879528 797686662 1474258452 486946077 1890659958 -1368753151 -1059512966 539541551 -928668571 637079211 -1979507405 -1648027562 -1178824991 -270068434 -869634954 1896635614 209532346 -294545482 -1778037997 1404661525
REM
CELL 1.54180   50.00000   50.00000   50.00000   90.00000   90.00000   90.00000
LATT -1
SFAC C  
C      1  0.4795570000000  0.5709900000000  0.4723590000000 1.0
C      1  0.5676810000000  0.4772840000000  0.5264360000000 1.0
C      1  0.4759820000000  0.5371410000000  0.4405100000000 1.0
C      1  0.4575740000000  0.4689190000000  0.4385400000000 1.0
C      1  0.5334490000000  0.5183270000000  0.5049700000000 1.0
C      1  0.5023560000000  0.5843530000000  0.5109800000000 1.0
C      1  0.4955550000000  0.4248410000000  0.4808420000000 1.0
C      1  0.5573800000000  0.5207140000000  0.4396460000000 1.0
C      1  0.5675420000000  0.5027580000000  0.5406890000000 1.0
C      1  0.5282670000000  0.4505680000000  0.4505280000000 1.0
C      1  0.4567140000000  0.5173760000000  0.5722350000000 1.0
C      1  0.5184310000000  0.5443640000000  0.5428520000000 1.0
C      1  0.5322560000000  0.5360110000000  0.4367770000000 1.0
C      1  0.5438240000000  0.5679300000000  0.4944650000000 1.0
C      1  0.5266750000000  0.4916420000000  0.5721030000000 1.0
C      1  0.5201910000000  0.5584380000000  0.4501980000000 1.0
C      1  0.5237510000000  0.5457660000000  0.4985970000000 1.0
C      1  0.5695550000000  0.4811720000000  0.4427070000000 1.0
C      1  0.5287890000000  0.4877010000000  0.4641100000000 1.0
C      1  0.5189850000000  0.4948800000000  0.4908960000000 1.0
C      1  0.5123530000000  0.4745160000000  0.4397680000000 1.0
C      1  0.5627050000000  0.4550110000000  0.4831120000000 1.0
C      1  0.5219420000000  0.4331060000000  0.4720990000000 1.0
C      1  0.4631710000000  0.4926490000000  0.5138570000000 1.0
C      1  0.4276550000000  0.5092130000000  0.4868810000000 1.0
C      1  0.4574950000000  0.5345740000000  0.4608630000000 1.0
C      1  0.4873390000000  0.5132080000000  0.4305650000000 1.0
C      1  0.5382190000000  0.4361760000000  0.5206780000000 1.0
C      1  0.4506290000000  0.5072100000000  0.4661070000000 1.0
C      1  0.5427120000000  0.5040480000000  0.5536150000000 1.0
C      1  0.5026310000000  0.4726440000000  0.5368200000000 1.0
C      1  0.5742230000000  0.4760940000000  0.4986670000000 1.0
C      1  0.5688850000000  0.5296450000000  0.5301210000000 1.0
C      1  0.5542670000000  0.4626670000000  0.4572010000000 1.0
C      1  0.5537990000000  0.4963230000000  0.4245110000000 1.0
C      1  0.5010460000000  0.5853070000000  0.4843100000000 1.0
C      1  0.5140710000000  0.5170440000000  0.4236440000000 1.0
C      1  0.4952000000000  0.5101630000000  0.4852630000000 1.0
C      1  0.4706370000000  0.5398550000000  0.5611610000000 1.0
C      1  0.4254080000000  0.5105550000000  0.5343490000000 1.0
C      1  0.4625170000000  0.4389100000000  0.5428000000000 1.0
C      1  0.4757110000000  0.4918980000000  0.4716910000000 1.0
C      1  0.4571090000000  0.4476400000000  0.4981910000000 1.0
C      1  0.4681880000000  0.4289040000000  0.5175030000000 1.0
C      1  0.4766170000000  0.4986060000000  0.5803200000000 1.0
C      1  0.5285310000000  0.4711060000000  0.5525570000000 1.0
C      1  0.4576730000000  0.5478980000000  0.5369770000000 1.0
C      1  0.5140900000000  0.4244860000000  0.5262930000000 1.0
C      1  0.4405520000000  0.4747100000000  0.5616610000000 1.0
C      1  0.4379290000000  0.4549830000000  0.5411400000000 1.0
C      1  0.4819830000000  0.4566830000000  0.5540630000000 1.0
C      1  0.4365950000000  0.4883940000000  0.4469930000000 1.0
C      1  0.5240740000000  0.5165890000000  0.5334630000000 1.0
C      1  0.4671500000000  0.4731320000000  0.5719380000000 1.0
C      1  0.4687810000000  0.4344450000000  0.4719930000000 1.0
C      1  0.5023990000000  0.5079490000000  0.5734330000000 1.0
C      1  0.5433300000000  0.4365290000000  0.4924700000000 1.0
C      1  0.4333430000000  0.5366350000000  0.5257670000000 1.0
C      1  0.4338210000000  0.5376640000000  0.4975330000000 1.0
C      1  0.4936090000000  0.4199170000000  0.5091620000000 1.0
C      1  0.4607430000000  0.5511820000000  0.4861530000000 1.0
C      1  0.4604070000000  0.4434620000000  0.4475320000000 1.0
C      1  0.5642630000000  0.5207930000000  0.5041330000000 1.0
C      1  0.4821190000000  0.5146840000000  0.5124220000000 1.0
C      1  0.4320320000000  0.4922280000000  0.5115800000000 1.0
C      1  0.5269240000000  0.4916010000000  0.4205980000000 1.0
C      1  0.5264390000000  0.5752490000000  0.4731330000000 1.0
C      1  0.4981290000000  0.5024030000000  0.5354020000000 1.0
C      1  0.4835600000000  0.4857270000000  0.4424610000000 1.0
C      1  0.5495940000000  0.5726050000000  0.5204430000000 1.0
C      1  0.5772710000000  0.5025860000000  0.4867600000000 1.0
C      1  0.5037270000000  0.5568040000000  0.5188570000000 1.0
C      1  0.5484890000000  0.4585420000000  0.5365440000000 1.0
C      1  0.4752060000000  0.4731290000000  0.4959500000000 1.0
C      1  0.4336170000000  0.4618680000000  0.5146790000000 1.0
C      1  0.4762690000000  0.5452440000000  0.5142910000000 1.0
C      1  0.4347010000000  0.5024680000000  0.5594830000000 1.0
C      1  0.5483730000000  0.5515230000000  0.5374000000000 1.0
C      1  0.4916260000000  0.5589420000000  0.4490200000000 1.0
C      1  0.5036140000000  0.4721430000000  0.5065650000000 1.0
C      1  0.4996760000000  0.5365060000000  0.5653300000000 1.0
C      1  0.4153940000000  0.4962100000000  0.4622810000000 1.0
C      1  0.5749230000000  0.5058420000000  0.4590060000000 1.0
END
