TITL C-112711-663-8 33.3507908030701 125000 -161.104010604832 0 0 25 (C1) n - 1
REM
REM in /rds/project/t2_vol4/rds-t2-cs072/BORA/CARBON/from-Arr/AIRSS/Generating-Clusters/GAP-ML-2020/Only-C1/SD-CG/HFTN-CG
REM
REM
REM
REM
REM
REM ./C.cell (11c1c37f851c82e70ff6c80c92926a4b)
REM AIRSS Version 0.9.1 bugfix July 2018 build 013d7b7c2542+ Fri, 06 Jul 2018 19:26:36 +0100
REM compiler GCC version 9.3.0
REM options -cpp -mtune=generic -march=x86-64 -g -O0
REM seed -2077708540 -1628909571 1025075927 -1925062976 613033476 1114581092 338117979 -1211179098 -394736943 1172360576 1062319497 1962914690 -1997211300 1249130987 1745780115 221836949 1079304569 982902263 705685678 1219813465 -697134640 -769165779 -1294917043 -1209545870 -1900674036 -1724583840 -1172209563 367297333 -1181027433 1591414380 -100865112 1924362518 -1283329361
REM
CELL 1.54180   50.00000   50.00000   50.00000   90.00000   90.00000   90.00000
LATT -1
SFAC C  
C      1  0.5023890000000  0.5128290000000  0.5497240000000 1.0
C      1  0.4865850000000  0.4864250000000  0.5521590000000 1.0
C      1  0.4558620000000  0.5278540000000  0.5165200000000 1.0
C      1  0.5169590000000  0.5392120000000  0.4780940000000 1.0
C      1  0.5351440000000  0.4649470000000  0.5077020000000 1.0
C      1  0.5506950000000  0.4673220000000  0.4862360000000 1.0
C      1  0.4951060000000  0.4745790000000  0.4849230000000 1.0
C      1  0.4770850000000  0.5127320000000  0.4494320000000 1.0
C      1  0.4619350000000  0.4929940000000  0.5413820000000 1.0
C      1  0.5002460000000  0.5174250000000  0.5209580000000 1.0
C      1  0.5313110000000  0.4766140000000  0.5341770000000 1.0
C      1  0.5028380000000  0.5053160000000  0.4499290000000 1.0
C      1  0.4743890000000  0.5013910000000  0.5163240000000 1.0
C      1  0.4691100000000  0.5352910000000  0.4930850000000 1.0
C      1  0.5397080000000  0.4823190000000  0.4657540000000 1.0
C      1  0.4728920000000  0.4912000000000  0.4901830000000 1.0
C      1  0.5055880000000  0.4610560000000  0.5079960000000 1.0
C      1  0.5475540000000  0.5067110000000  0.4550010000000 1.0
C      1  0.4660020000000  0.5133770000000  0.4737840000000 1.0
C      1  0.5102930000000  0.4804190000000  0.4617040000000 1.0
C      1  0.5035210000000  0.4672990000000  0.5359580000000 1.0
C      1  0.4986330000000  0.5344350000000  0.4976080000000 1.0
C      1  0.4471840000000  0.5196070000000  0.5397020000000 1.0
C      1  0.5239250000000  0.5046900000000  0.5350480000000 1.0
C      1  0.5250440000000  0.5239550000000  0.4566180000000 1.0
END
