TITL C-111145-7598-4 0.296072187692129 125000 -390.269681888222 0 0 58 (C1) n - 1
REM
REM in /rds/project/t2_vol4/rds-t2-cs072/BORA/CARBON/from-Arr/AIRSS/Generating-Clusters/GAP-ML-2020/Only-C1/SD-CG/HFTN-CG
REM
REM
REM
REM
REM
REM ./C.cell (11c1c37f851c82e70ff6c80c92926a4b)
REM AIRSS Version 0.9.1 bugfix July 2018 build 013d7b7c2542+ Fri, 06 Jul 2018 19:26:36 +0100
REM compiler GCC version 9.3.0
REM options -cpp -mtune=generic -march=x86-64 -g -O0
REM seed -1343063923 1760997950 581863320 -1899855697 1748808696 -1303278358 -1062043016 1978146505 -1841332960 602601717 2035105056 -381504928 -1313559647 1379175612 -820020818 -1345134662 -463634671 -213495567 -1968331783 -479427250 -400208402 -1209106324 -1819998774 1504072559 325794999 933573895 551847953 1246385268 -623771415 710081563 540633570 1830089213 -1320580810
REM
CELL 1.54180   50.00000   50.00000   50.00000   90.00000   90.00000   90.00000
LATT -1
SFAC C  
C      1  0.5005250000000  0.4967710000000  0.4724520000000 1.0
C      1  0.5104740000000  0.5368490000000  0.4404210000000 1.0
C      1  0.5028250000000  0.4433360000000  0.5318640000000 1.0
C      1  0.4290310000000  0.4691870000000  0.5214890000000 1.0
C      1  0.4475300000000  0.5169540000000  0.4652260000000 1.0
C      1  0.4490660000000  0.4706230000000  0.4682240000000 1.0
C      1  0.4556690000000  0.5136980000000  0.5299880000000 1.0
C      1  0.5022010000000  0.4866810000000  0.5654910000000 1.0
C      1  0.5352790000000  0.5464170000000  0.5500080000000 1.0
C      1  0.5109240000000  0.4396880000000  0.4838050000000 1.0
C      1  0.4667570000000  0.4422660000000  0.5014870000000 1.0
C      1  0.4658210000000  0.4744790000000  0.4954920000000 1.0
C      1  0.5297840000000  0.5660490000000  0.5297120000000 1.0
C      1  0.5597720000000  0.5352240000000  0.4643110000000 1.0
C      1  0.4579720000000  0.4935080000000  0.4517720000000 1.0
C      1  0.4887810000000  0.5447030000000  0.5572410000000 1.0
C      1  0.5345360000000  0.5236030000000  0.4528160000000 1.0
C      1  0.5508250000000  0.4723190000000  0.5342350000000 1.0
C      1  0.5352880000000  0.4765500000000  0.5098860000000 1.0
C      1  0.4240800000000  0.4800450000000  0.4831390000000 1.0
C      1  0.4873920000000  0.5445490000000  0.4806850000000 1.0
C      1  0.5034810000000  0.5112900000000  0.4288130000000 1.0
C      1  0.4866520000000  0.4928750000000  0.4449800000000 1.0
C      1  0.4920200000000  0.4460010000000  0.4627870000000 1.0
C      1  0.5443090000000  0.5015280000000  0.5546490000000 1.0
C      1  0.5199880000000  0.5062480000000  0.5701760000000 1.0
C      1  0.4458280000000  0.4873030000000  0.5371250000000 1.0
C      1  0.5074770000000  0.4875120000000  0.5179470000000 1.0
C      1  0.5760200000000  0.5117560000000  0.4655240000000 1.0
C      1  0.4606800000000  0.5363330000000  0.4837050000000 1.0
C      1  0.4948490000000  0.4709280000000  0.5425420000000 1.0
C      1  0.5369580000000  0.5221440000000  0.5360420000000 1.0
C      1  0.5642500000000  0.4823910000000  0.5538390000000 1.0
C      1  0.5012020000000  0.4664680000000  0.4456550000000 1.0
C      1  0.5340370000000  0.4559770000000  0.4864910000000 1.0
C      1  0.4449450000000  0.5235040000000  0.5051580000000 1.0
C      1  0.4894270000000  0.5722060000000  0.5509300000000 1.0
C      1  0.4812060000000  0.5242020000000  0.5389410000000 1.0
C      1  0.5300960000000  0.5004790000000  0.4340500000000 1.0
C      1  0.4651560000000  0.4453090000000  0.4718820000000 1.0
C      1  0.4917220000000  0.4839000000000  0.4946090000000 1.0
C      1  0.4946440000000  0.4357810000000  0.5077770000000 1.0
C      1  0.4652970000000  0.4661740000000  0.5420790000000 1.0
C      1  0.5289280000000  0.4737440000000  0.4430780000000 1.0
C      1  0.5470680000000  0.4676650000000  0.4641310000000 1.0
C      1  0.5089330000000  0.5169600000000  0.5227140000000 1.0
C      1  0.5519820000000  0.5532490000000  0.4838030000000 1.0
C      1  0.4505610000000  0.4477520000000  0.5250880000000 1.0
C      1  0.4296620000000  0.5081210000000  0.4861590000000 1.0
C      1  0.5098170000000  0.5836960000000  0.5390040000000 1.0
C      1  0.4962220000000  0.5524980000000  0.4560430000000 1.0
C      1  0.5327420000000  0.5553130000000  0.5022000000000 1.0
C      1  0.5237140000000  0.5129560000000  0.4784510000000 1.0
C      1  0.5446680000000  0.4982520000000  0.4922590000000 1.0
C      1  0.4093620000000  0.4677620000000  0.5033050000000 1.0
C      1  0.5151660000000  0.5355270000000  0.5676700000000 1.0
C      1  0.5642680000000  0.4894440000000  0.4735510000000 1.0
C      1  0.5121320000000  0.5332540000000  0.4971000000000 1.0
END
