TITL C-112704-765-1 14.9260859177059 125000 -371.310247238174 0 0 53 (C1) n - 1
REM
REM in /rds/project/t2_vol4/rds-t2-cs072/BORA/CARBON/from-Arr/AIRSS/Generating-Clusters/GAP-ML-2020/Only-C1/SD-CG/HFTN-CG
REM
REM
REM
REM
REM
REM ./C.cell (11c1c37f851c82e70ff6c80c92926a4b)
REM AIRSS Version 0.9.1 bugfix July 2018 build 013d7b7c2542+ Fri, 06 Jul 2018 19:26:36 +0100
REM compiler GCC version 9.3.0
REM options -cpp -mtune=generic -march=x86-64 -g -O0
REM seed 1263611184 1551908098 924072078 -973146388 1962328596 1716113307 1967533147 -1134157384 -1955325047 239779035 74528904 -1925158767 980017686 -187322992 -151765970 -2017487620 1106594085 582396003 -4437634 -1784789023 1779199172 -514060542 -1129889708 515929385 -1705092241 1454411726 2053879643 519382978 -1660021017 465682046 1376974171 -1597122663 1162185605
REM
CELL 1.54180   50.00000   50.00000   50.00000   90.00000   90.00000   90.00000
LATT -1
SFAC C  
C      1  0.4303070000000  0.4950710000000  0.4989730000000 1.0
C      1  0.5060850000000  0.5239650000000  0.5449550000000 1.0
C      1  0.5667630000000  0.5167520000000  0.5181910000000 1.0
C      1  0.4588950000000  0.5109210000000  0.5536020000000 1.0
C      1  0.4559740000000  0.5370240000000  0.4945890000000 1.0
C      1  0.5316800000000  0.5515130000000  0.5182770000000 1.0
C      1  0.4692170000000  0.4459950000000  0.5223390000000 1.0
C      1  0.5519770000000  0.5422850000000  0.4776340000000 1.0
C      1  0.4427880000000  0.5272460000000  0.5363000000000 1.0
C      1  0.4473430000000  0.4749830000000  0.4611260000000 1.0
C      1  0.4848730000000  0.5399700000000  0.4931580000000 1.0
C      1  0.5397980000000  0.4892860000000  0.5457720000000 1.0
C      1  0.4696680000000  0.5723800000000  0.5202880000000 1.0
C      1  0.5187580000000  0.4694350000000  0.5462060000000 1.0
C      1  0.5384860000000  0.4495570000000  0.5064880000000 1.0
C      1  0.5602860000000  0.4889570000000  0.5252300000000 1.0
C      1  0.5075270000000  0.4874830000000  0.4973690000000 1.0
C      1  0.4876820000000  0.5733470000000  0.5011840000000 1.0
C      1  0.4909660000000  0.4785060000000  0.4455220000000 1.0
C      1  0.4821010000000  0.4863410000000  0.4953980000000 1.0
C      1  0.5480970000000  0.5216220000000  0.4565340000000 1.0
C      1  0.4501790000000  0.5494310000000  0.5199990000000 1.0
C      1  0.5094230000000  0.5690020000000  0.4801710000000 1.0
C      1  0.5352480000000  0.5607350000000  0.4911320000000 1.0
C      1  0.4977850000000  0.5458640000000  0.4674690000000 1.0
C      1  0.5068950000000  0.5321790000000  0.5155280000000 1.0
C      1  0.4736420000000  0.4410970000000  0.4759120000000 1.0
C      1  0.5335140000000  0.5171890000000  0.5497570000000 1.0
C      1  0.4420880000000  0.5155740000000  0.4821900000000 1.0
C      1  0.4792330000000  0.5053830000000  0.4468160000000 1.0
C      1  0.5251490000000  0.4452500000000  0.4809860000000 1.0
C      1  0.4306380000000  0.5012650000000  0.5262270000000 1.0
C      1  0.4468610000000  0.4853330000000  0.5440820000000 1.0
C      1  0.4958100000000  0.4374070000000  0.5159990000000 1.0
C      1  0.5360770000000  0.4647260000000  0.4629630000000 1.0
C      1  0.4369000000000  0.4689000000000  0.4873660000000 1.0
C      1  0.5584710000000  0.4692560000000  0.5048830000000 1.0
C      1  0.5583930000000  0.4773260000000  0.4767890000000 1.0
C      1  0.5658260000000  0.5031870000000  0.4711010000000 1.0
C      1  0.5001890000000  0.5252490000000  0.4481080000000 1.0
C      1  0.4530650000000  0.5028730000000  0.4586390000000 1.0
C      1  0.4673870000000  0.4657170000000  0.5428980000000 1.0
C      1  0.5248800000000  0.5102500000000  0.4460940000000 1.0
C      1  0.4707440000000  0.4599850000000  0.4545790000000 1.0
C      1  0.5197210000000  0.4478150000000  0.5275830000000 1.0
C      1  0.4866400000000  0.5064630000000  0.5553470000000 1.0
C      1  0.5493840000000  0.5340770000000  0.5327030000000 1.0
C      1  0.4921080000000  0.4780600000000  0.5529370000000 1.0
C      1  0.4991470000000  0.4360510000000  0.4870990000000 1.0
C      1  0.5218140000000  0.5094890000000  0.5003170000000 1.0
C      1  0.5194620000000  0.4812710000000  0.4464700000000 1.0
C      1  0.5700670000000  0.5234340000000  0.4913060000000 1.0
C      1  0.4539880000000  0.4475290000000  0.4974160000000 1.0
END
