TITL C-112715-669-2 0.125936247548921 125000 -533.319654196022 0 0 77 (C1) n - 1
REM
REM in /rds/project/t2_vol4/rds-t2-cs072/BORA/CARBON/from-Arr/AIRSS/Generating-Clusters/GAP-ML-2020/Only-C1/SD-CG/HFTN-CG
REM
REM
REM
REM
REM
REM ./C.cell (11c1c37f851c82e70ff6c80c92926a4b)
REM AIRSS Version 0.9.1 bugfix July 2018 build 013d7b7c2542+ Fri, 06 Jul 2018 19:26:36 +0100
REM compiler GCC version 9.3.0
REM options -cpp -mtune=generic -march=x86-64 -g -O0
REM seed 845250722 -1264834035 836407866 -1605919798 -464957720 -902671000 1604978718 -1165479019 -883077872 -2010491418 -1493184078 313177797 1450160056 -1353415321 -217791695 -1694176803 -632703778 96925034 -858382707 -1360903613 231034177 -340742183 1390317484 -1177319631 -532444228 1690778654 1696317284 -1595610531 347624047 1411002773 1273537091 -710108174 -1980408289
REM
CELL 1.54180   50.00000   50.00000   50.00000   90.00000   90.00000   90.00000
LATT -1
SFAC C  
C      1  0.4933000000000  0.5131650000000  0.5166760000000 1.0
C      1  0.5582470000000  0.5325680000000  0.4597510000000 1.0
C      1  0.5423650000000  0.4428580000000  0.4548650000000 1.0
C      1  0.4817310000000  0.5419110000000  0.4353870000000 1.0
C      1  0.4608500000000  0.4489020000000  0.5393730000000 1.0
C      1  0.4606610000000  0.4306380000000  0.4946530000000 1.0
C      1  0.5365160000000  0.4401690000000  0.5031670000000 1.0
C      1  0.4439850000000  0.5166530000000  0.5582950000000 1.0
C      1  0.5703600000000  0.5143980000000  0.5282180000000 1.0
C      1  0.5749200000000  0.4597370000000  0.4798660000000 1.0
C      1  0.4314260000000  0.4694330000000  0.5083260000000 1.0
C      1  0.4907040000000  0.5713730000000  0.5002770000000 1.0
C      1  0.5296750000000  0.5554260000000  0.5253150000000 1.0
C      1  0.5936090000000  0.5026220000000  0.4804080000000 1.0
C      1  0.4697580000000  0.5263730000000  0.5030320000000 1.0
C      1  0.5105940000000  0.4912010000000  0.5575380000000 1.0
C      1  0.4887130000000  0.5671400000000  0.5464120000000 1.0
C      1  0.4080470000000  0.5239940000000  0.5220380000000 1.0
C      1  0.5773340000000  0.5238290000000  0.4806610000000 1.0
C      1  0.4895220000000  0.4438580000000  0.5369580000000 1.0
C      1  0.5213120000000  0.5176430000000  0.4309960000000 1.0
C      1  0.4718370000000  0.5525180000000  0.4620330000000 1.0
C      1  0.5390000000000  0.4874540000000  0.4664700000000 1.0
C      1  0.5664250000000  0.5314170000000  0.5057040000000 1.0
C      1  0.4054190000000  0.5382210000000  0.5005130000000 1.0
C      1  0.4436430000000  0.5147280000000  0.4950010000000 1.0
C      1  0.4460170000000  0.4455360000000  0.5142150000000 1.0
C      1  0.4376420000000  0.4871630000000  0.4867550000000 1.0
C      1  0.5579950000000  0.4667430000000  0.4570510000000 1.0
C      1  0.5435750000000  0.5116790000000  0.4478230000000 1.0
C      1  0.4936350000000  0.4716280000000  0.4892690000000 1.0
C      1  0.4767090000000  0.4465850000000  0.4756010000000 1.0
C      1  0.4992060000000  0.4975280000000  0.4267620000000 1.0
C      1  0.4650640000000  0.5581890000000  0.5068330000000 1.0
C      1  0.4503850000000  0.4827420000000  0.4607330000000 1.0
C      1  0.5181180000000  0.5151770000000  0.4983910000000 1.0
C      1  0.5510880000000  0.5175010000000  0.5491220000000 1.0
C      1  0.5073980000000  0.4691180000000  0.5339530000000 1.0
C      1  0.4619280000000  0.5624370000000  0.5365960000000 1.0
C      1  0.4901250000000  0.4843620000000  0.5140070000000 1.0
C      1  0.4487220000000  0.5584810000000  0.4803180000000 1.0
C      1  0.4476350000000  0.4704010000000  0.5522400000000 1.0
C      1  0.4575360000000  0.5409380000000  0.5564980000000 1.0
C      1  0.5182900000000  0.5605580000000  0.4578550000000 1.0
C      1  0.5378290000000  0.4918630000000  0.4969410000000 1.0
C      1  0.5017330000000  0.4321290000000  0.4702410000000 1.0
C      1  0.4284650000000  0.5389300000000  0.4849860000000 1.0
C      1  0.4760510000000  0.5138110000000  0.4297350000000 1.0
C      1  0.5860830000000  0.4803110000000  0.4958250000000 1.0
C      1  0.4723810000000  0.4086940000000  0.5060670000000 1.0
C      1  0.5571570000000  0.4716510000000  0.5639640000000 1.0
C      1  0.4597520000000  0.5074150000000  0.4519890000000 1.0
C      1  0.5396920000000  0.5424280000000  0.5010500000000 1.0
C      1  0.4748090000000  0.5234490000000  0.4740240000000 1.0
C      1  0.4602250000000  0.4924330000000  0.5661970000000 1.0
C      1  0.5077200000000  0.4840920000000  0.4674150000000 1.0
C      1  0.5148660000000  0.4447310000000  0.4492940000000 1.0
C      1  0.4974140000000  0.4709460000000  0.4420950000000 1.0
C      1  0.5035580000000  0.5203920000000  0.5467300000000 1.0
C      1  0.5028330000000  0.5134030000000  0.4730440000000 1.0
C      1  0.5097580000000  0.5442760000000  0.4350580000000 1.0
C      1  0.5133250000000  0.4262660000000  0.4968080000000 1.0
C      1  0.5063930000000  0.5708900000000  0.5246210000000 1.0
C      1  0.5299010000000  0.5345710000000  0.5452540000000 1.0
C      1  0.4280800000000  0.4810870000000  0.5345000000000 1.0
C      1  0.5349680000000  0.4659280000000  0.5183910000000 1.0
C      1  0.5776660000000  0.4873370000000  0.5228030000000 1.0
C      1  0.4690330000000  0.4625820000000  0.4527500000000 1.0
C      1  0.5588550000000  0.4701070000000  0.5365370000000 1.0
C      1  0.4952180000000  0.5680520000000  0.4728320000000 1.0
C      1  0.4932580000000  0.4229470000000  0.5167230000000 1.0
C      1  0.4867880000000  0.5418440000000  0.5601810000000 1.0
C      1  0.5550650000000  0.4391240000000  0.4818180000000 1.0
C      1  0.4222510000000  0.5083910000000  0.5401000000000 1.0
C      1  0.5408870000000  0.5513720000000  0.4720590000000 1.0
C      1  0.4863010000000  0.4904000000000  0.5717910000000 1.0
C      1  0.5406620000000  0.4931520000000  0.5622170000000 1.0
END
