TITL C-111141-6613-4 -0.289177033166056 125000 -706.686232786353 0 0 102 (C1) n - 1
REM
REM in /rds/project/t2_vol4/rds-t2-cs072/BORA/CARBON/from-Arr/AIRSS/Generating-Clusters/GAP-ML-2020/Only-C1/SD-CG/HFTN-CG
REM
REM
REM
REM
REM
REM ./C.cell (11c1c37f851c82e70ff6c80c92926a4b)
REM AIRSS Version 0.9.1 bugfix July 2018 build 013d7b7c2542+ Fri, 06 Jul 2018 19:26:36 +0100
REM compiler GCC version 9.3.0
REM options -cpp -mtune=generic -march=x86-64 -g -O0
REM seed 1918967920 1499706711 785372820 -1119822845 897118235 -1133903937 -1754467866 -446021637 -1237214132 -638540926 -753674316 1749673599 -338440445 1630970918 51400038 1439871453 27417970 -776639060 -2120641926 1363102943 -98119069 -1398239440 -1188569524 1363841947 -420880427 46898309 -709923808 -80480891 -1942435066 -694287484 -1142543149 1302314398 163270421
REM
CELL 1.54180   50.00000   50.00000   50.00000   90.00000   90.00000   90.00000
LATT -1
SFAC C  
C      1  0.5708670000000  0.5009220000000  0.5263420000000 1.0
C      1  0.5609890000000  0.4517760000000  0.5020370000000 1.0
C      1  0.4872630000000  0.5234420000000  0.5098940000000 1.0
C      1  0.4800480000000  0.4583970000000  0.4393150000000 1.0
C      1  0.5085220000000  0.4344050000000  0.4725720000000 1.0
C      1  0.4929430000000  0.4624330000000  0.5580050000000 1.0
C      1  0.5632050000000  0.4972850000000  0.4202240000000 1.0
C      1  0.4363500000000  0.5108740000000  0.4548990000000 1.0
C      1  0.4950790000000  0.4208540000000  0.4943440000000 1.0
C      1  0.4199170000000  0.5248150000000  0.5106790000000 1.0
C      1  0.4922570000000  0.4931900000000  0.5524910000000 1.0
C      1  0.4689340000000  0.5703200000000  0.5423700000000 1.0
C      1  0.4969230000000  0.4365440000000  0.4448990000000 1.0
C      1  0.5355170000000  0.5271120000000  0.4988770000000 1.0
C      1  0.5053050000000  0.5192120000000  0.5877430000000 1.0
C      1  0.4432070000000  0.4636310000000  0.4724500000000 1.0
C      1  0.4444170000000  0.4422470000000  0.4934230000000 1.0
C      1  0.5130380000000  0.5103180000000  0.5118380000000 1.0
C      1  0.5355360000000  0.4786990000000  0.5811880000000 1.0
C      1  0.5295600000000  0.4746440000000  0.5295840000000 1.0
C      1  0.4528120000000  0.4958630000000  0.4368390000000 1.0
C      1  0.4381140000000  0.5382860000000  0.4640290000000 1.0
C      1  0.4178110000000  0.4976220000000  0.5040440000000 1.0
C      1  0.5036410000000  0.4257860000000  0.5231740000000 1.0
C      1  0.4998610000000  0.4981300000000  0.4043780000000 1.0
C      1  0.5215680000000  0.4778790000000  0.4044230000000 1.0
C      1  0.5350840000000  0.4369330000000  0.5622740000000 1.0
C      1  0.5291670000000  0.5457590000000  0.4737300000000 1.0
C      1  0.5753670000000  0.5322670000000  0.4603000000000 1.0
C      1  0.5079550000000  0.5663750000000  0.4705330000000 1.0
C      1  0.4634700000000  0.4550480000000  0.5607340000000 1.0
C      1  0.5305770000000  0.4235580000000  0.5369160000000 1.0
C      1  0.4541540000000  0.4387410000000  0.5395720000000 1.0
C      1  0.4786280000000  0.5493760000000  0.5588820000000 1.0
C      1  0.5362670000000  0.4299430000000  0.4608340000000 1.0
C      1  0.5180860000000  0.4567860000000  0.5745640000000 1.0
C      1  0.4656490000000  0.6044180000000  0.4842920000000 1.0
C      1  0.4597090000000  0.5281740000000  0.5501220000000 1.0
C      1  0.4384490000000  0.5656990000000  0.5020240000000 1.0
C      1  0.4921210000000  0.4837670000000  0.4470920000000 1.0
C      1  0.5211860000000  0.5370810000000  0.4210670000000 1.0
C      1  0.5529500000000  0.5508110000000  0.4579630000000 1.0
C      1  0.4298640000000  0.5357090000000  0.5363740000000 1.0
C      1  0.5557670000000  0.4369700000000  0.5261700000000 1.0
C      1  0.4257690000000  0.4868110000000  0.5518520000000 1.0
C      1  0.5684740000000  0.5226070000000  0.4327050000000 1.0
C      1  0.4534290000000  0.4672180000000  0.4448270000000 1.0
C      1  0.4425730000000  0.5625510000000  0.5298900000000 1.0
C      1  0.4603430000000  0.4842460000000  0.5160640000000 1.0
C      1  0.5310850000000  0.5066200000000  0.5854150000000 1.0
C      1  0.4465700000000  0.4757270000000  0.5694770000000 1.0
C      1  0.4727200000000  0.4222170000000  0.5269120000000 1.0
C      1  0.4726510000000  0.5065300000000  0.5317810000000 1.0
C      1  0.5093060000000  0.5817970000000  0.4934830000000 1.0
C      1  0.4357860000000  0.4500650000000  0.5195190000000 1.0
C      1  0.5502920000000  0.5029020000000  0.4858900000000 1.0
C      1  0.5531450000000  0.5428130000000  0.5160050000000 1.0
C      1  0.5723850000000  0.4567630000000  0.4532230000000 1.0
C      1  0.4890820000000  0.5843570000000  0.5280970000000 1.0
C      1  0.4838720000000  0.5942150000000  0.5011990000000 1.0
C      1  0.4857210000000  0.5578070000000  0.4525680000000 1.0
C      1  0.4857400000000  0.5007200000000  0.5820200000000 1.0
C      1  0.5044720000000  0.5422840000000  0.5699510000000 1.0
C      1  0.5176790000000  0.4990050000000  0.5379420000000 1.0
C      1  0.4828370000000  0.5055810000000  0.4279350000000 1.0
C      1  0.4543470000000  0.5785360000000  0.4820690000000 1.0
C      1  0.5322280000000  0.4625060000000  0.4277670000000 1.0
C      1  0.5542460000000  0.4810710000000  0.5090660000000 1.0
C      1  0.5594770000000  0.4757640000000  0.5651520000000 1.0
C      1  0.5759190000000  0.5258670000000  0.5122950000000 1.0
C      1  0.4269770000000  0.5429210000000  0.4899380000000 1.0
C      1  0.5597400000000  0.4429640000000  0.4733140000000 1.0
C      1  0.5420040000000  0.4986250000000  0.4003990000000 1.0
C      1  0.4585320000000  0.5599130000000  0.4605000000000 1.0
C      1  0.4818100000000  0.4936900000000  0.4745710000000 1.0
C      1  0.5164280000000  0.5750580000000  0.5210520000000 1.0
C      1  0.4286660000000  0.4922460000000  0.4775320000000 1.0
C      1  0.5012350000000  0.4816770000000  0.4937060000000 1.0
C      1  0.5624290000000  0.4700530000000  0.4317640000000 1.0
C      1  0.5038500000000  0.4555340000000  0.5301190000000 1.0
C      1  0.4287550000000  0.4783030000000  0.5241920000000 1.0
C      1  0.4558330000000  0.4866440000000  0.4865470000000 1.0
C      1  0.5209270000000  0.4777420000000  0.4525360000000 1.0
C      1  0.5367950000000  0.5586660000000  0.5336670000000 1.0
C      1  0.4221010000000  0.5150240000000  0.5578660000000 1.0
C      1  0.4581190000000  0.4970480000000  0.5851200000000 1.0
C      1  0.5653090000000  0.5015520000000  0.5540520000000 1.0
C      1  0.5471110000000  0.5427690000000  0.4311340000000 1.0
C      1  0.5316010000000  0.5446220000000  0.5580920000000 1.0
C      1  0.4975150000000  0.5330780000000  0.4382590000000 1.0
C      1  0.5478260000000  0.5215040000000  0.5676560000000 1.0
C      1  0.5174540000000  0.4636300000000  0.4776430000000 1.0
C      1  0.4448730000000  0.5189620000000  0.5742150000000 1.0
C      1  0.5208650000000  0.5179800000000  0.4008150000000 1.0
C      1  0.5240430000000  0.4359990000000  0.4354450000000 1.0
C      1  0.4873380000000  0.5210530000000  0.4811140000000 1.0
C      1  0.5126800000000  0.5238310000000  0.4627780000000 1.0
C      1  0.4666770000000  0.4231080000000  0.4990720000000 1.0
C      1  0.5329790000000  0.5017500000000  0.4608650000000 1.0
C      1  0.5599820000000  0.4493710000000  0.5530670000000 1.0
C      1  0.5763740000000  0.5183100000000  0.4840770000000 1.0
C      1  0.4848850000000  0.4676960000000  0.5122850000000 1.0
END
