TITL C-117340-2053-12 0.0231601395666714 125000 -330.951925658369 0 0 50 (C1) n - 1
REM
REM in /rds/project/t2_vol4/rds-t2-cs072/BORA/CARBON/from-Arr/AIRSS/Generating-Clusters/GAP-ML-2020/Only-C1/SD-CG/HFTN-CG
REM
REM
REM
REM
REM
REM ./C.cell (11c1c37f851c82e70ff6c80c92926a4b)
REM AIRSS Version 0.9.1 bugfix July 2018 build 013d7b7c2542+ Fri, 06 Jul 2018 19:26:36 +0100
REM compiler GCC version 9.3.0
REM options -cpp -mtune=generic -march=x86-64 -g -O0
REM seed 474491932 476547469 -827713034 193933341 906478845 87228032 135511729 2011880261 -1053945200 -797293316 -1234305062 1728136697 -35323396 -231726497 -1392437741 751672246 1798915656 968184944 1875121744 1506724019 -583272610 1074794478 1098140861 779016011 1291657457 -1883631880 2076285065 -1932038486 -1692149028 322915426 -973493202 1819998019 -415208681
REM
CELL 1.54180   50.00000   50.00000   50.00000   90.00000   90.00000   90.00000
LATT -1
SFAC C  
C      1  0.5415870000000  0.4623430000000  0.4454300000000 1.0
C      1  0.5364790000000  0.5237000000000  0.5404670000000 1.0
C      1  0.5613290000000  0.5098100000000  0.4974450000000 1.0
C      1  0.4712220000000  0.4685230000000  0.4631640000000 1.0
C      1  0.4817400000000  0.5100890000000  0.4839040000000 1.0
C      1  0.4797870000000  0.5140290000000  0.4369030000000 1.0
C      1  0.5200570000000  0.4998760000000  0.5045000000000 1.0
C      1  0.4858540000000  0.4660960000000  0.5695220000000 1.0
C      1  0.4905660000000  0.4605700000000  0.4424070000000 1.0
C      1  0.5630180000000  0.4898630000000  0.5186330000000 1.0
C      1  0.5094740000000  0.5525490000000  0.4788130000000 1.0
C      1  0.5232830000000  0.5435160000000  0.4560790000000 1.0
C      1  0.4525730000000  0.5395870000000  0.4724220000000 1.0
C      1  0.4612440000000  0.4792470000000  0.5693560000000 1.0
C      1  0.5586900000000  0.5054830000000  0.5447880000000 1.0
C      1  0.4518590000000  0.4829670000000  0.5199020000000 1.0
C      1  0.5066200000000  0.5284520000000  0.5430600000000 1.0
C      1  0.4847450000000  0.4953230000000  0.5750630000000 1.0
C      1  0.4723690000000  0.5035020000000  0.5109800000000 1.0
C      1  0.5061420000000  0.5258220000000  0.4430490000000 1.0
C      1  0.5494440000000  0.5343960000000  0.4598740000000 1.0
C      1  0.5019830000000  0.5499150000000  0.5247750000000 1.0
C      1  0.5048980000000  0.4570410000000  0.5502950000000 1.0
C      1  0.4664690000000  0.4997800000000  0.4607230000000 1.0
C      1  0.4579360000000  0.5198460000000  0.5469020000000 1.0
C      1  0.4776210000000  0.5500740000000  0.5122960000000 1.0
C      1  0.5359270000000  0.4988290000000  0.5568970000000 1.0
C      1  0.4401820000000  0.5356320000000  0.4961060000000 1.0
C      1  0.5435660000000  0.4890990000000  0.4506130000000 1.0
C      1  0.5378000000000  0.5250310000000  0.5104690000000 1.0
C      1  0.5155800000000  0.4984650000000  0.4503310000000 1.0
C      1  0.4818090000000  0.5428890000000  0.4836510000000 1.0
C      1  0.4943590000000  0.4689330000000  0.4807850000000 1.0
C      1  0.4531690000000  0.5217010000000  0.4489920000000 1.0
C      1  0.5356230000000  0.4763390000000  0.5162990000000 1.0
C      1  0.5239120000000  0.4486200000000  0.5075400000000 1.0
C      1  0.4838950000000  0.5195690000000  0.5601890000000 1.0
C      1  0.5568020000000  0.5093610000000  0.4689960000000 1.0
C      1  0.4487880000000  0.4917570000000  0.5469090000000 1.0
C      1  0.4428700000000  0.4636140000000  0.5025090000000 1.0
C      1  0.4509280000000  0.4563380000000  0.4792120000000 1.0
C      1  0.5178520000000  0.4503170000000  0.4539400000000 1.0
C      1  0.5189770000000  0.4812690000000  0.5417870000000 1.0
C      1  0.4943190000000  0.4871510000000  0.4335620000000 1.0
C      1  0.5096950000000  0.4391450000000  0.5296470000000 1.0
C      1  0.5215190000000  0.5486450000000  0.5041290000000 1.0
C      1  0.4575240000000  0.5306520000000  0.5198390000000 1.0
C      1  0.5062580000000  0.4950890000000  0.4796890000000 1.0
C      1  0.4991150000000  0.5020320000000  0.5257650000000 1.0
C      1  0.5125440000000  0.4471240000000  0.4813910000000 1.0
END
