TITL C-111146-5603-2 1485.61463180354 125000 -934.258509642171 0 0 133 (C1) n - 1
REM
REM in /rds/project/t2_vol4/rds-t2-cs072/BORA/CARBON/from-Arr/AIRSS/Generating-Clusters/GAP-ML-2020/Only-C1/SD-CG/HFTN-CG
REM
REM
REM
REM
REM
REM ./C.cell (11c1c37f851c82e70ff6c80c92926a4b)
REM AIRSS Version 0.9.1 bugfix July 2018 build 013d7b7c2542+ Fri, 06 Jul 2018 19:26:36 +0100
REM compiler GCC version 9.3.0
REM options -cpp -mtune=generic -march=x86-64 -g -O0
REM seed -1525428557 -746346826 1936278439 68000462 -2119711819 2102875022 2124031447 -1746481017 -331341491 -1165711528 -1722130480 -1193702757 816098275 1888332177 1214006290 503624440 -667358978 883459327 -1360172941 -1365613184 1837793583 -751044686 1142196556 -1035357940 1910561331 -1312286013 1901667286 925746552 1033756671 1310537212 1698743320 1139543898 -389445196
REM
CELL 1.54180   50.00000   50.00000   50.00000   90.00000   90.00000   90.00000
LATT -1
SFAC C  
C      1  0.5919470000000  0.5707620000000  0.4642950000000 1.0
C      1  0.5457200000000  0.5235520000000  0.4273410000000 1.0
C      1  0.5125590000000  0.4699860000000  0.4092380000000 1.0
C      1  0.5587570000000  0.5403160000000  0.5848860000000 1.0
C      1  0.4789470000000  0.5055040000000  0.4038450000000 1.0
C      1  0.4564060000000  0.4891630000000  0.4759080000000 1.0
C      1  0.4082170000000  0.4935090000000  0.5032790000000 1.0
C      1  0.5638560000000  0.5134240000000  0.5771890000000 1.0
C      1  0.4558110000000  0.5488860000000  0.4556780000000 1.0
C      1  0.5074500000000  0.4337590000000  0.4297770000000 1.0
C      1  0.5164880000000  0.5473950000000  0.5149320000000 1.0
C      1  0.4976850000000  0.5072570000000  0.4685620000000 1.0
C      1  0.5668400000000  0.5649320000000  0.5748510000000 1.0
C      1  0.5502680000000  0.5024850000000  0.5125630000000 1.0
C      1  0.4462680000000  0.4467890000000  0.5493460000000 1.0
C      1  0.5234680000000  0.5158040000000  0.5498810000000 1.0
C      1  0.5229650000000  0.4150020000000  0.4725760000000 1.0
C      1  0.4501570000000  0.5770660000000  0.4982610000000 1.0
C      1  0.4901600000000  0.4738160000000  0.5356380000000 1.0
C      1  0.4668200000000  0.5371450000000  0.5854660000000 1.0
C      1  0.5028700000000  0.5887660000000  0.5498330000000 1.0
C      1  0.4892020000000  0.4438200000000  0.5342330000000 1.0
C      1  0.5422060000000  0.5365720000000  0.4794930000000 1.0
C      1  0.5772400000000  0.4507820000000  0.5395950000000 1.0
C      1  0.4174470000000  0.5196150000000  0.4595040000000 1.0
C      1  0.5217680000000  0.5679220000000  0.5863620000000 1.0
C      1  0.4348040000000  0.5551260000000  0.4991180000000 1.0
C      1  0.5308260000000  0.5423460000000  0.5958730000000 1.0
C      1  0.4878030000000  0.5518080000000  0.4974870000000 1.0
C      1  0.5784510000000  0.5383850000000  0.5069430000000 1.0
C      1  0.5435150000000  0.5780770000000  0.5675700000000 1.0
C      1  0.4333930000000  0.5370790000000  0.5218430000000 1.0
C      1  0.4913190000000  0.4327950000000  0.5627270000000 1.0
C      1  0.4302550000000  0.4672060000000  0.5371330000000 1.0
C      1  0.5606180000000  0.4824710000000  0.4896820000000 1.0
C      1  0.5070500000000  0.4979780000000  0.4054000000000 1.0
C      1  0.5735690000000  0.5172990000000  0.5247420000000 1.0
C      1  0.4521310000000  0.5359970000000  0.4308480000000 1.0
C      1  0.4371480000000  0.4346950000000  0.4548110000000 1.0
C      1  0.5090360000000  0.4840320000000  0.5168030000000 1.0
C      1  0.4781410000000  0.5813520000000  0.5042930000000 1.0
C      1  0.4984790000000  0.4779900000000  0.4600960000000 1.0
C      1  0.5664010000000  0.5655810000000  0.5063110000000 1.0
C      1  0.5772880000000  0.4572970000000  0.4458930000000 1.0
C      1  0.4527500000000  0.5416360000000  0.5411080000000 1.0
C      1  0.5423440000000  0.4989510000000  0.5910910000000 1.0
C      1  0.4635390000000  0.4685570000000  0.4955800000000 1.0
C      1  0.4911350000000  0.4507480000000  0.4122250000000 1.0
C      1  0.5503880000000  0.4417930000000  0.5449540000000 1.0
C      1  0.5789290000000  0.5484590000000  0.4557830000000 1.0
C      1  0.5881250000000  0.4826240000000  0.4518450000000 1.0
C      1  0.5382100000000  0.4638670000000  0.4790470000000 1.0
C      1  0.4622240000000  0.5673370000000  0.5493310000000 1.0
C      1  0.5710470000000  0.5767530000000  0.4800340000000 1.0
C      1  0.4217640000000  0.4717720000000  0.4320320000000 1.0
C      1  0.5576690000000  0.4289950000000  0.5018410000000 1.0
C      1  0.4511720000000  0.4843260000000  0.5216520000000 1.0
C      1  0.5386080000000  0.4283240000000  0.5225510000000 1.0
C      1  0.4683220000000  0.5101830000000  0.5875660000000 1.0
C      1  0.4612170000000  0.4313680000000  0.5280540000000 1.0
C      1  0.4158790000000  0.4474290000000  0.4694520000000 1.0
C      1  0.5033810000000  0.4735720000000  0.5892760000000 1.0
C      1  0.5206530000000  0.5157590000000  0.5993440000000 1.0
C      1  0.5019730000000  0.5089710000000  0.4980600000000 1.0
C      1  0.5056180000000  0.5332200000000  0.5398980000000 1.0
C      1  0.5571000000000  0.5489220000000  0.4355260000000 1.0
C      1  0.4914860000000  0.4631590000000  0.4837390000000 1.0
C      1  0.5851000000000  0.4640420000000  0.4936260000000 1.0
C      1  0.5804470000000  0.4433430000000  0.5119140000000 1.0
C      1  0.5315020000000  0.4747060000000  0.5822400000000 1.0
C      1  0.4817210000000  0.4129400000000  0.4708350000000 1.0
C      1  0.4296610000000  0.5182750000000  0.4333330000000 1.0
C      1  0.5391570000000  0.5711070000000  0.4424170000000 1.0
C      1  0.4554380000000  0.4226890000000  0.4743030000000 1.0
C      1  0.4750540000000  0.5316650000000  0.4144750000000 1.0
C      1  0.5460420000000  0.5846800000000  0.4681690000000 1.0
C      1  0.4125620000000  0.4649530000000  0.5137290000000 1.0
C      1  0.5772050000000  0.5048700000000  0.5525230000000 1.0
C      1  0.5430160000000  0.4694040000000  0.5553110000000 1.0
C      1  0.5277030000000  0.5886240000000  0.4893630000000 1.0
C      1  0.4060270000000  0.4962610000000  0.4728450000000 1.0
C      1  0.5288380000000  0.5239610000000  0.5009430000000 1.0
C      1  0.5120660000000  0.5694850000000  0.4360030000000 1.0
C      1  0.5311330000000  0.5863700000000  0.5426960000000 1.0
C      1  0.4750370000000  0.4926550000000  0.4557160000000 1.0
C      1  0.4496710000000  0.4374120000000  0.5001440000000 1.0
C      1  0.5283400000000  0.4747340000000  0.4518350000000 1.0
C      1  0.4026840000000  0.5024710000000  0.5513520000000 1.0
C      1  0.4579520000000  0.4865320000000  0.4062700000000 1.0
C      1  0.5316860000000  0.4922050000000  0.5345400000000 1.0
C      1  0.3913190000000  0.5030070000000  0.5275800000000 1.0
C      1  0.5724840000000  0.5284890000000  0.4765420000000 1.0
C      1  0.4402880000000  0.4498170000000  0.4294680000000 1.0
C      1  0.4327220000000  0.4943380000000  0.4188220000000 1.0
C      1  0.5376370000000  0.5739870000000  0.5150040000000 1.0
C      1  0.4517830000000  0.5150060000000  0.4902840000000 1.0
C      1  0.4833850000000  0.5531560000000  0.4666680000000 1.0
C      1  0.4258050000000  0.4887540000000  0.5574060000000 1.0
C      1  0.5273540000000  0.5228930000000  0.4607780000000 1.0
C      1  0.4774750000000  0.5250280000000  0.5052810000000 1.0
C      1  0.4078310000000  0.4721500000000  0.4572810000000 1.0
C      1  0.5150700000000  0.4609580000000  0.4989320000000 1.0
C      1  0.4628610000000  0.4584910000000  0.4121460000000 1.0
C      1  0.5734320000000  0.4761670000000  0.5528560000000 1.0
C      1  0.5948770000000  0.4600240000000  0.4676540000000 1.0
C      1  0.5108540000000  0.4345620000000  0.5143220000000 1.0
C      1  0.4335600000000  0.5080040000000  0.5119060000000 1.0
C      1  0.4951970000000  0.5005290000000  0.5959840000000 1.0
C      1  0.5011840000000  0.5411630000000  0.4244000000000 1.0
C      1  0.5007320000000  0.5321140000000  0.4540540000000 1.0
C      1  0.4535000000000  0.4903650000000  0.5685320000000 1.0
C      1  0.5301380000000  0.4532030000000  0.4304890000000 1.0
C      1  0.4974960000000  0.5771310000000  0.5759100000000 1.0
C      1  0.5031270000000  0.4164920000000  0.4516570000000 1.0
C      1  0.5443980000000  0.5020310000000  0.4481500000000 1.0
C      1  0.5456680000000  0.4327510000000  0.4737580000000 1.0
C      1  0.5549480000000  0.4417780000000  0.4435400000000 1.0
C      1  0.5210990000000  0.5216650000000  0.4127740000000 1.0
C      1  0.4794950000000  0.5847970000000  0.5337170000000 1.0
C      1  0.4700200000000  0.4938740000000  0.5417370000000 1.0
C      1  0.4761690000000  0.4022150000000  0.5342050000000 1.0
C      1  0.4365810000000  0.5376990000000  0.4747520000000 1.0
C      1  0.5686990000000  0.5005270000000  0.4661880000000 1.0
C      1  0.5004010000000  0.5912820000000  0.4832220000000 1.0
C      1  0.4846830000000  0.4537010000000  0.5810970000000 1.0
C      1  0.4960990000000  0.5781320000000  0.4585680000000 1.0
C      1  0.5019010000000  0.4114660000000  0.4946590000000 1.0
C      1  0.4589920000000  0.4610540000000  0.5715960000000 1.0
C      1  0.4727400000000  0.5621250000000  0.5757850000000 1.0
C      1  0.4769860000000  0.5232380000000  0.5351050000000 1.0
C      1  0.4209150000000  0.4451270000000  0.4969920000000 1.0
C      1  0.4845880000000  0.4065920000000  0.5607200000000 1.0
C      1  0.4921820000000  0.3924680000000  0.5147970000000 1.0
END
