TITL C-111164-5700-8 0.0406567327500597 125000 -291.690222405812 0 0 43 (C1) n - 1
REM
REM in /rds/project/t2_vol4/rds-t2-cs072/BORA/CARBON/from-Arr/AIRSS/Generating-Clusters/GAP-ML-2020/Only-C1/SD-CG/HFTN-CG
REM
REM
REM
REM
REM
REM ./C.cell (11c1c37f851c82e70ff6c80c92926a4b)
REM AIRSS Version 0.9.1 bugfix July 2018 build 013d7b7c2542+ Fri, 06 Jul 2018 19:26:36 +0100
REM compiler GCC version 9.3.0
REM options -cpp -mtune=generic -march=x86-64 -g -O0
REM seed 283591957 -807123121 800210494 -818076809 994305674 2101560336 951603024 -481418304 1082170672 1962224133 -358587768 -1266255150 -1299428645 43103136 729334403 954859211 -1664642863 672840735 -1604405505 1739808938 1930426107 -1763037919 -1590362706 1274235611 728472044 -71428223 1247234952 1099407053 -1702100575 -1493450134 1587365895 317650421 1611403418
REM
CELL 1.54180   50.00000   50.00000   50.00000   90.00000   90.00000   90.00000
LATT -1
SFAC C  
C      1  0.4805800000000  0.4748030000000  0.4535360000000 1.0
C      1  0.4813210000000  0.5031290000000  0.5548470000000 1.0
C      1  0.5078040000000  0.4646510000000  0.4560530000000 1.0
C      1  0.4812770000000  0.5515840000000  0.5385900000000 1.0
C      1  0.4875410000000  0.4570760000000  0.5423590000000 1.0
C      1  0.4579910000000  0.5352730000000  0.4691780000000 1.0
C      1  0.4639670000000  0.4599170000000  0.5027860000000 1.0
C      1  0.5304160000000  0.5405810000000  0.4787490000000 1.0
C      1  0.4602430000000  0.4678720000000  0.4750980000000 1.0
C      1  0.5040640000000  0.5531700000000  0.4764010000000 1.0
C      1  0.4514230000000  0.5103260000000  0.4573970000000 1.0
C      1  0.5611260000000  0.4569750000000  0.5034020000000 1.0
C      1  0.5423990000000  0.5326450000000  0.5039590000000 1.0
C      1  0.5290350000000  0.5438970000000  0.5279360000000 1.0
C      1  0.5352440000000  0.5198070000000  0.4597760000000 1.0
C      1  0.4674570000000  0.4802040000000  0.5449900000000 1.0
C      1  0.5170350000000  0.5273180000000  0.5481390000000 1.0
C      1  0.5189990000000  0.5157540000000  0.4385450000000 1.0
C      1  0.4928410000000  0.5216630000000  0.4408660000000 1.0
C      1  0.4992240000000  0.4940260000000  0.5126890000000 1.0
C      1  0.4432450000000  0.4916560000000  0.4769790000000 1.0
C      1  0.4872460000000  0.4476060000000  0.5148660000000 1.0
C      1  0.4732950000000  0.5003480000000  0.4425850000000 1.0
C      1  0.5470790000000  0.4975000000000  0.4731160000000 1.0
C      1  0.5335980000000  0.4585710000000  0.5549440000000 1.0
C      1  0.5082800000000  0.4515620000000  0.5598460000000 1.0
C      1  0.5098030000000  0.4409780000000  0.4963030000000 1.0
C      1  0.4881560000000  0.5317810000000  0.5574620000000 1.0
C      1  0.5349340000000  0.4714710000000  0.4680630000000 1.0
C      1  0.5067690000000  0.5611870000000  0.5244970000000 1.0
C      1  0.5589860000000  0.4817400000000  0.5177600000000 1.0
C      1  0.5017110000000  0.4416880000000  0.4704000000000 1.0
C      1  0.4844490000000  0.5427500000000  0.4585750000000 1.0
C      1  0.4519840000000  0.5328190000000  0.4979030000000 1.0
C      1  0.4941010000000  0.5057830000000  0.4910400000000 1.0
C      1  0.5372640000000  0.4532760000000  0.4903090000000 1.0
C      1  0.4675370000000  0.5512470000000  0.5127340000000 1.0
C      1  0.5065620000000  0.5024120000000  0.5397370000000 1.0
C      1  0.5536940000000  0.5057420000000  0.4999980000000 1.0
C      1  0.5523580000000  0.4733300000000  0.5441590000000 1.0
C      1  0.4925390000000  0.5617590000000  0.5000710000000 1.0
C      1  0.4435070000000  0.5032640000000  0.5029460000000 1.0
C      1  0.4529160000000  0.4808580000000  0.5204140000000 1.0
END
