TITL C-112729-620-6 30.3249446587749 125000 -240.622378247425 0 0 36 (C1) n - 1
REM
REM in /rds/project/t2_vol4/rds-t2-cs072/BORA/CARBON/from-Arr/AIRSS/Generating-Clusters/GAP-ML-2020/Only-C1/SD-CG/HFTN-CG
REM
REM
REM
REM
REM
REM ./C.cell (11c1c37f851c82e70ff6c80c92926a4b)
REM AIRSS Version 0.9.1 bugfix July 2018 build 013d7b7c2542+ Fri, 06 Jul 2018 19:26:36 +0100
REM compiler GCC version 9.3.0
REM options -cpp -mtune=generic -march=x86-64 -g -O0
REM seed -2102318986 -1300669684 -643616547 -680170805 1306734707 1381347401 -1703490643 -20487453 1997879653 1328215343 1068859507 1596874401 208976695 -1144288723 -750591601 699860318 1888431933 717428221 1175870899 -438487120 66383110 26069381 458795685 169532714 594698373 1776133489 572996290 -1424841773 -1293019606 -1690819178 1311597732 -726114497 -781249949
REM
CELL 1.54180   50.00000   50.00000   50.00000   90.00000   90.00000   90.00000
LATT -1
SFAC C  
C      1  0.5002520000000  0.4723980000000  0.5337800000000 1.0
C      1  0.5003150000000  0.4991680000000  0.4429500000000 1.0
C      1  0.5017540000000  0.5407770000000  0.5365360000000 1.0
C      1  0.4722850000000  0.5100570000000  0.5532400000000 1.0
C      1  0.5342630000000  0.4666810000000  0.4585210000000 1.0
C      1  0.4765660000000  0.4855680000000  0.4979560000000 1.0
C      1  0.5334880000000  0.4465130000000  0.4797160000000 1.0
C      1  0.4746850000000  0.5019200000000  0.4550040000000 1.0
C      1  0.5498280000000  0.4499100000000  0.5023260000000 1.0
C      1  0.4565950000000  0.4852700000000  0.5186630000000 1.0
C      1  0.5216450000000  0.5134000000000  0.4558550000000 1.0
C      1  0.5269390000000  0.4897480000000  0.4983160000000 1.0
C      1  0.5158900000000  0.5156940000000  0.5044360000000 1.0
C      1  0.5178840000000  0.5063770000000  0.5700580000000 1.0
C      1  0.4900430000000  0.4577370000000  0.4620690000000 1.0
C      1  0.4779120000000  0.5354460000000  0.5206610000000 1.0
C      1  0.4712130000000  0.4782350000000  0.4700850000000 1.0
C      1  0.4751270000000  0.4846610000000  0.5419810000000 1.0
C      1  0.5332930000000  0.4856640000000  0.5672920000000 1.0
C      1  0.5016050000000  0.5582450000000  0.4541790000000 1.0
C      1  0.5272970000000  0.4733720000000  0.5424930000000 1.0
C      1  0.4419870000000  0.5103900000000  0.5143800000000 1.0
C      1  0.4435330000000  0.5202720000000  0.4886930000000 1.0
C      1  0.5197820000000  0.5393730000000  0.4660030000000 1.0
C      1  0.4798310000000  0.5492650000000  0.4639430000000 1.0
C      1  0.5436360000000  0.4718280000000  0.5168860000000 1.0
C      1  0.4685250000000  0.5245880000000  0.4736990000000 1.0
C      1  0.5288540000000  0.5409980000000  0.4928410000000 1.0
C      1  0.5240430000000  0.5410840000000  0.5191850000000 1.0
C      1  0.5087660000000  0.4704230000000  0.4457800000000 1.0
C      1  0.5008650000000  0.4711230000000  0.5046140000000 1.0
C      1  0.4557720000000  0.5261700000000  0.5342000000000 1.0
C      1  0.4864060000000  0.5156330000000  0.4991860000000 1.0
C      1  0.5052520000000  0.4480440000000  0.4856590000000 1.0
C      1  0.5349910000000  0.4919590000000  0.4704580000000 1.0
C      1  0.4988790000000  0.5220090000000  0.5583570000000 1.0
END
