TITL C-117340-2053-3 0.0141107739552123 125000 -166.111123306912 0 0 26 (C1) n - 1
REM
REM in /rds/project/t2_vol4/rds-t2-cs072/BORA/CARBON/from-Arr/AIRSS/Generating-Clusters/GAP-ML-2020/Only-C1/SD-CG/HFTN-CG
REM
REM
REM
REM
REM
REM ./C.cell (11c1c37f851c82e70ff6c80c92926a4b)
REM AIRSS Version 0.9.1 bugfix July 2018 build 013d7b7c2542+ Fri, 06 Jul 2018 19:26:36 +0100
REM compiler GCC version 9.3.0
REM options -cpp -mtune=generic -march=x86-64 -g -O0
REM seed -1178598680 522063141 -2139137732 83152795 -488332509 -1886344750 907671320 -443985231 -1474376501 -321746852 1060044695 972067750 1409727423 1844234112 -1110413015 685993238 1096666641 -1597219428 -1052589206 277639830 1531727527 -69648521 -1959307610 -1885346366 -697386542 -1450593913 -1485884181 1502611443 916475751 -327777432 -1179482889 1131776316 -719884389
REM
CELL 1.54180   50.00000   50.00000   50.00000   90.00000   90.00000   90.00000
LATT -1
SFAC C  
C      1  0.5531760000000  0.4654690000000  0.4827090000000 1.0
C      1  0.5359860000000  0.5103140000000  0.5322170000000 1.0
C      1  0.4912470000000  0.5313010000000  0.5348780000000 1.0
C      1  0.5292120000000  0.5785870000000  0.4854490000000 1.0
C      1  0.5125700000000  0.4885990000000  0.5053330000000 1.0
C      1  0.5089260000000  0.5116840000000  0.5401810000000 1.0
C      1  0.5026880000000  0.4664440000000  0.5236090000000 1.0
C      1  0.5266580000000  0.4960450000000  0.4652710000000 1.0
C      1  0.4662390000000  0.4990690000000  0.4758510000000 1.0
C      1  0.5199080000000  0.4473610000000  0.5130870000000 1.0
C      1  0.5157640000000  0.5179650000000  0.4568450000000 1.0
C      1  0.5410600000000  0.4986870000000  0.5091920000000 1.0
C      1  0.4719560000000  0.5251270000000  0.5156880000000 1.0
C      1  0.5088320000000  0.4759710000000  0.4770920000000 1.0
C      1  0.4490680000000  0.5082790000000  0.5232790000000 1.0
C      1  0.4934630000000  0.4860200000000  0.5432060000000 1.0
C      1  0.4799580000000  0.4754780000000  0.4813210000000 1.0
C      1  0.4753790000000  0.4683690000000  0.5098790000000 1.0
C      1  0.5513250000000  0.4928760000000  0.4832900000000 1.0
C      1  0.4371770000000  0.4990160000000  0.4737760000000 1.0
C      1  0.5273580000000  0.4557050000000  0.4881500000000 1.0
C      1  0.4792890000000  0.5220980000000  0.4888360000000 1.0
C      1  0.5147960000000  0.5577800000000  0.4834830000000 1.0
C      1  0.5037020000000  0.5326590000000  0.4785870000000 1.0
C      1  0.4372630000000  0.5019550000000  0.4990860000000 1.0
C      1  0.4669990000000  0.4871430000000  0.5297060000000 1.0
END
