TITL C-111140-5675-7 -0.00474053034283795 125000 -406.728420021501 0 0 60 (C1) n - 1
REM
REM in /rds/project/t2_vol4/rds-t2-cs072/BORA/CARBON/from-Arr/AIRSS/Generating-Clusters/GAP-ML-2020/Only-C1/SD-CG/HFTN-CG
REM
REM
REM
REM
REM
REM ./C.cell (11c1c37f851c82e70ff6c80c92926a4b)
REM AIRSS Version 0.9.1 bugfix July 2018 build 013d7b7c2542+ Fri, 06 Jul 2018 19:26:36 +0100
REM compiler GCC version 9.3.0
REM options -cpp -mtune=generic -march=x86-64 -g -O0
REM seed -1065626887 1869167633 -1134755504 -1772122536 235489915 -403309052 -396523072 793132154 -2013984732 147634649 499680079 781847657 -702339582 -1767163980 1968432722 -723335517 -310557418 -1492214468 -1916167446 1091628497 -1947742070 -1143103127 -993219397 -1595520956 15958147 -760030560 -810921814 703014063 1109215576 1147967949 2142302811 -422899227 -1477220370
REM
CELL 1.54180   50.00000   50.00000   50.00000   90.00000   90.00000   90.00000
LATT -1
SFAC C  
C      1  0.4754780000000  0.5349810000000  0.4309020000000 1.0
C      1  0.4631010000000  0.4570070000000  0.5440680000000 1.0
C      1  0.4909200000000  0.4132510000000  0.5460710000000 1.0
C      1  0.5176970000000  0.4872070000000  0.4391050000000 1.0
C      1  0.4881520000000  0.5043670000000  0.4748490000000 1.0
C      1  0.4643860000000  0.5448190000000  0.4549700000000 1.0
C      1  0.5508310000000  0.4832150000000  0.5543260000000 1.0
C      1  0.5456080000000  0.5254270000000  0.5708080000000 1.0
C      1  0.4441580000000  0.4604460000000  0.5222490000000 1.0
C      1  0.4460720000000  0.4495760000000  0.4956650000000 1.0
C      1  0.4778790000000  0.4826750000000  0.5490710000000 1.0
C      1  0.4091630000000  0.4835820000000  0.4847710000000 1.0
C      1  0.4247250000000  0.5013810000000  0.5001440000000 1.0
C      1  0.4740200000000  0.5138070000000  0.5571720000000 1.0
C      1  0.5149940000000  0.5062860000000  0.4633100000000 1.0
C      1  0.4483950000000  0.5240760000000  0.4659260000000 1.0
C      1  0.5119710000000  0.5387080000000  0.5364990000000 1.0
C      1  0.5292490000000  0.5177720000000  0.5254960000000 1.0
C      1  0.5140760000000  0.4467280000000  0.5019050000000 1.0
C      1  0.5591770000000  0.4476270000000  0.5156860000000 1.0
C      1  0.5028710000000  0.5315090000000  0.4268560000000 1.0
C      1  0.5656550000000  0.5292280000000  0.4973570000000 1.0
C      1  0.5457540000000  0.4961100000000  0.4361040000000 1.0
C      1  0.4805010000000  0.5584010000000  0.4741030000000 1.0
C      1  0.4538740000000  0.5399010000000  0.5122190000000 1.0
C      1  0.4407130000000  0.4890730000000  0.5201420000000 1.0
C      1  0.4759740000000  0.5557620000000  0.5025490000000 1.0
C      1  0.4991300000000  0.5014960000000  0.4220170000000 1.0
C      1  0.5051750000000  0.4736300000000  0.5510920000000 1.0
C      1  0.5649710000000  0.5061330000000  0.4498420000000 1.0
C      1  0.5611940000000  0.5096550000000  0.4779470000000 1.0
C      1  0.5089070000000  0.5554840000000  0.4695970000000 1.0
C      1  0.4974480000000  0.4484670000000  0.4774640000000 1.0
C      1  0.4908880000000  0.4995040000000  0.5017120000000 1.0
C      1  0.5420770000000  0.4452910000000  0.4938010000000 1.0
C      1  0.5544350000000  0.5542280000000  0.5285470000000 1.0
C      1  0.4993000000000  0.5268960000000  0.5601370000000 1.0
C      1  0.4379070000000  0.5260590000000  0.4919310000000 1.0
C      1  0.5494400000000  0.5551790000000  0.5011600000000 1.0
C      1  0.4531550000000  0.4713170000000  0.4619620000000 1.0
C      1  0.5388570000000  0.4647710000000  0.4732560000000 1.0
C      1  0.5179540000000  0.4666630000000  0.5252330000000 1.0
C      1  0.5022030000000  0.5552620000000  0.5152070000000 1.0
C      1  0.5187520000000  0.4947150000000  0.5095690000000 1.0
C      1  0.5150610000000  0.4613830000000  0.4578280000000 1.0
C      1  0.5476430000000  0.4636400000000  0.5340060000000 1.0
C      1  0.5220110000000  0.5596310000000  0.4945380000000 1.0
C      1  0.5622540000000  0.5107360000000  0.5532530000000 1.0
C      1  0.4589840000000  0.5221220000000  0.5338430000000 1.0
C      1  0.5613690000000  0.5247500000000  0.5271490000000 1.0
C      1  0.4757790000000  0.4330240000000  0.5486830000000 1.0
C      1  0.4720640000000  0.5061070000000  0.4285160000000 1.0
C      1  0.5350930000000  0.4937220000000  0.4830320000000 1.0
C      1  0.4691460000000  0.4966410000000  0.5218500000000 1.0
C      1  0.5251390000000  0.4861720000000  0.5669560000000 1.0
C      1  0.5209160000000  0.5138930000000  0.5751180000000 1.0
C      1  0.4628220000000  0.4984320000000  0.4562570000000 1.0
C      1  0.4687870000000  0.4502850000000  0.4766000000000 1.0
C      1  0.5163430000000  0.5344450000000  0.4516320000000 1.0
C      1  0.4294030000000  0.4673470000000  0.4779410000000 1.0
END
