TITL C-111168-5889-4 0.116372926237771 125000 -746.323785723124 0 0 107 (C1) n - 1
REM
REM in /rds/project/t2_vol4/rds-t2-cs072/BORA/CARBON/from-Arr/AIRSS/Generating-Clusters/GAP-ML-2020/Only-C1/SD-CG/HFTN-CG
REM
REM
REM
REM
REM
REM ./C.cell (11c1c37f851c82e70ff6c80c92926a4b)
REM AIRSS Version 0.9.1 bugfix July 2018 build 013d7b7c2542+ Fri, 06 Jul 2018 19:26:36 +0100
REM compiler GCC version 9.3.0
REM options -cpp -mtune=generic -march=x86-64 -g -O0
REM seed 579218617 1900485767 1921166345 922302703 -1699545302 1230687758 -323380331 -27428921 -1299061808 1644437777 150291361 2094685171 526227114 -1057185042 -1377533693 -1099482933 -1098177823 1196256095 -82701941 46702236 -1338177940 1985059544 -2144191009 264738861 -901550449 554554911 552690319 353664270 -2089960340 -1176104322 489275151 267373497 -424569307
REM
CELL 1.54180   50.00000   50.00000   50.00000   90.00000   90.00000   90.00000
LATT -1
SFAC C  
C      1  0.5435160000000  0.5153740000000  0.4671870000000 1.0
C      1  0.4465220000000  0.4860670000000  0.5819200000000 1.0
C      1  0.5113340000000  0.5081550000000  0.4561440000000 1.0
C      1  0.5031400000000  0.5794080000000  0.5431310000000 1.0
C      1  0.4753810000000  0.4631110000000  0.5797730000000 1.0
C      1  0.5390610000000  0.4732370000000  0.4529930000000 1.0
C      1  0.5016830000000  0.5300730000000  0.4991050000000 1.0
C      1  0.4688350000000  0.4162140000000  0.5204700000000 1.0
C      1  0.5401700000000  0.5717200000000  0.5326880000000 1.0
C      1  0.4471330000000  0.4982400000000  0.4414290000000 1.0
C      1  0.4902470000000  0.4065500000000  0.5051980000000 1.0
C      1  0.5087980000000  0.5265380000000  0.4086980000000 1.0
C      1  0.5243680000000  0.5215220000000  0.5849870000000 1.0
C      1  0.5737660000000  0.4621460000000  0.4933540000000 1.0
C      1  0.4332660000000  0.5632080000000  0.4982710000000 1.0
C      1  0.4519350000000  0.4323030000000  0.5028750000000 1.0
C      1  0.4200300000000  0.4991980000000  0.5458400000000 1.0
C      1  0.4931560000000  0.5529090000000  0.4799240000000 1.0
C      1  0.4808710000000  0.5640990000000  0.5521490000000 1.0
C      1  0.5514480000000  0.5484120000000  0.5199510000000 1.0
C      1  0.4452100000000  0.5458080000000  0.4539240000000 1.0
C      1  0.5513300000000  0.5052320000000  0.4213870000000 1.0
C      1  0.4264280000000  0.5546780000000  0.4729690000000 1.0
C      1  0.5172380000000  0.5486790000000  0.5770770000000 1.0
C      1  0.5530290000000  0.5066070000000  0.5475420000000 1.0
C      1  0.5257050000000  0.4630460000000  0.5739640000000 1.0
C      1  0.5442690000000  0.5628260000000  0.4579220000000 1.0
C      1  0.5065940000000  0.5873990000000  0.4911880000000 1.0
C      1  0.4664880000000  0.4527720000000  0.4575140000000 1.0
C      1  0.4175850000000  0.4722000000000  0.5108150000000 1.0
C      1  0.5138490000000  0.4733830000000  0.5210570000000 1.0
C      1  0.4963890000000  0.5458590000000  0.4254840000000 1.0
C      1  0.5428600000000  0.5058210000000  0.4958250000000 1.0
C      1  0.5189400000000  0.4701250000000  0.4097310000000 1.0
C      1  0.5411640000000  0.4591050000000  0.5292360000000 1.0
C      1  0.4424980000000  0.4554910000000  0.5455540000000 1.0
C      1  0.5335140000000  0.4221810000000  0.4952580000000 1.0
C      1  0.5694810000000  0.4882600000000  0.5076540000000 1.0
C      1  0.4954880000000  0.4564730000000  0.4519630000000 1.0
C      1  0.5687420000000  0.5268050000000  0.5318010000000 1.0
C      1  0.5469510000000  0.5048330000000  0.5766330000000 1.0
C      1  0.5459340000000  0.4781740000000  0.5841530000000 1.0
C      1  0.4865650000000  0.5255810000000  0.4441390000000 1.0
C      1  0.5177230000000  0.5851010000000  0.5182250000000 1.0
C      1  0.5104440000000  0.4247110000000  0.5421280000000 1.0
C      1  0.5002370000000  0.4796090000000  0.5740650000000 1.0
C      1  0.5258410000000  0.5682420000000  0.5575790000000 1.0
C      1  0.5464260000000  0.4804220000000  0.4093020000000 1.0
C      1  0.4111510000000  0.4974020000000  0.5178700000000 1.0
C      1  0.5004060000000  0.5032510000000  0.4826130000000 1.0
C      1  0.5822800000000  0.5341710000000  0.4882120000000 1.0
C      1  0.4801130000000  0.5767570000000  0.4927590000000 1.0
C      1  0.4872290000000  0.4146330000000  0.4788160000000 1.0
C      1  0.4091520000000  0.5221270000000  0.5019920000000 1.0
C      1  0.5213170000000  0.4870120000000  0.4957240000000 1.0
C      1  0.4321790000000  0.5221680000000  0.5578430000000 1.0
C      1  0.4313570000000  0.4771950000000  0.5588180000000 1.0
C      1  0.5305270000000  0.4424260000000  0.4227450000000 1.0
C      1  0.4758650000000  0.5261370000000  0.5153160000000 1.0
C      1  0.5771060000000  0.4694520000000  0.4459280000000 1.0
C      1  0.4885660000000  0.5489080000000  0.5750230000000 1.0
C      1  0.4655830000000  0.4447870000000  0.5586440000000 1.0
C      1  0.4571700000000  0.4693830000000  0.6007700000000 1.0
C      1  0.4701370000000  0.4771440000000  0.5091920000000 1.0
C      1  0.4509670000000  0.5141230000000  0.5784580000000 1.0
C      1  0.4712100000000  0.5383370000000  0.4654650000000 1.0
C      1  0.4707650000000  0.5079130000000  0.4265320000000 1.0
C      1  0.5864510000000  0.4599030000000  0.4691820000000 1.0
C      1  0.5159630000000  0.5709620000000  0.4663470000000 1.0
C      1  0.4581980000000  0.5714330000000  0.5085350000000 1.0
C      1  0.4897730000000  0.5036860000000  0.4047320000000 1.0
C      1  0.4989560000000  0.4801580000000  0.3928470000000 1.0
C      1  0.5000500000000  0.5063920000000  0.5879230000000 1.0
C      1  0.5061340000000  0.4517400000000  0.4794700000000 1.0
C      1  0.4421900000000  0.4578730000000  0.5152790000000 1.0
C      1  0.5368630000000  0.5545530000000  0.4307350000000 1.0
C      1  0.4931700000000  0.4569470000000  0.5076080000000 1.0
C      1  0.5651010000000  0.5536580000000  0.4943900000000 1.0
C      1  0.5159040000000  0.4133820000000  0.5160340000000 1.0
C      1  0.5031310000000  0.4929240000000  0.5411370000000 1.0
C      1  0.4312720000000  0.5194060000000  0.4510180000000 1.0
C      1  0.5134440000000  0.4231540000000  0.4699410000000 1.0
C      1  0.5280260000000  0.5266880000000  0.5131370000000 1.0
C      1  0.5597120000000  0.4811300000000  0.5336070000000 1.0
C      1  0.5821060000000  0.5153340000000  0.5097080000000 1.0
C      1  0.4197470000000  0.5448010000000  0.5163720000000 1.0
C      1  0.4773510000000  0.5237810000000  0.5841120000000 1.0
C      1  0.4808950000000  0.4259250000000  0.5446150000000 1.0
C      1  0.5584340000000  0.5412550000000  0.4688470000000 1.0
C      1  0.5572530000000  0.4971910000000  0.4487380000000 1.0
C      1  0.5485500000000  0.4476760000000  0.5009250000000 1.0
C      1  0.5367070000000  0.5291930000000  0.4163050000000 1.0
C      1  0.5291460000000  0.4440060000000  0.5520500000000 1.0
C      1  0.4626580000000  0.5532080000000  0.5321630000000 1.0
C      1  0.4775750000000  0.4995190000000  0.5281970000000 1.0
C      1  0.4567900000000  0.4790200000000  0.4602670000000 1.0
C      1  0.4702490000000  0.4934060000000  0.4837440000000 1.0
C      1  0.4147100000000  0.5276260000000  0.4736690000000 1.0
C      1  0.5119520000000  0.5666000000000  0.4364570000000 1.0
C      1  0.4635510000000  0.4312480000000  0.4764570000000 1.0
C      1  0.5129500000000  0.4798900000000  0.4423240000000 1.0
C      1  0.5236440000000  0.5137900000000  0.5389480000000 1.0
C      1  0.4606190000000  0.5209870000000  0.4896480000000 1.0
C      1  0.5550980000000  0.4583950000000  0.4287300000000 1.0
C      1  0.5323310000000  0.4650980000000  0.4804970000000 1.0
C      1  0.5138090000000  0.4329230000000  0.4422570000000 1.0
C      1  0.4348730000000  0.5439080000000  0.5401520000000 1.0
END
