TITL C-112711-663-5 -0.109707182041228 125000 -221.911194008909 0 0 34 (C1) n - 1
REM
REM in /rds/project/t2_vol4/rds-t2-cs072/BORA/CARBON/from-Arr/AIRSS/Generating-Clusters/GAP-ML-2020/Only-C1/SD-CG/HFTN-CG
REM
REM
REM
REM
REM
REM ./C.cell (11c1c37f851c82e70ff6c80c92926a4b)
REM AIRSS Version 0.9.1 bugfix July 2018 build 013d7b7c2542+ Fri, 06 Jul 2018 19:26:36 +0100
REM compiler GCC version 9.3.0
REM options -cpp -mtune=generic -march=x86-64 -g -O0
REM seed -57008113 -420816181 1813190159 502043313 1427751936 1856232918 -914035648 -80028298 -1338148897 -499737919 845590813 -1612599249 -110691188 -338194896 2082748194 -906715351 610480021 43990939 -1784211350 -362081263 977852001 1555545225 -1362969432 1751347763 1092263868 29690014 -201580413 705068445 -853471399 -1211955569 -69204859 1588569778 -562240330
REM
CELL 1.54180   50.00000   50.00000   50.00000   90.00000   90.00000   90.00000
LATT -1
SFAC C  
C      1  0.5126410000000  0.5021570000000  0.5624290000000 1.0
C      1  0.4710400000000  0.4546910000000  0.5092300000000 1.0
C      1  0.5296530000000  0.4614530000000  0.4519560000000 1.0
C      1  0.4937040000000  0.4446060000000  0.5241810000000 1.0
C      1  0.4733560000000  0.4803760000000  0.4974710000000 1.0
C      1  0.5469890000000  0.5038550000000  0.4445220000000 1.0
C      1  0.4997730000000  0.5463080000000  0.5523710000000 1.0
C      1  0.5016970000000  0.5406120000000  0.5241800000000 1.0
C      1  0.5335240000000  0.5023420000000  0.5423470000000 1.0
C      1  0.5181040000000  0.4958750000000  0.4963750000000 1.0
C      1  0.4490620000000  0.4958940000000  0.5343210000000 1.0
C      1  0.4974810000000  0.4771940000000  0.5577290000000 1.0
C      1  0.4641630000000  0.5584580000000  0.4654130000000 1.0
C      1  0.5459040000000  0.5196520000000  0.4664110000000 1.0
C      1  0.4701280000000  0.4684560000000  0.5555070000000 1.0
C      1  0.5293490000000  0.5057060000000  0.4222210000000 1.0
C      1  0.5502380000000  0.4757520000000  0.4448610000000 1.0
C      1  0.4945850000000  0.4892470000000  0.4775370000000 1.0
C      1  0.4821900000000  0.5133220000000  0.4648670000000 1.0
C      1  0.4749840000000  0.5372070000000  0.4803480000000 1.0
C      1  0.4462690000000  0.4829480000000  0.5564480000000 1.0
C      1  0.5057270000000  0.4764290000000  0.4532510000000 1.0
C      1  0.4800960000000  0.5293400000000  0.5078770000000 1.0
C      1  0.5304760000000  0.5354000000000  0.5155090000000 1.0
C      1  0.4690010000000  0.4462740000000  0.5365430000000 1.0
C      1  0.4802990000000  0.5113180000000  0.4358690000000 1.0
C      1  0.5335820000000  0.5195320000000  0.4898720000000 1.0
C      1  0.4591950000000  0.5230640000000  0.4245570000000 1.0
C      1  0.5467410000000  0.5253460000000  0.5354080000000 1.0
C      1  0.5099080000000  0.4653690000000  0.5349100000000 1.0
C      1  0.5054830000000  0.5287030000000  0.5702080000000 1.0
C      1  0.4654310000000  0.5028640000000  0.5132210000000 1.0
C      1  0.5048000000000  0.4953630000000  0.4304260000000 1.0
C      1  0.5244260000000  0.4848850000000  0.5216280000000 1.0
END
