TITL C-111157-5680-1 0.0122472963504724 125000 -224.62957890822 0 0 33 (C1) n - 1
REM
REM in /rds/project/t2_vol4/rds-t2-cs072/BORA/CARBON/from-Arr/AIRSS/Generating-Clusters/GAP-ML-2020/Only-C1/SD-CG/HFTN-CG
REM
REM
REM
REM
REM
REM ./C.cell (11c1c37f851c82e70ff6c80c92926a4b)
REM AIRSS Version 0.9.1 bugfix July 2018 build 013d7b7c2542+ Fri, 06 Jul 2018 19:26:36 +0100
REM compiler GCC version 9.3.0
REM options -cpp -mtune=generic -march=x86-64 -g -O0
REM seed -1210191759 916299326 -460656016 1068227680 -1605428570 -1402996665 -430748864 1167201052 1558538237 -1457308949 1927097179 146439800 769444709 820317029 -883534061 1629206053 -1037691092 606923344 -919753548 1696331379 734003501 -2139154333 95791259 -50863624 246570385 2057181428 671007796 -1297759964 355939268 339176584 2051972656 911334015 1705612811
REM
CELL 1.54180   50.00000   50.00000   50.00000   90.00000   90.00000   90.00000
LATT -1
SFAC C  
C      1  0.5338260000000  0.5558000000000  0.5166660000000 1.0
C      1  0.4879970000000  0.4470860000000  0.5226870000000 1.0
C      1  0.4724040000000  0.4514900000000  0.4775040000000 1.0
C      1  0.5015640000000  0.4825270000000  0.4501290000000 1.0
C      1  0.5195360000000  0.4614690000000  0.4888730000000 1.0
C      1  0.5095340000000  0.5425270000000  0.5219630000000 1.0
C      1  0.5334110000000  0.5025650000000  0.5375480000000 1.0
C      1  0.4562360000000  0.5103980000000  0.5224070000000 1.0
C      1  0.5540800000000  0.4989950000000  0.4934450000000 1.0
C      1  0.5254850000000  0.5240250000000  0.4657300000000 1.0
C      1  0.4833460000000  0.4979240000000  0.4369410000000 1.0
C      1  0.4943340000000  0.4818130000000  0.5516740000000 1.0
C      1  0.4900500000000  0.5099090000000  0.5540420000000 1.0
C      1  0.5247630000000  0.4962980000000  0.4584000000000 1.0
C      1  0.5005080000000  0.5382780000000  0.4718200000000 1.0
C      1  0.4526450000000  0.4631540000000  0.4983800000000 1.0
C      1  0.4742030000000  0.4664380000000  0.5388010000000 1.0
C      1  0.4531010000000  0.5339510000000  0.4750290000000 1.0
C      1  0.4916770000000  0.5391540000000  0.4996270000000 1.0
C      1  0.5130490000000  0.5229110000000  0.5429140000000 1.0
C      1  0.5493440000000  0.5261110000000  0.4818600000000 1.0
C      1  0.5139850000000  0.4575480000000  0.5168370000000 1.0
C      1  0.4699150000000  0.4404990000000  0.5023170000000 1.0
C      1  0.5381110000000  0.4808340000000  0.4793740000000 1.0
C      1  0.4642340000000  0.5284140000000  0.5006680000000 1.0
C      1  0.4648040000000  0.5183560000000  0.5481430000000 1.0
C      1  0.5543420000000  0.5098410000000  0.5197110000000 1.0
C      1  0.4552790000000  0.4803980000000  0.5215130000000 1.0
C      1  0.4735090000000  0.5209800000000  0.4325910000000 1.0
C      1  0.5518910000000  0.5380860000000  0.5079460000000 1.0
C      1  0.5196650000000  0.4772150000000  0.5383000000000 1.0
C      1  0.4977380000000  0.4601260000000  0.4691810000000 1.0
C      1  0.4754360000000  0.5348800000000  0.4569770000000 1.0
END
