TITL C-111169-5901-1 -0.187042384824227 125000 -194.205506036175 0 0 29 (C1) n - 1
REM
REM in /rds/project/t2_vol4/rds-t2-cs072/BORA/CARBON/from-Arr/AIRSS/Generating-Clusters/GAP-ML-2020/Only-C1/SD-CG/HFTN-CG
REM
REM
REM
REM
REM
REM ./C.cell (11c1c37f851c82e70ff6c80c92926a4b)
REM AIRSS Version 0.9.1 bugfix July 2018 build 013d7b7c2542+ Fri, 06 Jul 2018 19:26:36 +0100
REM compiler GCC version 9.3.0
REM options -cpp -mtune=generic -march=x86-64 -g -O0
REM seed 1425593456 1324941223 708700537 -388302375 -745012473 1040082127 -657398857 -1130114511 -1211408364 1577232891 -429468505 1870971566 -1430629544 896377553 1407679922 -1386376132 -983545889 -60266265 61871486 -76847019 2064229571 827878437 -67496496 -1472644172 -138135208 -732867039 -534338525 1150343898 890184653 58165492 -1692647549 -1760764252 -628181270
REM
CELL 1.54180   50.00000   50.00000   50.00000   90.00000   90.00000   90.00000
LATT -1
SFAC C  
C      1  0.5541120000000  0.5116080000000  0.5036830000000 1.0
C      1  0.4905340000000  0.5143760000000  0.5520260000000 1.0
C      1  0.4660900000000  0.4594470000000  0.4765980000000 1.0
C      1  0.4510930000000  0.5087630000000  0.4761510000000 1.0
C      1  0.4656540000000  0.5034330000000  0.5564490000000 1.0
C      1  0.5253470000000  0.5119030000000  0.4544020000000 1.0
C      1  0.5142720000000  0.4605280000000  0.4952120000000 1.0
C      1  0.5177720000000  0.5314800000000  0.4747820000000 1.0
C      1  0.5380530000000  0.4695440000000  0.4802220000000 1.0
C      1  0.5239970000000  0.5318080000000  0.5237700000000 1.0
C      1  0.5426880000000  0.5089220000000  0.5301470000000 1.0
C      1  0.4508610000000  0.4810390000000  0.4852290000000 1.0
C      1  0.5047160000000  0.5066200000000  0.4368200000000 1.0
C      1  0.4963430000000  0.5314280000000  0.5292590000000 1.0
C      1  0.5562700000000  0.4901760000000  0.4865910000000 1.0
C      1  0.5150750000000  0.4648050000000  0.5238810000000 1.0
C      1  0.4518430000000  0.4905880000000  0.5137090000000 1.0
C      1  0.5306220000000  0.4852940000000  0.5391290000000 1.0
C      1  0.4893950000000  0.5348050000000  0.4793800000000 1.0
C      1  0.4709950000000  0.5214450000000  0.4611700000000 1.0
C      1  0.5069950000000  0.4901420000000  0.5552320000000 1.0
C      1  0.4919460000000  0.4700420000000  0.5410770000000 1.0
C      1  0.4899990000000  0.4533350000000  0.4824060000000 1.0
C      1  0.4801340000000  0.5120030000000  0.4363650000000 1.0
C      1  0.5346530000000  0.5326280000000  0.4972440000000 1.0
C      1  0.4542280000000  0.5180150000000  0.5042240000000 1.0
C      1  0.5426320000000  0.4906440000000  0.4618850000000 1.0
C      1  0.4652420000000  0.4822510000000  0.5368550000000 1.0
C      1  0.4784400000000  0.5329280000000  0.5060990000000 1.0
END
