TITL C-119456-4349-8 -42.5750781073869 125000 -99.9387863310402 0 0 16 (C1) n - 1
REM
REM in /rds/project/t2_vol4/rds-t2-cs072/BORA/CARBON/from-Arr/AIRSS/Generating-Clusters/GAP-ML-2020/Only-C1/SD-CG/HFTN-CG
REM
REM
REM
REM
REM
REM ./C.cell (11c1c37f851c82e70ff6c80c92926a4b)
REM AIRSS Version 0.9.1 bugfix July 2018 build 013d7b7c2542+ Fri, 06 Jul 2018 19:26:36 +0100
REM compiler GCC version 9.3.0
REM options -cpp -mtune=generic -march=x86-64 -g -O0
REM seed -1819473675 103835476 -180046854 -176091340 465052902 -2102666346 -2117950950 -136004959 1010734570 -1779179768 -1928135658 612394382 -156607705 -439374122 1951152964 -742692794 -791933505 -258356898 670204360 814883058 -922933255 -1245291168 1544451521 1706347285 -426363557 -26879749 -1878492031 413528947 312962325 -149060430 144929331 -1937313417 -890733824
REM
CELL 1.54180   50.00000   50.00000   50.00000   90.00000   90.00000   90.00000
LATT -1
SFAC C  
C      1  0.4621460000000  0.5210690000000  0.4653550000000 1.0
C      1  0.5438990000000  0.5050160000000  0.5117590000000 1.0
C      1  0.5093060000000  0.4593490000000  0.4877460000000 1.0
C      1  0.4883160000000  0.4642640000000  0.5048020000000 1.0
C      1  0.5327810000000  0.5248510000000  0.5002950000000 1.0
C      1  0.4893030000000  0.5456260000000  0.4901100000000 1.0
C      1  0.5371560000000  0.4641550000000  0.5409960000000 1.0
C      1  0.4779970000000  0.5354480000000  0.5148120000000 1.0
C      1  0.4726230000000  0.5111450000000  0.5193000000000 1.0
C      1  0.5332620000000  0.4601830000000  0.4804840000000 1.0
C      1  0.4634470000000  0.4968920000000  0.4748650000000 1.0
C      1  0.4709770000000  0.5457270000000  0.4672430000000 1.0
C      1  0.4874410000000  0.4537230000000  0.5291990000000 1.0
C      1  0.5438910000000  0.4823380000000  0.5243260000000 1.0
C      1  0.4711300000000  0.4894030000000  0.5001520000000 1.0
C      1  0.5163260000000  0.5408100000000  0.4885540000000 1.0
END
