TITL C-117349-4124-8 0.00622984581742099 125000 -72.8017420524397 0 0 12 (C1) n - 1
REM
REM in /rds/project/t2_vol4/rds-t2-cs072/BORA/CARBON/from-Arr/AIRSS/Generating-Clusters/GAP-ML-2020/Only-C1/SD-CG/HFTN-CG
REM
REM
REM
REM
REM
REM ./C.cell (11c1c37f851c82e70ff6c80c92926a4b)
REM AIRSS Version 0.9.1 bugfix July 2018 build 013d7b7c2542+ Fri, 06 Jul 2018 19:26:36 +0100
REM compiler GCC version 9.3.0
REM options -cpp -mtune=generic -march=x86-64 -g -O0
REM seed 1284225075 1705577718 1152859277 -80522911 -1261926864 725774 -1251744734 -548166790 -1569307304 1604961092 -740018072 216947913 -517694245 332822416 390943834 1678646240 -689619254 -324474277 -90176441 1441234313 -1427507839 -1588547607 1400005670 1380264609 381290876 -1794191238 -1943878415 -1775275674 -1227271391 474379983 1190320934 1922314574 344368803
REM
CELL 1.54180   50.00000   50.00000   50.00000   90.00000   90.00000   90.00000
LATT -1
SFAC C  
C      1  0.5169270000000  0.5291630000000  0.5374420000000 1.0
C      1  0.5005480000000  0.4787080000000  0.5418970000000 1.0
C      1  0.4937060000000  0.4647660000000  0.4921610000000 1.0
C      1  0.5159900000000  0.5002360000000  0.5295960000000 1.0
C      1  0.5390430000000  0.5163370000000  0.5357030000000 1.0
C      1  0.5066630000000  0.4735780000000  0.4688870000000 1.0
C      1  0.4728360000000  0.5585060000000  0.4911270000000 1.0
C      1  0.5038170000000  0.4767310000000  0.5154370000000 1.0
C      1  0.5256550000000  0.4745980000000  0.4513460000000 1.0
C      1  0.4723720000000  0.5087660000000  0.4789940000000 1.0
C      1  0.4725330000000  0.5340080000000  0.4824840000000 1.0
C      1  0.4799090000000  0.4846050000000  0.4749260000000 1.0
END
