TITL C-111138-5635-6 -0.224262796944548 125000 -892.920625916892 0 0 127 (C1) n - 1
REM
REM in /rds/project/t2_vol4/rds-t2-cs072/BORA/CARBON/from-Arr/AIRSS/Generating-Clusters/GAP-ML-2020/Only-C1/SD-CG/HFTN-CG
REM
REM
REM
REM
REM
REM ./C.cell (11c1c37f851c82e70ff6c80c92926a4b)
REM AIRSS Version 0.9.1 bugfix July 2018 build 013d7b7c2542+ Fri, 06 Jul 2018 19:26:36 +0100
REM compiler GCC version 9.3.0
REM options -cpp -mtune=generic -march=x86-64 -g -O0
REM seed 335537702 -317691390 -1020183517 -890274278 -230415543 348199224 164307215 -1385982911 -260708187 2044265540 -999835949 1194030765 758911246 137276429 -1010353980 1448420746 1245761845 1577343719 1188979514 1729885367 693894642 -88803996 1983007405 773729942 461998100 -1840927076 1824027996 -2047760475 -584125580 -1227791684 1111022821 1127805333 884009936
REM
CELL 1.54180   50.00000   50.00000   50.00000   90.00000   90.00000   90.00000
LATT -1
SFAC C  
C      1  0.5470100000000  0.5016880000000  0.4880710000000 1.0
C      1  0.4745970000000  0.5093670000000  0.5123460000000 1.0
C      1  0.4987890000000  0.4871170000000  0.3996810000000 1.0
C      1  0.4453170000000  0.4427470000000  0.5541940000000 1.0
C      1  0.5331310000000  0.5070170000000  0.5934910000000 1.0
C      1  0.4879910000000  0.5231210000000  0.5698180000000 1.0
C      1  0.5411720000000  0.5797420000000  0.5408650000000 1.0
C      1  0.5025130000000  0.5433470000000  0.5883990000000 1.0
C      1  0.5008770000000  0.5700460000000  0.5763470000000 1.0
C      1  0.4482010000000  0.4319110000000  0.5050810000000 1.0
C      1  0.5040230000000  0.5803590000000  0.4469490000000 1.0
C      1  0.5822970000000  0.4502230000000  0.4996800000000 1.0
C      1  0.5418200000000  0.4395870000000  0.4448640000000 1.0
C      1  0.4562630000000  0.4327360000000  0.4319020000000 1.0
C      1  0.4757660000000  0.5267190000000  0.4699090000000 1.0
C      1  0.5533530000000  0.4282910000000  0.4700510000000 1.0
C      1  0.4821090000000  0.5858660000000  0.5151380000000 1.0
C      1  0.5105560000000  0.4566370000000  0.5359510000000 1.0
C      1  0.4674430000000  0.4269610000000  0.5548640000000 1.0
C      1  0.4816430000000  0.4093200000000  0.4650780000000 1.0
C      1  0.5232170000000  0.4615560000000  0.4860720000000 1.0
C      1  0.4370800000000  0.5169980000000  0.5626250000000 1.0
C      1  0.4756960000000  0.5576260000000  0.5085270000000 1.0
C      1  0.4475070000000  0.5559390000000  0.4992730000000 1.0
C      1  0.5155500000000  0.5032020000000  0.4451810000000 1.0
C      1  0.5408480000000  0.4928140000000  0.4304720000000 1.0
C      1  0.4525210000000  0.4790180000000  0.4869030000000 1.0
C      1  0.4645020000000  0.4820990000000  0.5807870000000 1.0
C      1  0.4190850000000  0.5145240000000  0.5109490000000 1.0
C      1  0.4697070000000  0.4112870000000  0.5102670000000 1.0
C      1  0.5434790000000  0.4407860000000  0.5623380000000 1.0
C      1  0.4306000000000  0.4646610000000  0.4706840000000 1.0
C      1  0.4388740000000  0.4356950000000  0.4770160000000 1.0
C      1  0.5674740000000  0.5300300000000  0.5559960000000 1.0
C      1  0.4358360000000  0.5436530000000  0.5484680000000 1.0
C      1  0.5841590000000  0.5161880000000  0.5360490000000 1.0
C      1  0.4125550000000  0.4927120000000  0.5296440000000 1.0
C      1  0.5868790000000  0.4882320000000  0.5293850000000 1.0
C      1  0.4513990000000  0.5643720000000  0.5593980000000 1.0
C      1  0.4789150000000  0.5959230000000  0.4878590000000 1.0
C      1  0.5750530000000  0.5195550000000  0.4573250000000 1.0
C      1  0.5743500000000  0.4686490000000  0.4579020000000 1.0
C      1  0.5174470000000  0.5386730000000  0.4861280000000 1.0
C      1  0.4046500000000  0.4448240000000  0.5254910000000 1.0
C      1  0.5634860000000  0.5590380000000  0.5468190000000 1.0
C      1  0.4906620000000  0.5913180000000  0.5412640000000 1.0
C      1  0.5093210000000  0.4114540000000  0.5336540000000 1.0
C      1  0.4035610000000  0.5045640000000  0.4845900000000 1.0
C      1  0.4811090000000  0.5347460000000  0.5234370000000 1.0
C      1  0.4749050000000  0.5767290000000  0.5625600000000 1.0
C      1  0.5467740000000  0.5802020000000  0.4642790000000 1.0
C      1  0.5195360000000  0.5113170000000  0.4751050000000 1.0
C      1  0.4799610000000  0.5663940000000  0.4380650000000 1.0
C      1  0.5164270000000  0.5844330000000  0.5546960000000 1.0
C      1  0.4605780000000  0.5107260000000  0.5771450000000 1.0
C      1  0.4276850000000  0.5428650000000  0.5201900000000 1.0
C      1  0.5445310000000  0.4191890000000  0.4979240000000 1.0
C      1  0.5630720000000  0.4809860000000  0.5708730000000 1.0
C      1  0.4431920000000  0.4693220000000  0.5662960000000 1.0
C      1  0.4265770000000  0.4913520000000  0.5542600000000 1.0
C      1  0.4987040000000  0.4975550000000  0.5583040000000 1.0
C      1  0.5266940000000  0.5025740000000  0.5455640000000 1.0
C      1  0.4224750000000  0.5248050000000  0.4457050000000 1.0
C      1  0.4810330000000  0.4800550000000  0.4728980000000 1.0
C      1  0.4839770000000  0.4702770000000  0.4198420000000 1.0
C      1  0.5365160000000  0.5429030000000  0.4308830000000 1.0
C      1  0.4588980000000  0.4606010000000  0.5097080000000 1.0
C      1  0.5098550000000  0.5123290000000  0.3995360000000 1.0
C      1  0.4300350000000  0.4357500000000  0.5296820000000 1.0
C      1  0.5310420000000  0.5688510000000  0.4428690000000 1.0
C      1  0.5758040000000  0.4448540000000  0.4730690000000 1.0
C      1  0.5450260000000  0.5892030000000  0.5113570000000 1.0
C      1  0.5111930000000  0.5289240000000  0.4238450000000 1.0
C      1  0.5772690000000  0.4694340000000  0.5489320000000 1.0
C      1  0.3992650000000  0.5166010000000  0.4604020000000 1.0
C      1  0.5695870000000  0.5777540000000  0.5039510000000 1.0
C      1  0.5330140000000  0.5400530000000  0.5094980000000 1.0
C      1  0.4964050000000  0.4611850000000  0.4885750000000 1.0
C      1  0.5307220000000  0.5934790000000  0.4841850000000 1.0
C      1  0.4420860000000  0.5048050000000  0.4387560000000 1.0
C      1  0.4971870000000  0.4115120000000  0.4410560000000 1.0
C      1  0.5648510000000  0.4439290000000  0.5430080000000 1.0
C      1  0.4486060000000  0.5330040000000  0.4798170000000 1.0
C      1  0.4562770000000  0.5805830000000  0.4778460000000 1.0
C      1  0.5352320000000  0.4798090000000  0.5024280000000 1.0
C      1  0.5208050000000  0.5293400000000  0.6032830000000 1.0
C      1  0.4887680000000  0.4892920000000  0.4434880000000 1.0
C      1  0.4911700000000  0.4057670000000  0.4919100000000 1.0
C      1  0.5420960000000  0.4637230000000  0.5791690000000 1.0
C      1  0.4070900000000  0.4758640000000  0.4861600000000 1.0
C      1  0.4544190000000  0.5689960000000  0.4526580000000 1.0
C      1  0.4551230000000  0.4223310000000  0.4590720000000 1.0
C      1  0.4798360000000  0.4224270000000  0.4205550000000 1.0
C      1  0.4047650000000  0.4701000000000  0.5140310000000 1.0
C      1  0.4820880000000  0.4894300000000  0.5314840000000 1.0
C      1  0.5267720000000  0.4908530000000  0.4031220000000 1.0
C      1  0.4466850000000  0.5075530000000  0.4975310000000 1.0
C      1  0.4941680000000  0.4772570000000  0.5794170000000 1.0
C      1  0.5189410000000  0.4295370000000  0.4323020000000 1.0
C      1  0.5558730000000  0.5204330000000  0.4358760000000 1.0
C      1  0.4910640000000  0.5486800000000  0.4832120000000 1.0
C      1  0.5303100000000  0.4781690000000  0.5299090000000 1.0
C      1  0.5531890000000  0.4664930000000  0.4394590000000 1.0
C      1  0.4845750000000  0.5392410000000  0.4290470000000 1.0
C      1  0.5729920000000  0.5405300000000  0.4761140000000 1.0
C      1  0.5191760000000  0.4330030000000  0.5493640000000 1.0
C      1  0.5696230000000  0.5683890000000  0.4769660000000 1.0
C      1  0.4708880000000  0.5145500000000  0.4408560000000 1.0
C      1  0.4871170000000  0.4639260000000  0.5185080000000 1.0
C      1  0.5757770000000  0.4923150000000  0.4745290000000 1.0
C      1  0.5795890000000  0.5605810000000  0.5237790000000 1.0
C      1  0.4898570000000  0.5054330000000  0.4850520000000 1.0
C      1  0.4805380000000  0.4115240000000  0.5364910000000 1.0
C      1  0.4544900000000  0.4606260000000  0.4267140000000 1.0
C      1  0.5833300000000  0.5340830000000  0.5140370000000 1.0
C      1  0.4374060000000  0.4765480000000  0.4420580000000 1.0
C      1  0.5868470000000  0.4785110000000  0.5024650000000 1.0
C      1  0.5210080000000  0.4788020000000  0.5905690000000 1.0
C      1  0.5508400000000  0.5084650000000  0.5689530000000 1.0
C      1  0.5178880000000  0.4077250000000  0.5058620000000 1.0
C      1  0.5038320000000  0.5953990000000  0.4727830000000 1.0
C      1  0.4983460000000  0.4435520000000  0.4161980000000 1.0
C      1  0.5583850000000  0.5276990000000  0.4993350000000 1.0
C      1  0.5646790000000  0.4336220000000  0.5160760000000 1.0
C      1  0.4368610000000  0.5466400000000  0.4558530000000 1.0
C      1  0.4974770000000  0.5377680000000  0.5444070000000 1.0
C      1  0.5199330000000  0.5275450000000  0.5310530000000 1.0
END
