TITL C-111144-5651-8 -1.36538014097068 125000 -938.760196463437 0 0 135 (C1) n - 1
REM
REM in /rds/project/t2_vol4/rds-t2-cs072/BORA/CARBON/from-Arr/AIRSS/Generating-Clusters/GAP-ML-2020/Only-C1/SD-CG/HFTN-CG
REM
REM
REM
REM
REM
REM ./C.cell (11c1c37f851c82e70ff6c80c92926a4b)
REM AIRSS Version 0.9.1 bugfix July 2018 build 013d7b7c2542+ Fri, 06 Jul 2018 19:26:36 +0100
REM compiler GCC version 9.3.0
REM options -cpp -mtune=generic -march=x86-64 -g -O0
REM seed 2095511776 -1682314647 853599891 1809473721 -1149296971 -1550999681 -704869436 -1356354147 -1895618274 -1207526027 -319689731 -2040200563 1147034907 -635987028 1975892612 -632205239 1275558607 -1161818549 -980870621 -1133620700 -530500089 -1211794056 1928133002 -1867113088 1166818046 -1714980514 483050803 -1119199153 237619998 -892338979 -228201809 155971629 -1799273807
REM
CELL 1.54180   50.00000   50.00000   50.00000   90.00000   90.00000   90.00000
LATT -1
SFAC C  
C      1  0.5071760000000  0.4399600000000  0.4399400000000 1.0
C      1  0.5268030000000  0.4828190000000  0.5366090000000 1.0
C      1  0.5301030000000  0.5120580000000  0.5765080000000 1.0
C      1  0.4523000000000  0.5469870000000  0.5337070000000 1.0
C      1  0.5216430000000  0.4834590000000  0.4265960000000 1.0
C      1  0.5287380000000  0.4875550000000  0.5930640000000 1.0
C      1  0.4169270000000  0.4726780000000  0.4621040000000 1.0
C      1  0.5844480000000  0.5679520000000  0.4388880000000 1.0
C      1  0.5653640000000  0.4301540000000  0.4994510000000 1.0
C      1  0.5632400000000  0.5494380000000  0.5647270000000 1.0
C      1  0.4798180000000  0.5419630000000  0.4633050000000 1.0
C      1  0.4894120000000  0.5843710000000  0.4461840000000 1.0
C      1  0.4583530000000  0.4530270000000  0.4870190000000 1.0
C      1  0.5093020000000  0.5011570000000  0.4535050000000 1.0
C      1  0.5261620000000  0.5289810000000  0.4087430000000 1.0
C      1  0.5240570000000  0.5573970000000  0.5664150000000 1.0
C      1  0.4564500000000  0.4368520000000  0.4379380000000 1.0
C      1  0.5406720000000  0.4624560000000  0.5834430000000 1.0
C      1  0.5889190000000  0.4738130000000  0.5234800000000 1.0
C      1  0.4632460000000  0.5360540000000  0.5770230000000 1.0
C      1  0.5318030000000  0.5423390000000  0.4532740000000 1.0
C      1  0.5020590000000  0.5150820000000  0.5645990000000 1.0
C      1  0.5048290000000  0.5315990000000  0.4486030000000 1.0
C      1  0.4486980000000  0.5759890000000  0.5280110000000 1.0
C      1  0.3965160000000  0.4938570000000  0.4979690000000 1.0
C      1  0.5201050000000  0.5941880000000  0.4854840000000 1.0
C      1  0.4377010000000  0.5246470000000  0.5719040000000 1.0
C      1  0.5330430000000  0.4532570000000  0.5305030000000 1.0
C      1  0.5908970000000  0.4949290000000  0.5023220000000 1.0
C      1  0.5496460000000  0.4731280000000  0.4283830000000 1.0
C      1  0.5769120000000  0.4756740000000  0.4837560000000 1.0
C      1  0.4309930000000  0.4969510000000  0.5727830000000 1.0
C      1  0.5640750000000  0.5669770000000  0.5101920000000 1.0
C      1  0.5723360000000  0.5384600000000  0.5194170000000 1.0
C      1  0.4943800000000  0.5928740000000  0.4728040000000 1.0
C      1  0.4852360000000  0.4396370000000  0.4831140000000 1.0
C      1  0.4494550000000  0.4785680000000  0.5839130000000 1.0
C      1  0.4899270000000  0.4336120000000  0.5451250000000 1.0
C      1  0.5797400000000  0.5586550000000  0.4641920000000 1.0
C      1  0.4749380000000  0.5528380000000  0.5546200000000 1.0
C      1  0.5638210000000  0.4566600000000  0.5655420000000 1.0
C      1  0.5131330000000  0.4511890000000  0.5872420000000 1.0
C      1  0.4915970000000  0.4130390000000  0.4946750000000 1.0
C      1  0.4042470000000  0.4681710000000  0.5085800000000 1.0
C      1  0.4653390000000  0.4363060000000  0.5829040000000 1.0
C      1  0.5710010000000  0.5164210000000  0.4404160000000 1.0
C      1  0.5178040000000  0.4285360000000  0.5388150000000 1.0
C      1  0.4821570000000  0.4420220000000  0.4530090000000 1.0
C      1  0.5316330000000  0.4091080000000  0.5228990000000 1.0
C      1  0.4680480000000  0.5340660000000  0.5100370000000 1.0
C      1  0.5299920000000  0.4559480000000  0.4992390000000 1.0
C      1  0.4405080000000  0.4800510000000  0.4450070000000 1.0
C      1  0.4914380000000  0.4368140000000  0.5747580000000 1.0
C      1  0.4668670000000  0.5665500000000  0.4459720000000 1.0
C      1  0.4648210000000  0.4707550000000  0.4624760000000 1.0
C      1  0.5461560000000  0.5703510000000  0.5528880000000 1.0
C      1  0.4419660000000  0.4155610000000  0.5069910000000 1.0
C      1  0.5002180000000  0.4620650000000  0.5000410000000 1.0
C      1  0.5195000000000  0.5908490000000  0.5142040000000 1.0
C      1  0.4913950000000  0.5879380000000  0.5202290000000 1.0
C      1  0.4284050000000  0.5347870000000  0.5476990000000 1.0
C      1  0.4355830000000  0.4330800000000  0.4830410000000 1.0
C      1  0.4926070000000  0.4919790000000  0.4955170000000 1.0
C      1  0.5595220000000  0.5625150000000  0.4296570000000 1.0
C      1  0.4818180000000  0.5515550000000  0.4907740000000 1.0
C      1  0.4767410000000  0.5824900000000  0.4942410000000 1.0
C      1  0.5173210000000  0.5344200000000  0.5207440000000 1.0
C      1  0.5439620000000  0.5236640000000  0.5272600000000 1.0
C      1  0.4164090000000  0.5190470000000  0.4627610000000 1.0
C      1  0.4502000000000  0.5300060000000  0.4214230000000 1.0
C      1  0.5817450000000  0.4535420000000  0.5033360000000 1.0
C      1  0.5843050000000  0.4707600000000  0.4559910000000 1.0
C      1  0.5563830000000  0.4393130000000  0.5448200000000 1.0
C      1  0.4399230000000  0.4234350000000  0.5348460000000 1.0
C      1  0.5646990000000  0.5741790000000  0.4830190000000 1.0
C      1  0.4401960000000  0.5115800000000  0.4450540000000 1.0
C      1  0.4160980000000  0.4556130000000  0.4853300000000 1.0
C      1  0.4691360000000  0.4053120000000  0.5104330000000 1.0
C      1  0.4202360000000  0.5345470000000  0.4897440000000 1.0
C      1  0.5795850000000  0.5321890000000  0.5490540000000 1.0
C      1  0.4513090000000  0.5571060000000  0.4263480000000 1.0
C      1  0.4282900000000  0.4454030000000  0.5495170000000 1.0
C      1  0.4869980000000  0.5003400000000  0.4039590000000 1.0
C      1  0.4107910000000  0.4659960000000  0.5373760000000 1.0
C      1  0.5091590000000  0.5727680000000  0.4301930000000 1.0
C      1  0.5468680000000  0.5278170000000  0.4722530000000 1.0
C      1  0.5798030000000  0.4439570000000  0.4491690000000 1.0
C      1  0.5442930000000  0.5804640000000  0.5268070000000 1.0
C      1  0.5741430000000  0.5044610000000  0.5560830000000 1.0
C      1  0.5420070000000  0.5865240000000  0.4700720000000 1.0
C      1  0.5148760000000  0.5109730000000  0.4994190000000 1.0
C      1  0.4124110000000  0.4913760000000  0.5507380000000 1.0
C      1  0.4094340000000  0.5166200000000  0.5367280000000 1.0
C      1  0.5765210000000  0.5303140000000  0.4694630000000 1.0
C      1  0.4557880000000  0.4935100000000  0.5106020000000 1.0
C      1  0.4805610000000  0.5054380000000  0.5190310000000 1.0
C      1  0.5370590000000  0.4302630000000  0.4825880000000 1.0
C      1  0.4455320000000  0.5807320000000  0.5005010000000 1.0
C      1  0.4386530000000  0.4259890000000  0.4549120000000 1.0
C      1  0.5155770000000  0.5030420000000  0.4051940000000 1.0
C      1  0.5374410000000  0.4968180000000  0.5133220000000 1.0
C      1  0.4825990000000  0.4941500000000  0.4678640000000 1.0
C      1  0.4021610000000  0.5186360000000  0.5097540000000 1.0
C      1  0.4808810000000  0.5156280000000  0.5843520000000 1.0
C      1  0.5412890000000  0.5395370000000  0.5808230000000 1.0
C      1  0.5322830000000  0.4341240000000  0.4527540000000 1.0
C      1  0.5861790000000  0.5223690000000  0.4978780000000 1.0
C      1  0.4756230000000  0.4889990000000  0.5932420000000 1.0
C      1  0.4486860000000  0.5176120000000  0.4932980000000 1.0
C      1  0.4626310000000  0.5170620000000  0.4664290000000 1.0
C      1  0.4971030000000  0.4897870000000  0.5409840000000 1.0
C      1  0.4736780000000  0.5806740000000  0.5415310000000 1.0
C      1  0.5020740000000  0.4766920000000  0.5969760000000 1.0
C      1  0.5585130000000  0.4188610000000  0.5245540000000 1.0
C      1  0.5350460000000  0.5717900000000  0.4443470000000 1.0
C      1  0.4446560000000  0.4517230000000  0.5733760000000 1.0
C      1  0.4766680000000  0.5261060000000  0.4101790000000 1.0
C      1  0.4270920000000  0.5626940000000  0.4912680000000 1.0
C      1  0.5029440000000  0.4614310000000  0.4219110000000 1.0
C      1  0.4784770000000  0.4733080000000  0.4128540000000 1.0
C      1  0.5446930000000  0.5052210000000  0.5517510000000 1.0
C      1  0.4534020000000  0.4631510000000  0.4238100000000 1.0
C      1  0.5539310000000  0.4460570000000  0.4386320000000 1.0
C      1  0.5313830000000  0.5033870000000  0.4745990000000 1.0
C      1  0.4847060000000  0.4609270000000  0.5283360000000 1.0
C      1  0.5022950000000  0.5432050000000  0.4189710000000 1.0
C      1  0.5452330000000  0.4802510000000  0.4890910000000 1.0
C      1  0.5497450000000  0.5344470000000  0.4268410000000 1.0
C      1  0.4582720000000  0.4656110000000  0.5139270000000 1.0
C      1  0.4033200000000  0.4958450000000  0.4699820000000 1.0
C      1  0.5029050000000  0.5415030000000  0.5502880000000 1.0
C      1  0.5197200000000  0.4099860000000  0.4974540000000 1.0
C      1  0.4678830000000  0.4140370000000  0.5384030000000 1.0
C      1  0.5815120000000  0.4775630000000  0.5523450000000 1.0
C      1  0.5719610000000  0.4889130000000  0.4366380000000 1.0
END
