TITL C-117368-9897-2 41.2179496651151 125000 -796.071547217216 0 0 111 (C1) n - 1
REM
REM in /rds/project/t2_vol4/rds-t2-cs072/BORA/CARBON/from-Arr/AIRSS/Generating-Clusters/GAP-ML-2020/Only-C1/SD-CG/HFTN-CG
REM
REM
REM
REM
REM
REM ./C.cell (11c1c37f851c82e70ff6c80c92926a4b)
REM AIRSS Version 0.9.1 bugfix July 2018 build 013d7b7c2542+ Fri, 06 Jul 2018 19:26:36 +0100
REM compiler GCC version 9.3.0
REM options -cpp -mtune=generic -march=x86-64 -g -O0
REM seed 21759737 387277847 -793620136 618754385 -1961621491 297494568 2072319121 -1129758185 787540856 -1819251429 1184419568 319504787 -233513602 -1855611125 -777415908 -989569427 -1439320394 1025255251 -1527666476 -864099837 632498709 -326013362 -482949548 1173743889 497041475 2143767559 -1956881382 -1212470157 -847293575 970152328 1701875414 -319912955 1853996930
REM
CELL 1.54180   50.00000   50.00000   50.00000   90.00000   90.00000   90.00000
LATT -1
SFAC C  
C      1  0.5799140000000  0.5155380000000  0.5435080000000 1.0
C      1  0.5530560000000  0.4525100000000  0.4526330000000 1.0
C      1  0.5117650000000  0.4231510000000  0.4579260000000 1.0
C      1  0.4765230000000  0.4178920000000  0.5141810000000 1.0
C      1  0.5093020000000  0.5637220000000  0.4365550000000 1.0
C      1  0.4778040000000  0.4845810000000  0.5781200000000 1.0
C      1  0.5495560000000  0.5094320000000  0.5779740000000 1.0
C      1  0.5353980000000  0.4841510000000  0.5298270000000 1.0
C      1  0.4836020000000  0.4876430000000  0.4109520000000 1.0
C      1  0.4563580000000  0.4237580000000  0.4944460000000 1.0
C      1  0.5639080000000  0.4468370000000  0.5502500000000 1.0
C      1  0.4600490000000  0.4235040000000  0.4669900000000 1.0
C      1  0.4817620000000  0.5567830000000  0.4312260000000 1.0
C      1  0.5050820000000  0.4247680000000  0.5094560000000 1.0
C      1  0.5099290000000  0.4983630000000  0.4066040000000 1.0
C      1  0.5533660000000  0.4882840000000  0.4233740000000 1.0
C      1  0.4305840000000  0.4634680000000  0.4602850000000 1.0
C      1  0.5164150000000  0.4553110000000  0.4206960000000 1.0
C      1  0.5583840000000  0.5289200000000  0.5589770000000 1.0
C      1  0.4666880000000  0.5833570000000  0.4669240000000 1.0
C      1  0.4280290000000  0.5328420000000  0.5511160000000 1.0
C      1  0.5878050000000  0.4930650000000  0.4958100000000 1.0
C      1  0.4718560000000  0.5357440000000  0.4780630000000 1.0
C      1  0.5209020000000  0.4257680000000  0.5359960000000 1.0
C      1  0.5126860000000  0.5350820000000  0.5705800000000 1.0
C      1  0.4652460000000  0.4265550000000  0.5385750000000 1.0
C      1  0.4203930000000  0.5439890000000  0.5032740000000 1.0
C      1  0.5287460000000  0.4713400000000  0.5046790000000 1.0
C      1  0.5550200000000  0.5793530000000  0.4859760000000 1.0
C      1  0.5303220000000  0.4791590000000  0.4125380000000 1.0
C      1  0.5264940000000  0.5409390000000  0.4330980000000 1.0
C      1  0.5134450000000  0.5692170000000  0.5115940000000 1.0
C      1  0.4269760000000  0.4875230000000  0.5494970000000 1.0
C      1  0.4644820000000  0.5539940000000  0.5718290000000 1.0
C      1  0.5217740000000  0.4587760000000  0.5734350000000 1.0
C      1  0.5727000000000  0.5385810000000  0.4962310000000 1.0
C      1  0.5789690000000  0.5156610000000  0.5137010000000 1.0
C      1  0.5218190000000  0.5101370000000  0.5814540000000 1.0
C      1  0.5283290000000  0.4413240000000  0.4423260000000 1.0
C      1  0.5117680000000  0.5195650000000  0.4975930000000 1.0
C      1  0.5425120000000  0.5863090000000  0.4654770000000 1.0
C      1  0.4142920000000  0.4980600000000  0.5245110000000 1.0
C      1  0.4281780000000  0.4921910000000  0.4530440000000 1.0
C      1  0.5644220000000  0.4364020000000  0.4723570000000 1.0
C      1  0.4724050000000  0.4901540000000  0.4851640000000 1.0
C      1  0.5081850000000  0.4380570000000  0.5587020000000 1.0
C      1  0.4442240000000  0.5122060000000  0.4393460000000 1.0
C      1  0.5495950000000  0.4274600000000  0.5351420000000 1.0
C      1  0.5680300000000  0.5278930000000  0.4697250000000 1.0
C      1  0.5336370000000  0.4999090000000  0.4627390000000 1.0
C      1  0.4844920000000  0.4230310000000  0.4505580000000 1.0
C      1  0.4826420000000  0.5347330000000  0.5745920000000 1.0
C      1  0.5875300000000  0.4668410000000  0.5090780000000 1.0
C      1  0.4642230000000  0.4612090000000  0.5689070000000 1.0
C      1  0.4604360000000  0.5614710000000  0.4495300000000 1.0
C      1  0.5319490000000  0.4986830000000  0.4924100000000 1.0
C      1  0.5363630000000  0.5473910000000  0.5530470000000 1.0
C      1  0.4797560000000  0.4385790000000  0.5597280000000 1.0
C      1  0.4653170000000  0.5094830000000  0.4193320000000 1.0
C      1  0.4410400000000  0.4413020000000  0.5337250000000 1.0
C      1  0.5582950000000  0.4829900000000  0.4511870000000 1.0
C      1  0.4827610000000  0.5323670000000  0.4174900000000 1.0
C      1  0.4920970000000  0.4711270000000  0.4766010000000 1.0
C      1  0.5164680000000  0.5843330000000  0.4542780000000 1.0
C      1  0.5828320000000  0.4656240000000  0.5377350000000 1.0
C      1  0.4741350000000  0.5976790000000  0.5089330000000 1.0
C      1  0.4686130000000  0.4927400000000  0.5128320000000 1.0
C      1  0.5478370000000  0.4168240000000  0.4866070000000 1.0
C      1  0.4881730000000  0.4745010000000  0.5237960000000 1.0
C      1  0.4944840000000  0.5918520000000  0.4702740000000 1.0
C      1  0.5622500000000  0.4229970000000  0.5107450000000 1.0
C      1  0.4159460000000  0.5044710000000  0.4758140000000 1.0
C      1  0.5058780000000  0.4920480000000  0.4603730000000 1.0
C      1  0.4157640000000  0.5267570000000  0.5259390000000 1.0
C      1  0.4405020000000  0.5646730000000  0.5083010000000 1.0
C      1  0.5082330000000  0.4911560000000  0.5387260000000 1.0
C      1  0.4386590000000  0.5095600000000  0.5633800000000 1.0
C      1  0.5028380000000  0.4593910000000  0.5017570000000 1.0
C      1  0.5103030000000  0.5247970000000  0.4154050000000 1.0
C      1  0.5475890000000  0.5068610000000  0.5162310000000 1.0
C      1  0.4459990000000  0.5360170000000  0.4586350000000 1.0
C      1  0.4129400000000  0.4861710000000  0.4980340000000 1.0
C      1  0.4355120000000  0.4404980000000  0.5051150000000 1.0
C      1  0.5632530000000  0.4852410000000  0.5742660000000 1.0
C      1  0.4416840000000  0.5568340000000  0.5566020000000 1.0
C      1  0.5820750000000  0.4891610000000  0.5534020000000 1.0
C      1  0.4478150000000  0.4435310000000  0.4496280000000 1.0
C      1  0.5201620000000  0.4154890000000  0.4844860000000 1.0
C      1  0.5002910000000  0.5935030000000  0.4982170000000 1.0
C      1  0.4871220000000  0.5629420000000  0.5225050000000 1.0
C      1  0.5778010000000  0.5004670000000  0.4694730000000 1.0
C      1  0.5069210000000  0.4849590000000  0.5737590000000 1.0
C      1  0.5005850000000  0.5177210000000  0.5256250000000 1.0
C      1  0.5210300000000  0.5449610000000  0.4860570000000 1.0
C      1  0.4653050000000  0.5096840000000  0.5758930000000 1.0
C      1  0.4235110000000  0.5314840000000  0.4779240000000 1.0
C      1  0.5593330000000  0.5615400000000  0.5071090000000 1.0
C      1  0.4447590000000  0.5745740000000  0.5357830000000 1.0
C      1  0.4395220000000  0.4622030000000  0.5535400000000 1.0
C      1  0.4713190000000  0.5851900000000  0.5333130000000 1.0
C      1  0.5499570000000  0.4604630000000  0.5711570000000 1.0
C      1  0.5786050000000  0.4427720000000  0.4970960000000 1.0
C      1  0.4537720000000  0.5868430000000  0.4919750000000 1.0
C      1  0.5399320000000  0.5302360000000  0.4581010000000 1.0
C      1  0.4725110000000  0.5198990000000  0.5219030000000 1.0
C      1  0.4898340000000  0.5133250000000  0.4758300000000 1.0
C      1  0.4682930000000  0.5445480000000  0.5066910000000 1.0
C      1  0.4718810000000  0.4419820000000  0.4322990000000 1.0
C      1  0.4229540000000  0.4605660000000  0.4884250000000 1.0
C      1  0.5375410000000  0.5628690000000  0.5280500000000 1.0
C      1  0.4876910000000  0.4596280000000  0.4173220000000 1.0
END
