TITL C-112726-704-7 0.0045309662769887 125000 -184.555610194059 0 0 29 (C1) n - 1
REM
REM in /rds/project/t2_vol4/rds-t2-cs072/BORA/CARBON/from-Arr/AIRSS/Generating-Clusters/GAP-ML-2020/Only-C1/SD-CG/HFTN-CG
REM
REM
REM
REM
REM
REM ./C.cell (11c1c37f851c82e70ff6c80c92926a4b)
REM AIRSS Version 0.9.1 bugfix July 2018 build 013d7b7c2542+ Fri, 06 Jul 2018 19:26:36 +0100
REM compiler GCC version 9.3.0
REM options -cpp -mtune=generic -march=x86-64 -g -O0
REM seed -347264360 290554121 -2066382744 -1610809935 -416613051 1769131185 719731720 -454030730 1800828598 -394075426 -89117301 -205577498 -607692866 -1874071524 2136947661 608269807 -1868584882 -1532669977 1477427880 17708881 513349756 -2058764665 1812436610 618600528 -1520152168 -657084742 808107191 -1600628862 -752808498 858568641 -625626321 -1509575621 -48125073
REM
CELL 1.54180   50.00000   50.00000   50.00000   90.00000   90.00000   90.00000
LATT -1
SFAC C  
C      1  0.4763190000000  0.4486850000000  0.4921320000000 1.0
C      1  0.4833990000000  0.5210290000000  0.5089520000000 1.0
C      1  0.4992740000000  0.4459460000000  0.4830180000000 1.0
C      1  0.4847660000000  0.5459250000000  0.4935960000000 1.0
C      1  0.5101060000000  0.5520210000000  0.4802610000000 1.0
C      1  0.5308860000000  0.5352150000000  0.4918570000000 1.0
C      1  0.4929390000000  0.4725590000000  0.5590570000000 1.0
C      1  0.4904820000000  0.4951220000000  0.5447010000000 1.0
C      1  0.4972680000000  0.5195950000000  0.5337040000000 1.0
C      1  0.5370400000000  0.4960730000000  0.5229530000000 1.0
C      1  0.4616500000000  0.5573150000000  0.4807370000000 1.0
C      1  0.4568230000000  0.5078250000000  0.4679100000000 1.0
C      1  0.5402890000000  0.5412540000000  0.5166180000000 1.0
C      1  0.4437170000000  0.4825030000000  0.5051580000000 1.0
C      1  0.5181740000000  0.4877430000000  0.4980190000000 1.0
C      1  0.4388970000000  0.4936350000000  0.4831840000000 1.0
C      1  0.5436090000000  0.4472400000000  0.5016550000000 1.0
C      1  0.5252560000000  0.5224140000000  0.5294220000000 1.0
C      1  0.4584800000000  0.5347100000000  0.4685970000000 1.0
C      1  0.5074510000000  0.5402000000000  0.4528990000000 1.0
C      1  0.4711640000000  0.4728770000000  0.5083270000000 1.0
C      1  0.4882710000000  0.4943510000000  0.4965740000000 1.0
C      1  0.4837140000000  0.4979700000000  0.4682660000000 1.0
C      1  0.5628180000000  0.4911540000000  0.5267990000000 1.0
C      1  0.4818850000000  0.4707690000000  0.5345080000000 1.0
C      1  0.5061010000000  0.5140260000000  0.4603140000000 1.0
C      1  0.5267520000000  0.5092280000000  0.4798940000000 1.0
C      1  0.5602340000000  0.4426680000000  0.5200490000000 1.0
C      1  0.5222340000000  0.4599480000000  0.4908380000000 1.0
END
