TITL C-112706-1746-3 -89.7343664324155 125000 -830.588307011102 0 0 117 (C1) n - 1
REM
REM in /rds/project/t2_vol4/rds-t2-cs072/BORA/CARBON/from-Arr/AIRSS/Generating-Clusters/GAP-ML-2020/Only-C1/SD-CG/HFTN-CG
REM
REM
REM
REM
REM
REM ./C.cell (11c1c37f851c82e70ff6c80c92926a4b)
REM AIRSS Version 0.9.1 bugfix July 2018 build 013d7b7c2542+ Fri, 06 Jul 2018 19:26:36 +0100
REM compiler GCC version 9.3.0
REM options -cpp -mtune=generic -march=x86-64 -g -O0
REM seed -401584550 -547469866 2147046156 729444926 -52832252 -2095917059 49494955 -1379236198 -3420429 -1918154641 -464499355 25651211 761774698 1216647309 -1130921807 -953777233 1965829689 1896851212 1544515102 1786857974 227092260 -1669863876 -682532337 1036056495 -1023592969 624607739 -254850111 70880579 -386935376 1704113252 -864847827 -1701231437 430584487
REM
CELL 1.54180   50.00000   50.00000   50.00000   90.00000   90.00000   90.00000
LATT -1
SFAC C  
C      1  0.4669770000000  0.4200320000000  0.4680020000000 1.0
C      1  0.5615140000000  0.4359210000000  0.4926160000000 1.0
C      1  0.4717110000000  0.4369950000000  0.5563870000000 1.0
C      1  0.4518380000000  0.5714540000000  0.4725600000000 1.0
C      1  0.4464840000000  0.4321030000000  0.4851500000000 1.0
C      1  0.5334070000000  0.5288620000000  0.4904710000000 1.0
C      1  0.5217880000000  0.4785730000000  0.5322100000000 1.0
C      1  0.5533080000000  0.4438550000000  0.5479770000000 1.0
C      1  0.4710950000000  0.5534170000000  0.4284390000000 1.0
C      1  0.4496620000000  0.4994950000000  0.4660060000000 1.0
C      1  0.5403930000000  0.5656340000000  0.5267200000000 1.0
C      1  0.4695650000000  0.4977630000000  0.4228380000000 1.0
C      1  0.4964290000000  0.5840180000000  0.4662510000000 1.0
C      1  0.4354300000000  0.4530940000000  0.4685130000000 1.0
C      1  0.5756650000000  0.4557740000000  0.5366330000000 1.0
C      1  0.4462730000000  0.4778550000000  0.4264450000000 1.0
C      1  0.5394560000000  0.5453270000000  0.4289110000000 1.0
C      1  0.5813010000000  0.4720260000000  0.4697640000000 1.0
C      1  0.4560270000000  0.5281370000000  0.4275210000000 1.0
C      1  0.4977210000000  0.4828820000000  0.5778770000000 1.0
C      1  0.5069050000000  0.4223280000000  0.4449140000000 1.0
C      1  0.5795570000000  0.5314190000000  0.4707840000000 1.0
C      1  0.5247120000000  0.5774250000000  0.4713480000000 1.0
C      1  0.4124090000000  0.5054700000000  0.5375120000000 1.0
C      1  0.4796260000000  0.4837730000000  0.5533930000000 1.0
C      1  0.4516160000000  0.5089650000000  0.5148900000000 1.0
C      1  0.5922390000000  0.5072260000000  0.5357090000000 1.0
C      1  0.4619780000000  0.4303430000000  0.4411180000000 1.0
C      1  0.5504010000000  0.4516940000000  0.4416140000000 1.0
C      1  0.4330160000000  0.5532170000000  0.5127490000000 1.0
C      1  0.4977540000000  0.5832070000000  0.5374240000000 1.0
C      1  0.4964010000000  0.4140260000000  0.4709780000000 1.0
C      1  0.5202720000000  0.5690700000000  0.5485190000000 1.0
C      1  0.4602040000000  0.5858580000000  0.4951210000000 1.0
C      1  0.5583740000000  0.4772330000000  0.4299670000000 1.0
C      1  0.4364130000000  0.5483010000000  0.4832630000000 1.0
C      1  0.4934910000000  0.5002070000000  0.5019120000000 1.0
C      1  0.5037020000000  0.5393950000000  0.5024720000000 1.0
C      1  0.4960100000000  0.4872420000000  0.4115300000000 1.0
C      1  0.4313120000000  0.5230240000000  0.4409360000000 1.0
C      1  0.4700630000000  0.5751720000000  0.5415430000000 1.0
C      1  0.5232390000000  0.5086360000000  0.5334180000000 1.0
C      1  0.4504250000000  0.4795840000000  0.5076310000000 1.0
C      1  0.5293970000000  0.5801580000000  0.5021980000000 1.0
C      1  0.5974310000000  0.5242990000000  0.4901220000000 1.0
C      1  0.4082200000000  0.4918370000000  0.4914650000000 1.0
C      1  0.4927050000000  0.5483350000000  0.4121900000000 1.0
C      1  0.5562830000000  0.4874950000000  0.5652620000000 1.0
C      1  0.4861880000000  0.4335110000000  0.4276290000000 1.0
C      1  0.4765670000000  0.4946960000000  0.4523000000000 1.0
C      1  0.5144370000000  0.5511540000000  0.5716590000000 1.0
C      1  0.5769820000000  0.5171300000000  0.4461510000000 1.0
C      1  0.5383230000000  0.4216420000000  0.5050460000000 1.0
C      1  0.5453210000000  0.4993190000000  0.4165830000000 1.0
C      1  0.4726880000000  0.5112360000000  0.5379780000000 1.0
C      1  0.4726230000000  0.5720860000000  0.4520530000000 1.0
C      1  0.4302390000000  0.4956420000000  0.4409360000000 1.0
C      1  0.5363340000000  0.4753100000000  0.5078860000000 1.0
C      1  0.4312860000000  0.4623180000000  0.5248290000000 1.0
C      1  0.5054210000000  0.5920010000000  0.5115820000000 1.0
C      1  0.4597210000000  0.4617790000000  0.5614560000000 1.0
C      1  0.5756290000000  0.5294890000000  0.5723430000000 1.0
C      1  0.5593390000000  0.5433130000000  0.5274240000000 1.0
C      1  0.5204450000000  0.4827870000000  0.4856160000000 1.0
C      1  0.5573740000000  0.5235810000000  0.4270960000000 1.0
C      1  0.4338140000000  0.4676310000000  0.5536450000000 1.0
C      1  0.5997600000000  0.5037640000000  0.5078950000000 1.0
C      1  0.4804800000000  0.4746130000000  0.5051050000000 1.0
C      1  0.5741530000000  0.4850260000000  0.5423490000000 1.0
C      1  0.4451610000000  0.4351830000000  0.5140040000000 1.0
C      1  0.5649880000000  0.4489380000000  0.4669160000000 1.0
C      1  0.5181900000000  0.5050980000000  0.4089610000000 1.0
C      1  0.5246490000000  0.4428810000000  0.4350400000000 1.0
C      1  0.4982920000000  0.5198390000000  0.5248310000000 1.0
C      1  0.4938900000000  0.4712130000000  0.5301370000000 1.0
C      1  0.4316660000000  0.5288820000000  0.5300240000000 1.0
C      1  0.5602560000000  0.4914030000000  0.5126690000000 1.0
C      1  0.5102850000000  0.4139360000000  0.4969320000000 1.0
C      1  0.4246150000000  0.4938250000000  0.5602420000000 1.0
C      1  0.4851070000000  0.5252820000000  0.4850560000000 1.0
C      1  0.4972770000000  0.4660470000000  0.4818270000000 1.0
C      1  0.5263990000000  0.5258590000000  0.5818180000000 1.0
C      1  0.5798570000000  0.4515140000000  0.5095390000000 1.0
C      1  0.4879010000000  0.4685320000000  0.4555210000000 1.0
C      1  0.5378550000000  0.4248210000000  0.5337160000000 1.0
C      1  0.5804580000000  0.5322440000000  0.5455830000000 1.0
C      1  0.4028200000000  0.5158270000000  0.4808340000000 1.0
C      1  0.5462960000000  0.5189710000000  0.5154620000000 1.0
C      1  0.4815450000000  0.5249130000000  0.5934800000000 1.0
C      1  0.4671280000000  0.4251960000000  0.5301620000000 1.0
C      1  0.5529910000000  0.5137620000000  0.5775380000000 1.0
C      1  0.5415440000000  0.5606230000000  0.4544940000000 1.0
C      1  0.5044760000000  0.5083100000000  0.5895220000000 1.0
C      1  0.4970330000000  0.5142960000000  0.4617960000000 1.0
C      1  0.4447410000000  0.4531080000000  0.4411730000000 1.0
C      1  0.5374980000000  0.4650930000000  0.5609520000000 1.0
C      1  0.5126780000000  0.4585320000000  0.5753470000000 1.0
C      1  0.4559850000000  0.5217980000000  0.4871860000000 1.0
C      1  0.4510520000000  0.5743140000000  0.5194690000000 1.0
C      1  0.4866590000000  0.5942100000000  0.4910110000000 1.0
C      1  0.4658950000000  0.5557200000000  0.5610080000000 1.0
C      1  0.4514720000000  0.5310110000000  0.5532500000000 1.0
C      1  0.5005650000000  0.4609070000000  0.4275660000000 1.0
C      1  0.5852320000000  0.4786490000000  0.4973870000000 1.0
C      1  0.5542660000000  0.5452180000000  0.4748120000000 1.0
C      1  0.4993940000000  0.4360720000000  0.5639500000000 1.0
C      1  0.4168720000000  0.5339290000000  0.4653160000000 1.0
C      1  0.5159000000000  0.5348320000000  0.4134470000000 1.0
C      1  0.4081540000000  0.4842170000000  0.5186870000000 1.0
C      1  0.4344790000000  0.4791140000000  0.4816470000000 1.0
C      1  0.5780030000000  0.4886120000000  0.4468990000000 1.0
C      1  0.4941070000000  0.4158990000000  0.5216330000000 1.0
C      1  0.4866840000000  0.5492800000000  0.5791130000000 1.0
C      1  0.4407270000000  0.5134800000000  0.5746490000000 1.0
C      1  0.4562500000000  0.5144480000000  0.5966440000000 1.0
C      1  0.5236510000000  0.5069070000000  0.4707800000000 1.0
C      1  0.5117370000000  0.4210660000000  0.5431400000000 1.0
END
