TITL C-111147-6642-4 55.325145551963 125000 -422.720504652998 0 0 61 (C1) n - 1
REM
REM in /rds/project/t2_vol4/rds-t2-cs072/BORA/CARBON/from-Arr/AIRSS/Generating-Clusters/GAP-ML-2020/Only-C1/SD-CG/HFTN-CG
REM
REM
REM
REM
REM
REM ./C.cell (11c1c37f851c82e70ff6c80c92926a4b)
REM AIRSS Version 0.9.1 bugfix July 2018 build 013d7b7c2542+ Fri, 06 Jul 2018 19:26:36 +0100
REM compiler GCC version 9.3.0
REM options -cpp -mtune=generic -march=x86-64 -g -O0
REM seed -725984853 805947148 -1443970264 -510504376 1478186277 -1282257034 1603405248 -1830174046 190871819 1844035027 -763002911 440980964 722718173 -958616972 -1358003998 142915145 -1751363022 2109401750 -334784761 -1179563251 953742772 -971115328 -771832813 -1565454905 179594682 -880254894 1953839947 -1378046559 -1614042061 -461242783 145246351 -55333744 10163023
REM
CELL 1.54180   50.00000   50.00000   50.00000   90.00000   90.00000   90.00000
LATT -1
SFAC C  
C      1  0.4614400000000  0.4622120000000  0.5290780000000 1.0
C      1  0.5339570000000  0.5198590000000  0.5589510000000 1.0
C      1  0.4771750000000  0.4701290000000  0.4448110000000 1.0
C      1  0.4881490000000  0.5604370000000  0.4610850000000 1.0
C      1  0.4542650000000  0.4472810000000  0.5067590000000 1.0
C      1  0.5036170000000  0.4375940000000  0.5185790000000 1.0
C      1  0.4962850000000  0.4770120000000  0.5540610000000 1.0
C      1  0.5357220000000  0.5118230000000  0.5291460000000 1.0
C      1  0.5608320000000  0.4723880000000  0.5133200000000 1.0
C      1  0.4319880000000  0.5283560000000  0.5106410000000 1.0
C      1  0.4453550000000  0.4613750000000  0.4825910000000 1.0
C      1  0.5182790000000  0.4479970000000  0.4901820000000 1.0
C      1  0.4379040000000  0.4885050000000  0.4832320000000 1.0
C      1  0.5308420000000  0.5532730000000  0.4790980000000 1.0
C      1  0.5129770000000  0.5514540000000  0.5249070000000 1.0
C      1  0.4839460000000  0.5255220000000  0.5622770000000 1.0
C      1  0.5549410000000  0.4454960000000  0.5109690000000 1.0
C      1  0.5358790000000  0.4817550000000  0.5254310000000 1.0
C      1  0.5049450000000  0.4416090000000  0.4656070000000 1.0
C      1  0.5515400000000  0.5341600000000  0.4829000000000 1.0
C      1  0.5138730000000  0.4753760000000  0.5032690000000 1.0
C      1  0.5314850000000  0.4629990000000  0.5475830000000 1.0
C      1  0.4400980000000  0.5013210000000  0.5090480000000 1.0
C      1  0.5304870000000  0.4400420000000  0.5312310000000 1.0
C      1  0.4320030000000  0.5431640000000  0.5341750000000 1.0
C      1  0.5323160000000  0.5001440000000  0.5775280000000 1.0
C      1  0.5076460000000  0.5211540000000  0.5221360000000 1.0
C      1  0.5302810000000  0.4777270000000  0.4458150000000 1.0
C      1  0.4754810000000  0.5514330000000  0.5514970000000 1.0
C      1  0.5554700000000  0.5152690000000  0.4603760000000 1.0
C      1  0.5114010000000  0.5345700000000  0.5662330000000 1.0
C      1  0.5342510000000  0.5071800000000  0.4426000000000 1.0
C      1  0.4614050000000  0.4521140000000  0.4612920000000 1.0
C      1  0.5668910000000  0.4913920000000  0.4709030000000 1.0
C      1  0.4857230000000  0.4870310000000  0.5012320000000 1.0
C      1  0.4792240000000  0.4329620000000  0.4730070000000 1.0
C      1  0.5126490000000  0.5636960000000  0.4996940000000 1.0
C      1  0.5148940000000  0.5503460000000  0.4551940000000 1.0
C      1  0.4474680000000  0.5333280000000  0.4640410000000 1.0
C      1  0.4452860000000  0.5047870000000  0.4603440000000 1.0
C      1  0.4698150000000  0.5427730000000  0.4494070000000 1.0
C      1  0.4866230000000  0.4547550000000  0.5390220000000 1.0
C      1  0.4838190000000  0.5204990000000  0.4378090000000 1.0
C      1  0.5466300000000  0.4489960000000  0.4849170000000 1.0
C      1  0.5572630000000  0.5192370000000  0.5074430000000 1.0
C      1  0.4767650000000  0.4311320000000  0.5011140000000 1.0
C      1  0.4673490000000  0.4968190000000  0.4428360000000 1.0
C      1  0.4615900000000  0.5621940000000  0.5019330000000 1.0
C      1  0.4567470000000  0.5574530000000  0.5316660000000 1.0
C      1  0.5129150000000  0.5259810000000  0.4396850000000 1.0
C      1  0.5056100000000  0.4625440000000  0.4459620000000 1.0
C      1  0.4425830000000  0.5453180000000  0.4888770000000 1.0
C      1  0.4860990000000  0.5680460000000  0.4884800000000 1.0
C      1  0.5702650000000  0.4946820000000  0.4986050000000 1.0
C      1  0.4860510000000  0.5031370000000  0.5428460000000 1.0
C      1  0.5038920000000  0.5577530000000  0.5505460000000 1.0
C      1  0.5221630000000  0.4970210000000  0.4854600000000 1.0
C      1  0.4643370000000  0.4909910000000  0.5238490000000 1.0
C      1  0.5204430000000  0.4766040000000  0.5697640000000 1.0
C      1  0.4991180000000  0.5113100000000  0.4953260000000 1.0
C      1  0.5515540000000  0.4684800000000  0.4636280000000 1.0
END
