TITL C-111141-6613-11 663.865546889042 125000 -554.332113037117 0 0 79 (C1) n - 1
REM
REM in /rds/project/t2_vol4/rds-t2-cs072/BORA/CARBON/from-Arr/AIRSS/Generating-Clusters/GAP-ML-2020/Only-C1/SD-CG/HFTN-CG
REM
REM
REM
REM
REM
REM ./C.cell (11c1c37f851c82e70ff6c80c92926a4b)
REM AIRSS Version 0.9.1 bugfix July 2018 build 013d7b7c2542+ Fri, 06 Jul 2018 19:26:36 +0100
REM compiler GCC version 9.3.0
REM options -cpp -mtune=generic -march=x86-64 -g -O0
REM seed 1867752919 1257396241 938456277 1167264081 -2031565609 1933097127 -372467976 1734757002 220065806 -1282944333 81914543 -1824208845 835503559 -1011740465 -520305363 -343315813 -1182587906 2031943723 1908855254 -676881293 -932781034 717540663 1850684548 -1629063836 1961217614 17964672 1750004590 830052296 -1435789351 -1111019193 1427027698 506505272 1893220378
REM
CELL 1.54180   50.00000   50.00000   50.00000   90.00000   90.00000   90.00000
LATT -1
SFAC C  
C      1  0.4853910000000  0.4110850000000  0.5152820000000 1.0
C      1  0.4578720000000  0.5696130000000  0.5063980000000 1.0
C      1  0.4989110000000  0.5198980000000  0.5027250000000 1.0
C      1  0.4270290000000  0.5241550000000  0.5191910000000 1.0
C      1  0.4921120000000  0.4594240000000  0.4999820000000 1.0
C      1  0.5133940000000  0.4106980000000  0.5096710000000 1.0
C      1  0.5678370000000  0.5306440000000  0.4948760000000 1.0
C      1  0.4536940000000  0.4392490000000  0.4904670000000 1.0
C      1  0.5267180000000  0.4261430000000  0.5294660000000 1.0
C      1  0.4690280000000  0.4619260000000  0.4787220000000 1.0
C      1  0.5556690000000  0.5382660000000  0.4703280000000 1.0
C      1  0.5267250000000  0.5731570000000  0.5104310000000 1.0
C      1  0.4706280000000  0.4922170000000  0.4767630000000 1.0
C      1  0.4823940000000  0.5820060000000  0.4999060000000 1.0
C      1  0.5413330000000  0.5222970000000  0.5611300000000 1.0
C      1  0.4889350000000  0.5015360000000  0.4194600000000 1.0
C      1  0.4956800000000  0.5508710000000  0.4352020000000 1.0
C      1  0.5282870000000  0.4350450000000  0.4655720000000 1.0
C      1  0.4880160000000  0.4734080000000  0.5258230000000 1.0
C      1  0.4398950000000  0.4766000000000  0.5192820000000 1.0
C      1  0.4996730000000  0.4881890000000  0.4653270000000 1.0
C      1  0.5617610000000  0.5363910000000  0.5220100000000 1.0
C      1  0.5261930000000  0.5224880000000  0.4335250000000 1.0
C      1  0.4869910000000  0.5637140000000  0.5419070000000 1.0
C      1  0.4601550000000  0.5576360000000  0.5326190000000 1.0
C      1  0.4482980000000  0.5061840000000  0.4624630000000 1.0
C      1  0.5617960000000  0.4878300000000  0.5350390000000 1.0
C      1  0.5449050000000  0.4469440000000  0.5232020000000 1.0
C      1  0.4454010000000  0.5331000000000  0.5388560000000 1.0
C      1  0.5108590000000  0.4790620000000  0.5797600000000 1.0
C      1  0.4261030000000  0.5360520000000  0.4928820000000 1.0
C      1  0.5218190000000  0.4569370000000  0.5643590000000 1.0
C      1  0.5012650000000  0.4371380000000  0.4518910000000 1.0
C      1  0.5169740000000  0.4984030000000  0.5085930000000 1.0
C      1  0.4843760000000  0.4847430000000  0.5863390000000 1.0
C      1  0.4247930000000  0.4969440000000  0.5080790000000 1.0
C      1  0.4984620000000  0.5244600000000  0.5737030000000 1.0
C      1  0.5212260000000  0.5074350000000  0.5743590000000 1.0
C      1  0.4569590000000  0.5544330000000  0.4602720000000 1.0
C      1  0.5679930000000  0.5026290000000  0.4888110000000 1.0
C      1  0.4719530000000  0.4169770000000  0.4900320000000 1.0
C      1  0.4959010000000  0.5798350000000  0.4752550000000 1.0
C      1  0.5190510000000  0.5114290000000  0.4611350000000 1.0
C      1  0.4435650000000  0.5568500000000  0.4853490000000 1.0
C      1  0.5134100000000  0.4758550000000  0.4881650000000 1.0
C      1  0.5424770000000  0.5567430000000  0.5283880000000 1.0
C      1  0.5380170000000  0.5581870000000  0.4608720000000 1.0
C      1  0.4820080000000  0.5665260000000  0.4544730000000 1.0
C      1  0.5396420000000  0.4686130000000  0.5423960000000 1.0
C      1  0.5406950000000  0.4594330000000  0.4743150000000 1.0
C      1  0.5329470000000  0.4797710000000  0.4283690000000 1.0
C      1  0.4571900000000  0.4359260000000  0.5376780000000 1.0
C      1  0.4791730000000  0.5271000000000  0.4298740000000 1.0
C      1  0.5607300000000  0.5149940000000  0.5418790000000 1.0
C      1  0.5093270000000  0.4340780000000  0.5511600000000 1.0
C      1  0.4917310000000  0.4167630000000  0.4694620000000 1.0
C      1  0.4793790000000  0.4775210000000  0.4278310000000 1.0
C      1  0.5177620000000  0.4144090000000  0.4823170000000 1.0
C      1  0.4745120000000  0.5080490000000  0.5743160000000 1.0
C      1  0.4585030000000  0.5101900000000  0.5507110000000 1.0
C      1  0.4446100000000  0.4484970000000  0.5165340000000 1.0
C      1  0.4863120000000  0.4617400000000  0.4506130000000 1.0
C      1  0.4270940000000  0.5096100000000  0.4811930000000 1.0
C      1  0.5307570000000  0.5475690000000  0.5528690000000 1.0
C      1  0.5237400000000  0.5739520000000  0.4808460000000 1.0
C      1  0.5468280000000  0.4781670000000  0.4514850000000 1.0
C      1  0.4812400000000  0.4236930000000  0.5414780000000 1.0
C      1  0.5185950000000  0.5011300000000  0.4174600000000 1.0
C      1  0.5686210000000  0.4819480000000  0.5078960000000 1.0
C      1  0.4723440000000  0.5086360000000  0.5021790000000 1.0
C      1  0.5072000000000  0.5306690000000  0.4788670000000 1.0
C      1  0.4567710000000  0.5288440000000  0.4472990000000 1.0
C      1  0.4646700000000  0.4912170000000  0.5276260000000 1.0
C      1  0.5124360000000  0.4864520000000  0.5330950000000 1.0
C      1  0.5506790000000  0.5053380000000  0.4648570000000 1.0
C      1  0.5006480000000  0.5781920000000  0.5212500000000 1.0
C      1  0.5237730000000  0.5498370000000  0.4367510000000 1.0
C      1  0.5033650000000  0.5487880000000  0.5597170000000 1.0
C      1  0.5567930000000  0.4575190000000  0.4993340000000 1.0
END
