TITL C-119464-5445-3 0.0121155803058398 125000 -105.975332788441 0 0 17 (C1) n - 1
REM
REM in /rds/project/t2_vol4/rds-t2-cs072/BORA/CARBON/from-Arr/AIRSS/Generating-Clusters/GAP-ML-2020/Only-C1/SD-CG/HFTN-CG
REM
REM
REM
REM
REM
REM ./C.cell (11c1c37f851c82e70ff6c80c92926a4b)
REM AIRSS Version 0.9.1 bugfix July 2018 build 013d7b7c2542+ Fri, 06 Jul 2018 19:26:36 +0100
REM compiler GCC version 9.3.0
REM options -cpp -mtune=generic -march=x86-64 -g -O0
REM seed -1247607055 110931536 1039492669 -1984523840 -1339357987 -796192696 1623067814 -1580892444 1080642552 -1361485598 1855606633 178164586 -185543131 1786311323 -2019682078 -1587836732 2115699945 -315783976 886476858 1455769689 504540070 -539351710 -667810191 -1887415266 2141314016 -1291754122 -161426300 87267675 -1400746264 1500652203 -1501724212 1754424444 204346685
REM
CELL 1.54180   50.00000   50.00000   50.00000   90.00000   90.00000   90.00000
LATT -1
SFAC C  
C      1  0.4481750000000  0.5518260000000  0.4908710000000 1.0
C      1  0.4931300000000  0.4740690000000  0.4740870000000 1.0
C      1  0.4383750000000  0.5296180000000  0.4987280000000 1.0
C      1  0.5185980000000  0.4872050000000  0.5541400000000 1.0
C      1  0.5180540000000  0.5183650000000  0.4812130000000 1.0
C      1  0.5259870000000  0.4393770000000  0.4561460000000 1.0
C      1  0.5425170000000  0.5137040000000  0.4795860000000 1.0
C      1  0.4797750000000  0.4917420000000  0.4897100000000 1.0
C      1  0.4374780000000  0.5046070000000  0.5068050000000 1.0
C      1  0.5026490000000  0.5338890000000  0.5443190000000 1.0
C      1  0.5066040000000  0.4557390000000  0.4629890000000 1.0
C      1  0.4930950000000  0.5277970000000  0.5213460000000 1.0
C      1  0.5519760000000  0.4834970000000  0.5137360000000 1.0
C      1  0.5345720000000  0.4868650000000  0.5336250000000 1.0
C      1  0.5589430000000  0.4975160000000  0.4933520000000 1.0
C      1  0.4941110000000  0.5167060000000  0.4956370000000 1.0
C      1  0.4559610000000  0.4874770000000  0.5037110000000 1.0
END
