TITL C-119483-4361-9 267.126376599993 125000 -1077.26931787027 0 0 154 (C1) n - 1
REM
REM in /rds/project/t2_vol4/rds-t2-cs072/BORA/CARBON/from-Arr/AIRSS/Generating-Clusters/GAP-ML-2020/Only-C1/SD-CG/HFTN-CG
REM
REM
REM
REM
REM
REM ./C.cell (11c1c37f851c82e70ff6c80c92926a4b)
REM AIRSS Version 0.9.1 bugfix July 2018 build 013d7b7c2542+ Fri, 06 Jul 2018 19:26:36 +0100
REM compiler GCC version 9.3.0
REM options -cpp -mtune=generic -march=x86-64 -g -O0
REM seed 1679509890 1553053934 304716181 -859142736 -24750804 -1971334698 788510551 -449553169 2015974732 1459437041 -1353546593 984443501 48007786 -2693841 734936841 1807732862 -1215416705 1916460228 -1352690365 -659791499 -1832648405 1937089391 -1184059415 437308832 -101631335 185001688 1440591716 -1228483414 -365302728 -978567920 464283483 -1887771671 676836328
REM
CELL 1.54180   50.00000   50.00000   50.00000   90.00000   90.00000   90.00000
LATT -1
SFAC C  
C      1  0.5391770000000  0.4972300000000  0.4544030000000 1.0
C      1  0.4279510000000  0.5701910000000  0.5327170000000 1.0
C      1  0.4959370000000  0.4630670000000  0.4652040000000 1.0
C      1  0.5912910000000  0.4617800000000  0.5198860000000 1.0
C      1  0.4788960000000  0.5999470000000  0.4921280000000 1.0
C      1  0.4981250000000  0.4637530000000  0.5820830000000 1.0
C      1  0.4722160000000  0.4886030000000  0.4052920000000 1.0
C      1  0.4507500000000  0.4220550000000  0.4959050000000 1.0
C      1  0.4824180000000  0.5426980000000  0.4480590000000 1.0
C      1  0.5857750000000  0.5026680000000  0.4416260000000 1.0
C      1  0.5357700000000  0.4610930000000  0.5074480000000 1.0
C      1  0.5206630000000  0.5009470000000  0.3990370000000 1.0
C      1  0.4178760000000  0.5273420000000  0.5070240000000 1.0
C      1  0.4863470000000  0.5874200000000  0.4669140000000 1.0
C      1  0.5759420000000  0.5479000000000  0.4434490000000 1.0
C      1  0.5384490000000  0.4834420000000  0.5874920000000 1.0
C      1  0.5543360000000  0.4223940000000  0.4925080000000 1.0
C      1  0.5284550000000  0.4374390000000  0.4917150000000 1.0
C      1  0.4885070000000  0.5368010000000  0.3983120000000 1.0
C      1  0.5683220000000  0.4628340000000  0.4673830000000 1.0
C      1  0.4939470000000  0.5257420000000  0.6187590000000 1.0
C      1  0.4429080000000  0.4916110000000  0.4745720000000 1.0
C      1  0.5555980000000  0.5363020000000  0.4272300000000 1.0
C      1  0.4256570000000  0.4947750000000  0.4326710000000 1.0
C      1  0.5009810000000  0.4365130000000  0.5802220000000 1.0
C      1  0.4623670000000  0.5138880000000  0.5317830000000 1.0
C      1  0.4026130000000  0.4717200000000  0.5194060000000 1.0
C      1  0.4326310000000  0.5219870000000  0.4375070000000 1.0
C      1  0.4900440000000  0.4771580000000  0.5090480000000 1.0
C      1  0.5360830000000  0.5309800000000  0.5663610000000 1.0
C      1  0.4269000000000  0.4760660000000  0.5631500000000 1.0
C      1  0.5143220000000  0.4705440000000  0.5238040000000 1.0
C      1  0.4129700000000  0.4451510000000  0.5124490000000 1.0
C      1  0.5933190000000  0.5288220000000  0.5334830000000 1.0
C      1  0.4183650000000  0.5294750000000  0.5564480000000 1.0
C      1  0.5143890000000  0.4269340000000  0.5554230000000 1.0
C      1  0.4254330000000  0.4532110000000  0.4584470000000 1.0
C      1  0.3898920000000  0.5145770000000  0.5043670000000 1.0
C      1  0.4533780000000  0.4273380000000  0.4256940000000 1.0
C      1  0.5730330000000  0.4973060000000  0.5618500000000 1.0
C      1  0.5670590000000  0.5661230000000  0.4609100000000 1.0
C      1  0.5156880000000  0.5808840000000  0.4662290000000 1.0
C      1  0.5231970000000  0.5524870000000  0.4745130000000 1.0
C      1  0.4474780000000  0.5489840000000  0.5768990000000 1.0
C      1  0.4910900000000  0.5009690000000  0.4921660000000 1.0
C      1  0.5536270000000  0.5571270000000  0.4841900000000 1.0
C      1  0.4256060000000  0.4329500000000  0.5346630000000 1.0
C      1  0.5505860000000  0.5751180000000  0.5340270000000 1.0
C      1  0.4789590000000  0.4573110000000  0.4873530000000 1.0
C      1  0.5668030000000  0.4295450000000  0.5437890000000 1.0
C      1  0.5047910000000  0.4301010000000  0.4242380000000 1.0
C      1  0.6078430000000  0.4849610000000  0.5109910000000 1.0
C      1  0.4326380000000  0.5755530000000  0.4872930000000 1.0
C      1  0.4673620000000  0.4432860000000  0.5336800000000 1.0
C      1  0.5748490000000  0.4683620000000  0.5663320000000 1.0
C      1  0.5934730000000  0.5276870000000  0.4529090000000 1.0
C      1  0.4505220000000  0.4676480000000  0.4924400000000 1.0
C      1  0.5194930000000  0.4221550000000  0.4480480000000 1.0
C      1  0.4939470000000  0.5738810000000  0.5628190000000 1.0
C      1  0.4923180000000  0.5045080000000  0.6005670000000 1.0
C      1  0.5103740000000  0.5412000000000  0.4997030000000 1.0
C      1  0.5933820000000  0.5224600000000  0.4810050000000 1.0
C      1  0.5586920000000  0.5071350000000  0.4292460000000 1.0
C      1  0.4311640000000  0.5364420000000  0.4610210000000 1.0
C      1  0.5008190000000  0.5947600000000  0.5105590000000 1.0
C      1  0.5091290000000  0.3855890000000  0.4878060000000 1.0
C      1  0.4516740000000  0.5837190000000  0.5251980000000 1.0
C      1  0.4516250000000  0.5941180000000  0.4996890000000 1.0
C      1  0.5126610000000  0.5066360000000  0.4496700000000 1.0
C      1  0.5113550000000  0.5355680000000  0.4507190000000 1.0
C      1  0.4625960000000  0.5221890000000  0.4364960000000 1.0
C      1  0.4608990000000  0.4458460000000  0.5624630000000 1.0
C      1  0.5460590000000  0.5456250000000  0.5391320000000 1.0
C      1  0.4513220000000  0.4693740000000  0.5226750000000 1.0
C      1  0.4974970000000  0.5417530000000  0.5962080000000 1.0
C      1  0.4672900000000  0.5210670000000  0.5017520000000 1.0
C      1  0.4313450000000  0.4433460000000  0.4876370000000 1.0
C      1  0.4716460000000  0.4996340000000  0.5778720000000 1.0
C      1  0.5553310000000  0.4993200000000  0.5333740000000 1.0
C      1  0.4981100000000  0.3968120000000  0.5103080000000 1.0
C      1  0.6095620000000  0.5061230000000  0.5300040000000 1.0
C      1  0.5646160000000  0.5273380000000  0.5239660000000 1.0
C      1  0.5441370000000  0.5056320000000  0.4837650000000 1.0
C      1  0.5188670000000  0.5748210000000  0.4330950000000 1.0
C      1  0.6023820000000  0.4947630000000  0.4846860000000 1.0
C      1  0.5093570000000  0.3988320000000  0.4635180000000 1.0
C      1  0.4316100000000  0.4478040000000  0.5597820000000 1.0
C      1  0.4725740000000  0.4851170000000  0.5329200000000 1.0
C      1  0.3841780000000  0.4900860000000  0.5088950000000 1.0
C      1  0.4739300000000  0.5653530000000  0.5214460000000 1.0
C      1  0.4920780000000  0.4913450000000  0.4621870000000 1.0
C      1  0.5238260000000  0.4998790000000  0.5301960000000 1.0
C      1  0.4786700000000  0.4202840000000  0.4335210000000 1.0
C      1  0.4522780000000  0.4189400000000  0.5239520000000 1.0
C      1  0.5115910000000  0.4837320000000  0.5958300000000 1.0
C      1  0.4982000000000  0.5737350000000  0.5334170000000 1.0
C      1  0.4993710000000  0.4796050000000  0.4007960000000 1.0
C      1  0.4704710000000  0.5165980000000  0.4080850000000 1.0
C      1  0.5853010000000  0.4512250000000  0.5470570000000 1.0
C      1  0.5512170000000  0.5073750000000  0.5776050000000 1.0
C      1  0.5534980000000  0.4784640000000  0.4919130000000 1.0
C      1  0.5250480000000  0.5920740000000  0.4944490000000 1.0
C      1  0.4542520000000  0.5658680000000  0.4138950000000 1.0
C      1  0.5161070000000  0.5469330000000  0.5287110000000 1.0
C      1  0.5101120000000  0.5220280000000  0.5465660000000 1.0
C      1  0.4504900000000  0.5787290000000  0.4370880000000 1.0
C      1  0.4758990000000  0.5921510000000  0.4399610000000 1.0
C      1  0.4417310000000  0.4962350000000  0.5794510000000 1.0
C      1  0.5508210000000  0.4588700000000  0.5763050000000 1.0
C      1  0.5900030000000  0.4374480000000  0.5036900000000 1.0
C      1  0.5445920000000  0.4901000000000  0.4093800000000 1.0
C      1  0.5385450000000  0.4643800000000  0.4207310000000 1.0
C      1  0.5480630000000  0.5799180000000  0.5050780000000 1.0
C      1  0.5645130000000  0.5287910000000  0.4931450000000 1.0
C      1  0.4803060000000  0.5634660000000  0.4035940000000 1.0
C      1  0.4846430000000  0.4123180000000  0.4608900000000 1.0
C      1  0.5632580000000  0.4756320000000  0.5181810000000 1.0
C      1  0.4798010000000  0.5474180000000  0.4978680000000 1.0
C      1  0.4780700000000  0.5498360000000  0.5735740000000 1.0
C      1  0.4802610000000  0.5223060000000  0.5556850000000 1.0
C      1  0.5129690000000  0.4552510000000  0.4122420000000 1.0
C      1  0.5757940000000  0.4371050000000  0.4786640000000 1.0
C      1  0.4892690000000  0.4057800000000  0.5550780000000 1.0
C      1  0.5972020000000  0.5112620000000  0.5545900000000 1.0
C      1  0.4389530000000  0.5193260000000  0.4855130000000 1.0
C      1  0.5184120000000  0.5119310000000  0.5003790000000 1.0
C      1  0.4296810000000  0.5142450000000  0.5330070000000 1.0
C      1  0.5204520000000  0.5754950000000  0.5727810000000 1.0
C      1  0.4645530000000  0.4952470000000  0.4513580000000 1.0
C      1  0.5431520000000  0.4648660000000  0.4501380000000 1.0
C      1  0.4326580000000  0.5227460000000  0.5798480000000 1.0
C      1  0.4728260000000  0.5586950000000  0.4700880000000 1.0
C      1  0.4767500000000  0.4236990000000  0.5736840000000 1.0
C      1  0.4950170000000  0.5824500000000  0.4207020000000 1.0
C      1  0.4207920000000  0.4812160000000  0.4571200000000 1.0
C      1  0.5225330000000  0.4472020000000  0.4636120000000 1.0
C      1  0.4412180000000  0.4504980000000  0.4340910000000 1.0
C      1  0.4992770000000  0.4420580000000  0.5308410000000 1.0
C      1  0.4775000000000  0.3993060000000  0.5309260000000 1.0
C      1  0.5028060000000  0.4257870000000  0.5051360000000 1.0
C      1  0.5232150000000  0.5501510000000  0.5851320000000 1.0
C      1  0.5902970000000  0.4821530000000  0.4614830000000 1.0
C      1  0.5151990000000  0.5293830000000  0.4018270000000 1.0
C      1  0.5433290000000  0.4339100000000  0.5609490000000 1.0
C      1  0.4420330000000  0.5635690000000  0.4628570000000 1.0
C      1  0.4276120000000  0.5569530000000  0.5572020000000 1.0
C      1  0.4773880000000  0.4734460000000  0.5646030000000 1.0
C      1  0.5399590000000  0.5866130000000  0.5562630000000 1.0
C      1  0.4202950000000  0.5582930000000  0.5075650000000 1.0
C      1  0.4509680000000  0.4789530000000  0.4262520000000 1.0
C      1  0.5703490000000  0.4205600000000  0.5169210000000 1.0
C      1  0.4784170000000  0.4274210000000  0.4865040000000 1.0
C      1  0.4239860000000  0.4845770000000  0.5351740000000 1.0
C      1  0.5285780000000  0.5463670000000  0.4247450000000 1.0
END
