TITL C-111166-6113-1 197.018650220578 125000 -1046.89119387234 0 0 148 (C1) n - 1
REM
REM in /rds/project/t2_vol4/rds-t2-cs072/BORA/CARBON/from-Arr/AIRSS/Generating-Clusters/GAP-ML-2020/Only-C1/SD-CG/HFTN-CG
REM
REM
REM
REM
REM
REM ./C.cell (11c1c37f851c82e70ff6c80c92926a4b)
REM AIRSS Version 0.9.1 bugfix July 2018 build 013d7b7c2542+ Fri, 06 Jul 2018 19:26:36 +0100
REM compiler GCC version 9.3.0
REM options -cpp -mtune=generic -march=x86-64 -g -O0
REM seed 341676673 -400062448 -532284717 -620264579 700582520 1853928609 1990790762 -1393539354 -107901912 -1109685849 -862882350 140446694 305574347 1811083722 1946582327 619545175 644263420 752914532 -1327390744 1694031653 548661767 -1127409973 -1594635534 -1452370118 -1694916534 -1064313165 -1963155612 -1417574558 -537790672 -412730513 219092960 -1265918379 -1905346063
REM
CELL 1.54180   50.00000   50.00000   50.00000   90.00000   90.00000   90.00000
LATT -1
SFAC C  
C      1  0.5301780000000  0.4263510000000  0.4505140000000 1.0
C      1  0.5441890000000  0.4087660000000  0.5076850000000 1.0
C      1  0.5493100000000  0.4293820000000  0.5490240000000 1.0
C      1  0.4023460000000  0.5258440000000  0.4920070000000 1.0
C      1  0.5214780000000  0.4911560000000  0.4002750000000 1.0
C      1  0.5911050000000  0.4721300000000  0.4903830000000 1.0
C      1  0.5638410000000  0.4782960000000  0.5695120000000 1.0
C      1  0.5220700000000  0.3983850000000  0.4906450000000 1.0
C      1  0.5303780000000  0.5133200000000  0.4582360000000 1.0
C      1  0.4432380000000  0.5692470000000  0.5563030000000 1.0
C      1  0.4953560000000  0.4530170000000  0.4922210000000 1.0
C      1  0.4730580000000  0.5144590000000  0.4654960000000 1.0
C      1  0.5266630000000  0.5352430000000  0.5364260000000 1.0
C      1  0.4653270000000  0.3982930000000  0.5337320000000 1.0
C      1  0.4473700000000  0.5212560000000  0.4787080000000 1.0
C      1  0.4119480000000  0.5463630000000  0.4466740000000 1.0
C      1  0.4962010000000  0.5248120000000  0.5054980000000 1.0
C      1  0.4728050000000  0.5887780000000  0.5230220000000 1.0
C      1  0.4136590000000  0.4639180000000  0.5235310000000 1.0
C      1  0.4416930000000  0.4706710000000  0.5702800000000 1.0
C      1  0.4901780000000  0.4154930000000  0.4524320000000 1.0
C      1  0.5739430000000  0.4469290000000  0.4548030000000 1.0
C      1  0.4176450000000  0.5338760000000  0.5417300000000 1.0
C      1  0.5722980000000  0.5151610000000  0.4306670000000 1.0
C      1  0.4651870000000  0.5958000000000  0.4790460000000 1.0
C      1  0.5803360000000  0.5260350000000  0.5421340000000 1.0
C      1  0.4820540000000  0.5596410000000  0.4826480000000 1.0
C      1  0.5585780000000  0.5702370000000  0.5557710000000 1.0
C      1  0.5232130000000  0.4853360000000  0.4619670000000 1.0
C      1  0.4605860000000  0.4503050000000  0.5834580000000 1.0
C      1  0.5930180000000  0.4867660000000  0.4647340000000 1.0
C      1  0.4036970000000  0.4982120000000  0.4843160000000 1.0
C      1  0.5032080000000  0.4413400000000  0.4426430000000 1.0
C      1  0.5523070000000  0.5227080000000  0.5265680000000 1.0
C      1  0.5340850000000  0.5752290000000  0.5706430000000 1.0
C      1  0.5149660000000  0.5914420000000  0.4996930000000 1.0
C      1  0.5411300000000  0.4519740000000  0.4164990000000 1.0
C      1  0.5169460000000  0.5368120000000  0.4620570000000 1.0
C      1  0.4487990000000  0.5152830000000  0.5089200000000 1.0
C      1  0.4348180000000  0.4599920000000  0.5443880000000 1.0
C      1  0.4944690000000  0.5716780000000  0.5079050000000 1.0
C      1  0.5612770000000  0.5352770000000  0.5004500000000 1.0
C      1  0.5805550000000  0.5238140000000  0.5714180000000 1.0
C      1  0.4455080000000  0.5477170000000  0.5754720000000 1.0
C      1  0.4294780000000  0.4167640000000  0.5054300000000 1.0
C      1  0.4370520000000  0.5541870000000  0.4817920000000 1.0
C      1  0.4063830000000  0.4889680000000  0.5114670000000 1.0
C      1  0.5654670000000  0.5024390000000  0.5843610000000 1.0
C      1  0.4411620000000  0.4276850000000  0.4586180000000 1.0
C      1  0.5837100000000  0.5137380000000  0.4589710000000 1.0
C      1  0.5142820000000  0.5179400000000  0.5567560000000 1.0
C      1  0.5552150000000  0.5658280000000  0.5033160000000 1.0
C      1  0.4818720000000  0.5517370000000  0.4194690000000 1.0
C      1  0.5160640000000  0.4561440000000  0.5107810000000 1.0
C      1  0.5351310000000  0.4692480000000  0.5742250000000 1.0
C      1  0.4961010000000  0.3918230000000  0.5009790000000 1.0
C      1  0.5469160000000  0.4786310000000  0.4084810000000 1.0
C      1  0.5780300000000  0.5493460000000  0.5606230000000 1.0
C      1  0.4449390000000  0.5001880000000  0.5753260000000 1.0
C      1  0.5287220000000  0.4921730000000  0.5536590000000 1.0
C      1  0.4834550000000  0.5257000000000  0.4066810000000 1.0
C      1  0.4649430000000  0.4102130000000  0.4622240000000 1.0
C      1  0.4610840000000  0.4461290000000  0.5352520000000 1.0
C      1  0.5022440000000  0.4971390000000  0.5120670000000 1.0
C      1  0.4731830000000  0.5300520000000  0.5255320000000 1.0
C      1  0.5152570000000  0.5798580000000  0.4414770000000 1.0
C      1  0.4911990000000  0.5612560000000  0.5841700000000 1.0
C      1  0.4164980000000  0.5174400000000  0.5175740000000 1.0
C      1  0.4231310000000  0.4470250000000  0.5017910000000 1.0
C      1  0.4989990000000  0.4677360000000  0.4637640000000 1.0
C      1  0.5123570000000  0.4015150000000  0.5468590000000 1.0
C      1  0.4349870000000  0.5694860000000  0.5074770000000 1.0
C      1  0.5552190000000  0.5381900000000  0.4241200000000 1.0
C      1  0.4250750000000  0.4977740000000  0.4355100000000 1.0
C      1  0.5460760000000  0.4923550000000  0.5299970000000 1.0
C      1  0.4755740000000  0.4660480000000  0.3982000000000 1.0
C      1  0.5963400000000  0.5371880000000  0.4716470000000 1.0
C      1  0.4926840000000  0.5332700000000  0.4765680000000 1.0
C      1  0.4618690000000  0.4202910000000  0.5504890000000 1.0
C      1  0.4580230000000  0.4886190000000  0.5135470000000 1.0
C      1  0.4920880000000  0.4888170000000  0.5908390000000 1.0
C      1  0.5965710000000  0.5134120000000  0.5195820000000 1.0
C      1  0.4499280000000  0.4656130000000  0.4956450000000 1.0
C      1  0.4090750000000  0.5462710000000  0.4731590000000 1.0
C      1  0.5337180000000  0.5651870000000  0.4594370000000 1.0
C      1  0.4513560000000  0.3998640000000  0.5089450000000 1.0
C      1  0.5830600000000  0.4715950000000  0.4434160000000 1.0
C      1  0.4595960000000  0.5598900000000  0.4365230000000 1.0
C      1  0.4704830000000  0.5410450000000  0.5865410000000 1.0
C      1  0.5269070000000  0.4426620000000  0.5623500000000 1.0
C      1  0.4528900000000  0.5918620000000  0.5043360000000 1.0
C      1  0.4543900000000  0.4806150000000  0.4052150000000 1.0
C      1  0.4837400000000  0.5133870000000  0.5491130000000 1.0
C      1  0.4893450000000  0.5824780000000  0.5651750000000 1.0
C      1  0.5391280000000  0.5078160000000  0.5967450000000 1.0
C      1  0.5281850000000  0.4829520000000  0.5082690000000 1.0
C      1  0.4590240000000  0.5694120000000  0.4656630000000 1.0
C      1  0.5132930000000  0.4476580000000  0.4149710000000 1.0
C      1  0.5709610000000  0.4731730000000  0.5370980000000 1.0
C      1  0.5525320000000  0.4375400000000  0.4390480000000 1.0
C      1  0.4923200000000  0.3916770000000  0.5293630000000 1.0
C      1  0.4305790000000  0.5246630000000  0.5666560000000 1.0
C      1  0.5191810000000  0.5569600000000  0.5879520000000 1.0
C      1  0.4759130000000  0.4260560000000  0.5736800000000 1.0
C      1  0.5051910000000  0.4207180000000  0.5677370000000 1.0
C      1  0.5696000000000  0.4882480000000  0.4227700000000 1.0
C      1  0.5064850000000  0.5465810000000  0.5198710000000 1.0
C      1  0.4280380000000  0.4988490000000  0.4660910000000 1.0
C      1  0.5161330000000  0.4064820000000  0.4639950000000 1.0
C      1  0.4699410000000  0.3963890000000  0.4877370000000 1.0
C      1  0.5274730000000  0.5943180000000  0.5284720000000 1.0
C      1  0.5084160000000  0.4501310000000  0.5378260000000 1.0
C      1  0.4589750000000  0.5099450000000  0.4061280000000 1.0
C      1  0.4841940000000  0.4631220000000  0.5455400000000 1.0
C      1  0.4998890000000  0.5981960000000  0.4534370000000 1.0
C      1  0.5119070000000  0.5182810000000  0.4031600000000 1.0
C      1  0.4347360000000  0.5458140000000  0.4311790000000 1.0
C      1  0.4476610000000  0.4746810000000  0.4674700000000 1.0
C      1  0.4820070000000  0.4885070000000  0.5313420000000 1.0
C      1  0.5543600000000  0.5154460000000  0.4765760000000 1.0
C      1  0.5372660000000  0.5776900000000  0.4856770000000 1.0
C      1  0.4730290000000  0.5105610000000  0.5800600000000 1.0
C      1  0.5912690000000  0.5315470000000  0.4992050000000 1.0
C      1  0.4397780000000  0.4540530000000  0.4473140000000 1.0
C      1  0.5777400000000  0.4465230000000  0.4840650000000 1.0
C      1  0.4699510000000  0.4468490000000  0.5039980000000 1.0
C      1  0.5820180000000  0.5572280000000  0.4600920000000 1.0
C      1  0.5590150000000  0.5574390000000  0.4454510000000 1.0
C      1  0.5210480000000  0.4856500000000  0.5946660000000 1.0
C      1  0.5908340000000  0.4849520000000  0.5164440000000 1.0
C      1  0.5517180000000  0.5793760000000  0.5289500000000 1.0
C      1  0.4273500000000  0.5603920000000  0.5343660000000 1.0
C      1  0.4815770000000  0.4662230000000  0.5770810000000 1.0
C      1  0.5414540000000  0.4877860000000  0.4833290000000 1.0
C      1  0.5280990000000  0.5403710000000  0.4128500000000 1.0
C      1  0.4662090000000  0.5845380000000  0.5497920000000 1.0
C      1  0.5157730000000  0.5900440000000  0.5547740000000 1.0
C      1  0.5238800000000  0.5289380000000  0.5855800000000 1.0
C      1  0.4342130000000  0.4723070000000  0.4246130000000 1.0
C      1  0.4364930000000  0.5196240000000  0.4202650000000 1.0
C      1  0.5656440000000  0.4446340000000  0.5316210000000 1.0
C      1  0.5380400000000  0.4072050000000  0.5353840000000 1.0
C      1  0.5089000000000  0.5611440000000  0.4205010000000 1.0
C      1  0.5022710000000  0.4687420000000  0.3997040000000 1.0
C      1  0.4236040000000  0.4266440000000  0.4811070000000 1.0
C      1  0.5645950000000  0.4315980000000  0.5052290000000 1.0
C      1  0.4757630000000  0.4865350000000  0.4602520000000 1.0
C      1  0.4934620000000  0.6042310000000  0.4788480000000 1.0
END
